@<TRIPOS>MOLECULE
ZINC53166256
   43    46     0     0     0
SMALL
USER_CHARGES

@<TRIPOS>ATOM
      1 C1         -0.0645    1.4412   -0.3732 C.3       1 <0>         0.0245
      2 N1         -0.0216   -0.0161   -0.1927 N.3       1 <0>        -0.5427
      3 C2          0.3881   -0.6883   -1.4329 C.3       1 <0>         0.0399
      4 C3          0.2462   -2.2042   -1.2592 C.3       1 <0>         0.1270
      5 N2          0.9912   -2.6085   -0.0572 N.pl3     1 <0>        -0.5934
      6 C4          0.7333   -1.8856    1.1973 C.3       1 <0>         0.1156
      7 C5          0.8560   -0.3822    0.9269 C.3       1 <0>         0.0395
      8 C6          1.9059   -3.6360   -0.1053 C.2       1 <0>         0.5356
      9 N3          2.1874   -4.1476   -1.2567 N.2       1 <0>        -0.6206
     10 C7          2.9530   -5.2310   -1.5577 C.ar      1 <0>         0.1701
     11 C8          2.4830   -6.1190   -2.5335 C.ar      1 <0>        -0.1161
     12 C9          3.2327   -7.2189   -2.8990 C.ar      1 <0>        -0.1046
     13 C10         4.4585   -7.4578   -2.3086 C.ar      1 <0>        -0.1308
     14 C11         4.9338   -6.5952   -1.3330 C.ar      1 <0>        -0.1099
     15 C12         4.1849   -5.4996   -0.9492 C.ar      1 <0>         0.0928
     16 N4          4.6603   -4.6750    0.0974 N.pl3     1 <0>        -0.6675
     17 C13         3.8314   -4.5378    1.1992 C.2       1 <0>         0.0941
     18 C14         2.5165   -4.0886    1.1665 C.2       1 <0>        -0.2204
     19 C15         1.8382   -4.1107    2.4492 C.2       1 <0>        -0.0854
     20 C16         2.5687   -4.5058    3.5084 C.2       1 <0>        -0.1956
     21 S1          4.1544   -4.8614    2.8004 S.3       1 <0>         0.1912
     22 C17         2.1405   -4.6249    4.9484 C.3       1 <0>         0.1641
     23 O1          1.6299   -5.9381    5.1865 O.3       1 <0>        -0.5666
     24 H1          0.9395    1.8113   -0.5807 H         1 <0>         0.0253
     25 H2         -0.7212    1.6847   -1.2084 H         1 <0>         0.0709
     26 H3         -0.4436    1.9089    0.5355 H         1 <0>         0.0707
     27 H4         -0.2467   -0.3553   -2.2540 H         1 <0>         0.0875
     28 H5          1.4271   -0.4432   -1.6533 H         1 <0>         0.0376
     29 H6         -0.8063   -2.4623   -1.1417 H         1 <0>         0.0713
     30 H7          0.6556   -2.7127   -2.1321 H         1 <0>         0.1047
     31 H8         -0.2724   -2.1131    1.5509 H         1 <0>         0.0773
     32 H9          1.4647   -2.1834    1.9486 H         1 <0>         0.0976
     33 H10         1.8885   -0.1414    0.6736 H         1 <0>         0.0377
     34 H11         0.5606    0.1728    1.8173 H         1 <0>         0.0886
     35 H12         1.5267   -5.9420   -3.0033 H         1 <0>         0.1272
     36 H13         2.8583   -7.8974   -3.6513 H         1 <0>         0.1261
     37 H14         5.0449   -8.3146   -2.6060 H         1 <0>         0.1266
     38 H15         5.8924   -6.7804   -0.8713 H         1 <0>         0.1236
     39 H16         5.5203   -4.2292    0.0463 H         1 <0>         0.4183
     40 H17         0.8015   -3.8247    2.5488 H         1 <0>         0.1460
     41 H18         2.9969   -4.4447    5.5982 H         1 <0>         0.0639
     42 H19         1.3639   -3.8895    5.1585 H         1 <0>         0.0718
     43 H20         1.3347   -6.0866    6.0953 H         1 <0>         0.3866
@<TRIPOS>BOND
     1    1    2 1
     2    1   24 1
     3    1   25 1
     4    1   26 1
     5    2    7 1
     6    2    3 1
     7    3    4 1
     8    3   27 1
     9    3   28 1
    10    4    5 1
    11    4   29 1
    12    4   30 1
    13    5    6 1
    14    5    8 1
    15    6    7 1
    16    6   31 1
    17    6   32 1
    18    7   33 1
    19    7   34 1
    20    8   18 1
    21    8    9 2
    22    9   10 1
    23   10   15 ar
    24   10   11 ar
    25   11   12 ar
    26   11   35 1
    27   12   13 ar
    28   12   36 1
    29   13   14 ar
    30   13   37 1
    31   14   15 ar
    32   14   38 1
    33   15   16 1
    34   16   17 1
    35   16   39 1
    36   17   21 1
    37   17   18 2
    38   18   19 1
    39   19   20 2
    40   19   40 1
    41   20   21 1
    42   20   22 1
    43   22   23 1
    44   22   41 1
    45   22   42 1
    46   23   43 1
@<TRIPOS>MOLECULE
ZINC53166256
   44    47     0     0     0
SMALL
USER_CHARGES

@<TRIPOS>ATOM
      1 C1         -0.0503    1.4404   -0.3738 C.3       1 <0>        -0.0468
      2 N1         -0.0137   -0.0159   -0.1846 N.4       1 <0>        -0.3851
      3 C2          0.4926   -0.6538   -1.4064 C.3       1 <0>        -0.0215
      4 C3          0.4236   -2.1768   -1.2526 C.3       1 <0>         0.1009
      5 N2          1.1441   -2.5548   -0.0269 N.pl3     1 <0>        -0.6150
      6 C4          0.8123   -1.8460    1.2187 C.3       1 <0>         0.0891
      7 C5          0.8630   -0.3387    0.9482 C.3       1 <0>        -0.0221
      8 C6          2.1011   -3.5439   -0.0451 C.2       1 <0>         0.5271
      9 N3          2.4417   -4.0411   -1.1867 N.2       1 <0>        -0.5934
     10 C7          3.2607   -5.0916   -1.4627 C.ar      1 <0>         0.1438
     11 C8          2.8603   -5.9960   -2.4544 C.ar      1 <0>        -0.1034
     12 C9          3.6662   -7.0636   -2.7954 C.ar      1 <0>        -0.1053
     13 C10         4.8803   -7.2535   -2.1643 C.ar      1 <0>        -0.1121
     14 C11         5.2869   -6.3742   -1.1727 C.ar      1 <0>        -0.1118
     15 C12         4.4814   -5.3110   -0.8134 C.ar      1 <0>         0.1053
     16 N4          4.8874   -4.4699    0.2491 N.pl3     1 <0>        -0.6685
     17 C13         4.0171   -4.3690    1.3226 C.2       1 <0>         0.0970
     18 C14         2.6868   -3.9739    1.2462 C.2       1 <0>        -0.2330
     19 C15         1.9674   -4.0264    2.5054 C.2       1 <0>        -0.1010
     20 C16         2.6776   -4.3936    3.5882 C.2       1 <0>        -0.1858
     21 S1          4.2994   -4.6826    2.9336 S.3       1 <0>         0.2189
     22 C17         2.2067   -4.5331    5.0129 C.3       1 <0>         0.1600
     23 O1          1.7425   -5.8666    5.2328 O.3       1 <0>        -0.5661
     24 H1          0.9563    1.8058   -0.5769 H         1 <0>         0.1210
     25 H2         -0.7009    1.6813   -1.2145 H         1 <0>         0.1255
     26 H3         -0.4336    1.9146    0.5297 H         1 <0>         0.1251
     27 H4         -0.1168   -0.3464   -2.2563 H         1 <0>         0.1423
     28 H5          1.5267   -0.3518   -1.5724 H         1 <0>         0.1313
     29 H6         -0.6176   -2.4904   -1.1769 H         1 <0>         0.0891
     30 H7          0.8911   -2.6535   -2.1141 H         1 <0>         0.1420
     31 H8         -0.1896   -2.1263    1.5440 H         1 <0>         0.0942
     32 H9          1.5369   -2.1040    1.9911 H         1 <0>         0.1380
     33 H10         1.8859   -0.0462    0.7110 H         1 <0>         0.1319
     34 H11         0.5265    0.2010    1.8334 H         1 <0>         0.1434
     35 H12         1.9139   -5.8573   -2.9558 H         1 <0>         0.1292
     36 H13         3.3452   -7.7553   -3.5603 H         1 <0>         0.1323
     37 H14         5.5108   -8.0849   -2.4425 H         1 <0>         0.1334
     38 H15         6.2363   -6.5211   -0.6793 H         1 <0>         0.1295
     39 H16         5.7296   -3.9892    0.2272 H         1 <0>         0.4219
     40 H17         0.9172   -3.7832    2.5704 H         1 <0>         0.1434
     41 H18         3.0327   -4.3194    5.6912 H         1 <0>         0.0672
     42 H19         1.3940   -3.8304    5.1974 H         1 <0>         0.0714
     43 H20         1.4234   -6.0289    6.1311 H         1 <0>         0.3916
     44 H21        -0.9456   -0.3526    0.0063 H         1 <0>         0.4248
@<TRIPOS>BOND
     1    1    2 1
     2    1   24 1
     3    1   25 1
     4    1   26 1
     5    2    7 1
     6    2    3 1
     7    2   44 1
     8    3    4 1
     9    3   27 1
    10    3   28 1
    11    4    5 1
    12    4   29 1
    13    4   30 1
    14    5    6 1
    15    5    8 1
    16    6    7 1
    17    6   31 1
    18    6   32 1
    19    7   33 1
    20    7   34 1
    21    8   18 1
    22    8    9 2
    23    9   10 1
    24   10   15 ar
    25   10   11 ar
    26   11   12 ar
    27   11   35 1
    28   12   13 ar
    29   12   36 1
    30   13   14 ar
    31   13   37 1
    32   14   15 ar
    33   14   38 1
    34   15   16 1
    35   16   17 1
    36   16   39 1
    37   17   21 1
    38   17   18 2
    39   18   19 1
    40   19   20 2
    41   19   40 1
    42   20   21 1
    43   20   22 1
    44   22   23 1
    45   22   41 1
    46   22   42 1
    47   23   43 1
@<TRIPOS>MOLECULE
ZINC21986186
   54    57     0     0     0
SMALL
USER_CHARGES

@<TRIPOS>ATOM
      1 C1          0.0365    1.4099   -0.0220 C.ar      1 <0>        -0.0835
      2 C2          1.2297    2.1079   -0.0263 C.ar      1 <0>        -0.1123
      3 C3          2.4307    1.4236   -0.0349 C.ar      1 <0>        -0.0937
      4 C4          2.4386    0.0413   -0.0389 C.ar      1 <0>        -0.1622
      5 C5          1.2455   -0.6567   -0.0337 C.ar      1 <0>        -0.0977
      6 C6          0.0444    0.0276   -0.0265 C.ar      1 <0>        -0.1132
      7 C7          3.7480   -0.7047   -0.0493 C.3       1 <0>         0.0437
      8 N1          4.1823   -0.9510    1.3322 N.4       1 <0>        -0.3840
      9 C8          3.2226   -1.8433    1.9935 C.3       1 <0>        -0.0126
     10 C9          3.6261   -2.0384    3.4566 C.3       1 <0>        -0.1712
     11 C10         5.0257   -2.6572    3.5162 C.3       1 <0>        -0.0875
     12 C11         6.0047   -1.7549    2.7594 C.3       1 <0>        -0.1806
     13 C12         5.5130   -1.5703    1.3222 C.3       1 <0>        -0.0054
     14 C13         5.4683   -2.7818    4.9755 C.3       1 <0>        -0.0244
     15 C14         4.4264   -3.5867    5.7596 C.3       1 <0>        -0.1224
     16 C15         4.3871   -5.0120    5.1981 C.3       1 <0>        -0.1451
     17 C16         5.7714   -5.6023    5.2508 C.2       1 <0>         0.5169
     18 O1          5.9020   -6.8014    5.3723 O.2       1 <0>        -0.4843
     19 N2          6.8629   -4.8272    5.1655 N.am      1 <0>        -0.6745
     20 C17         6.7938   -3.4934    5.0403 C.2       1 <0>         0.5281
     21 O2          7.8183   -2.8484    4.9782 O.2       1 <0>        -0.4755
     22 C18         5.6041   -1.4079    5.5796 C.ar      1 <0>        -0.0672
     23 C19         5.2278   -0.2933    4.8536 C.ar      1 <0>        -0.1484
     24 C20         5.3525    0.9670    5.4078 C.ar      1 <0>        -0.1164
     25 C21         5.8530    1.1126    6.6881 C.ar      1 <0>        -0.1064
     26 C22         6.2285   -0.0020    7.4144 C.ar      1 <0>        -0.1006
     27 C23         6.0998   -1.2626    6.8618 C.ar      1 <0>        -0.0968
     28 H1         -0.9018    1.9445   -0.0107 H         1 <0>         0.1359
     29 H2          1.2235    3.1879   -0.0232 H         1 <0>         0.1363
     30 H3          3.3629    1.9690   -0.0390 H         1 <0>         0.1313
     31 H4          1.2516   -1.7367   -0.0371 H         1 <0>         0.1310
     32 H5         -0.8878   -0.5178   -0.0228 H         1 <0>         0.1362
     33 H6          3.6198   -1.6564   -0.5650 H         1 <0>         0.1364
     34 H7          4.5010   -0.1098   -0.5663 H         1 <0>         0.1380
     35 H8          2.2265   -1.4031    1.9474 H         1 <0>         0.1371
     36 H9          3.2160   -2.8085    1.4871 H         1 <0>         0.1309
     37 H10         3.6327   -1.0737    3.9640 H         1 <0>         0.1187
     38 H11         2.9134   -2.7026    3.9453 H         1 <0>         0.1227
     39 H12         5.0079   -3.6441    3.0540 H         1 <0>         0.1004
     40 H13         6.0607   -0.7843    3.2524 H         1 <0>         0.1244
     41 H14         6.9921   -2.2165    2.7499 H         1 <0>         0.1180
     42 H15         5.4576   -2.5413    0.8301 H         1 <0>         0.1305
     43 H16         6.2078   -0.9286    0.7805 H         1 <0>         0.1357
     44 H17         4.7037   -3.6160    6.8134 H         1 <0>         0.0916
     45 H18         3.4463   -3.1226    5.6491 H         1 <0>         0.1049
     46 H19         3.7086   -5.6205    5.7959 H         1 <0>         0.1250
     47 H20         4.0409   -4.9870    4.1648 H         1 <0>         0.1114
     48 H21         7.7365   -5.2477    5.1956 H         1 <0>         0.4189
     49 H22         4.8368   -0.4071    3.8534 H         1 <0>         0.1335
     50 H23         5.0592    1.8378    4.8403 H         1 <0>         0.1269
     51 H24         5.9511    2.0973    7.1208 H         1 <0>         0.1299
     52 H25         6.6198    0.1118    8.4145 H         1 <0>         0.1310
     53 H26         6.3896   -2.1337    7.4307 H         1 <0>         0.1207
     54 H27         4.2237   -0.0754    1.8319 H         1 <0>         0.4201
@<TRIPOS>BOND
     1    1    6 ar
     2    1    2 ar
     3    1   28 1
     4    2    3 ar
     5    2   29 1
     6    3    4 ar
     7    3   30 1
     8    4    5 ar
     9    4    7 1
    10    5    6 ar
    11    5   31 1
    12    6   32 1
    13    7    8 1
    14    7   33 1
    15    7   34 1
    16    8   13 1
    17    8    9 1
    18    8   54 1
    19    9   10 1
    20    9   35 1
    21    9   36 1
    22   10   11 1
    23   10   37 1
    24   10   38 1
    25   11   12 1
    26   11   14 1
    27   11   39 1
    28   12   13 1
    29   12   40 1
    30   12   41 1
    31   13   42 1
    32   13   43 1
    33   14   20 1
    34   14   15 1
    35   14   22 1
    36   15   16 1
    37   15   44 1
    38   15   45 1
    39   16   17 1
    40   16   46 1
    41   16   47 1
    42   17   18 2
    43   17   19 am
    44   19   20 am
    45   19   48 1
    46   20   21 2
    47   22   27 ar
    48   22   23 ar
    49   23   24 ar
    50   23   49 1
    51   24   25 ar
    52   24   50 1
    53   25   26 ar
    54   25   51 1
    55   26   27 ar
    56   26   52 1
    57   27   53 1
@<TRIPOS>MOLECULE
ZINC21986188
   54    57     0     0     0
SMALL
USER_CHARGES

@<TRIPOS>ATOM
      1 C1         -0.1779    1.5294    0.3297 C.ar      1 <0>        -0.0832
      2 C2          1.0347    2.1846    0.2246 C.ar      1 <0>        -0.1126
      3 C3          2.2076    1.4582    0.1374 C.ar      1 <0>        -0.0937
      4 C4          2.1678    0.0766    0.1558 C.ar      1 <0>        -0.1631
      5 C5          0.9553   -0.5787    0.2618 C.ar      1 <0>        -0.0975
      6 C6         -0.2177    0.1477    0.3475 C.ar      1 <0>        -0.1131
      7 C7          3.4464   -0.7154    0.0598 C.3       1 <0>         0.0444
      8 N1          3.9748   -0.9576    1.4089 N.4       1 <0>        -0.3844
      9 C8          3.0377   -1.8061    2.1547 C.3       1 <0>        -0.0110
     10 C9          3.5435   -1.9949    3.5865 C.3       1 <0>        -0.1764
     11 C10         4.9215   -2.6619    3.5515 C.3       1 <0>        -0.0883
     12 C11         5.8710   -1.8055    2.7088 C.3       1 <0>        -0.1753
     13 C12         5.2790   -1.6237    1.3096 C.3       1 <0>        -0.0066
     14 C13         5.4683   -2.7818    4.9755 C.3       1 <0>        -0.0246
     15 C14         6.8362   -3.4716    4.9424 C.3       1 <0>        -0.1217
     16 C15         6.6482   -4.9039    4.4311 C.3       1 <0>        -0.1452
     17 C16         5.6369   -5.6088    5.2960 C.2       1 <0>         0.5168
     18 O1          5.7105   -6.8105    5.4375 O.2       1 <0>        -0.4843
     19 N2          4.6565   -4.9326    5.9133 N.am      1 <0>        -0.6746
     20 C17         4.5211   -3.6020    5.8108 C.2       1 <0>         0.5282
     21 O2          3.6187   -3.0491    6.4021 O.2       1 <0>        -0.4758
     22 C18         5.6101   -1.4077    5.5778 C.ar      1 <0>        -0.0668
     23 C19         5.2382   -0.2925    4.8505 C.ar      1 <0>        -0.1478
     24 C20         5.3684    0.9680    5.4030 C.ar      1 <0>        -0.1161
     25 C21         5.8700    1.1132    6.6829 C.ar      1 <0>        -0.1062
     26 C22         6.2410   -0.0021    7.4105 C.ar      1 <0>        -0.1007
     27 C23         6.1068   -1.2628    6.8597 C.ar      1 <0>        -0.0991
     28 H1         -1.0939    2.0969    0.4023 H         1 <0>         0.1361
     29 H2          1.0657    3.2641    0.2103 H         1 <0>         0.1364
     30 H3          3.1549    1.9701    0.0546 H         1 <0>         0.1314
     31 H4          0.9242   -1.6581    0.2758 H         1 <0>         0.1306
     32 H5         -1.1651   -0.3642    0.4299 H         1 <0>         0.1362
     33 H6          3.2472   -1.6690   -0.4291 H         1 <0>         0.1363
     34 H7          4.1782   -0.1548   -0.5218 H         1 <0>         0.1385
     35 H8          2.0566   -1.3316    2.1760 H         1 <0>         0.1358
     36 H9          2.9600   -2.7774    1.6663 H         1 <0>         0.1297
     37 H10         3.6213   -1.0241    4.0761 H         1 <0>         0.1215
     38 H11         2.8472   -2.6267    4.1382 H         1 <0>         0.1158
     39 H12         4.8352   -3.6540    3.1083 H         1 <0>         0.1014
     40 H13         5.9972   -0.8307    3.1801 H         1 <0>         0.1220
     41 H14         6.8385   -2.3018    2.6331 H         1 <0>         0.1230
     42 H15         5.1536   -2.5989    0.8391 H         1 <0>         0.1318
     43 H16         5.9527   -1.0145    0.7069 H         1 <0>         0.1370
     44 H17         7.5038   -2.9287    4.2733 H         1 <0>         0.1047
     45 H18         7.2592   -3.4941    5.9468 H         1 <0>         0.0916
     46 H19         6.2925   -4.8792    3.4011 H         1 <0>         0.1118
     47 H20         7.5992   -5.4346    4.4764 H         1 <0>         0.1250
     48 H21         4.0205   -5.4253    6.4552 H         1 <0>         0.4187
     49 H22         4.8464   -0.4059    3.8505 H         1 <0>         0.1338
     50 H23         5.0785    1.8393    4.8345 H         1 <0>         0.1268
     51 H24         5.9723    2.0980    7.1143 H         1 <0>         0.1299
     52 H25         6.6332    0.1114    8.4104 H         1 <0>         0.1311
     53 H26         6.3932   -2.1344    7.4295 H         1 <0>         0.1217
     54 H27         4.0837   -0.0771    1.8894 H         1 <0>         0.4202
@<TRIPOS>BOND
     1    1    6 ar
     2    1    2 ar
     3    1   28 1
     4    2    3 ar
     5    2   29 1
     6    3    4 ar
     7    3   30 1
     8    4    5 ar
     9    4    7 1
    10    5    6 ar
    11    5   31 1
    12    6   32 1
    13    7    8 1
    14    7   33 1
    15    7   34 1
    16    8   13 1
    17    8    9 1
    18    8   54 1
    19    9   10 1
    20    9   35 1
    21    9   36 1
    22   10   11 1
    23   10   37 1
    24   10   38 1
    25   11   12 1
    26   11   14 1
    27   11   39 1
    28   12   13 1
    29   12   40 1
    30   12   41 1
    31   13   42 1
    32   13   43 1
    33   14   20 1
    34   14   15 1
    35   14   22 1
    36   15   16 1
    37   15   44 1
    38   15   45 1
    39   16   17 1
    40   16   46 1
    41   16   47 1
    42   17   18 2
    43   17   19 am
    44   19   20 am
    45   19   48 1
    46   20   21 2
    47   22   27 ar
    48   22   23 ar
    49   23   24 ar
    50   23   49 1
    51   24   25 ar
    52   24   50 1
    53   25   26 ar
    54   25   51 1
    55   26   27 ar
    56   26   52 1
    57   27   53 1
@<TRIPOS>MOLECULE
ZINC05160057
   40    41     0     0     0
SMALL
USER_CHARGES
1-[2-(3-pyrrolidin-1-ylprop-1-ynyl)-1-piperidyl]ethanone
@<TRIPOS>ATOM
      1 C1          7.8536    1.1026    2.1619 C.3       1 <0>        -0.1818
      2 C2          7.1213    2.1564    1.3718 C.2       1 <0>         0.5181
      3 O1          7.3539    2.2993    0.1901 O.2       1 <0>        -0.5360
      4 N1          6.2079    2.9401    1.9784 N.am      1 <0>        -0.6121
      5 C3          5.8368    2.7092    3.3812 C.3       1 <0>         0.0993
      6 C4          6.0130    4.0169    4.1594 C.3       1 <0>        -0.1407
      7 C5          5.2137    5.1265    3.4723 C.3       1 <0>        -0.1226
      8 C6          5.7438    5.3346    2.0518 C.3       1 <0>        -0.1261
      9 C7          5.5646    4.0418    1.2497 C.3       1 <0>         0.2329
     10 H1          6.0271    4.1532    0.2689 H         1 <0>         0.1337
     11 C8          4.1297    3.7558    1.0889 C.1       1 <0>        -0.0464
     12 C9          2.9852    3.5276    0.9607 C.1       1 <0>        -0.2749
     13 C10         1.5503    3.2415    0.7999 C.3       1 <0>         0.1452
     14 C11        -0.0278    1.5530    0.0507 C.3       1 <0>        -0.0091
     15 C12        -0.0119    0.0132    0.0482 C.3       1 <0>        -0.1466
     16 C13         1.4845   -0.3751    0.0574 C.3       1 <0>        -0.1468
     17 C14         2.1679    0.8926    0.6287 C.3       1 <0>        -0.0049
     18 H2          7.4475    1.0584    3.1725 H         1 <0>         0.0859
     19 H3          7.7296    0.1339    1.6778 H         1 <0>         0.0993
     20 H4          8.9135    1.3532    2.2069 H         1 <0>         0.1040
     21 H5          6.4811    1.9405    3.8078 H         1 <0>         0.1023
     22 H6          4.7965    2.3887    3.4360 H         1 <0>         0.0663
     23 H7          7.0684    4.2885    4.1804 H         1 <0>         0.0765
     24 H8          5.6507    3.8857    5.1791 H         1 <0>         0.0833
     25 H9          5.3175    6.0524    4.0379 H         1 <0>         0.0779
     26 H10         4.1621    4.8430    3.4295 H         1 <0>         0.0614
     27 H11         6.8018    5.5937    2.0926 H         1 <0>         0.0893
     28 H12         5.1897    6.1408    1.5711 H         1 <0>         0.0848
     29 H13         1.0726    4.0657    0.2702 H         1 <0>         0.1504
     30 H14         1.0907    3.1255    1.7814 H         1 <0>         0.1444
     31 H15        -0.5472    1.9204   -0.8343 H         1 <0>         0.1365
     32 H16        -0.5207    1.9178    0.9519 H         1 <0>         0.1335
     33 H17        -0.5080   -0.3717    0.9391 H         1 <0>         0.1040
     34 H18        -0.4979   -0.3687   -0.8496 H         1 <0>         0.1061
     35 H19         1.6566   -1.2325    0.7080 H         1 <0>         0.1158
     36 H20         1.8359   -0.5802   -0.9538 H         1 <0>         0.0982
     37 H21         2.0949    0.9121    1.7160 H         1 <0>         0.1315
     38 H22         3.2101    0.9431    0.3134 H         1 <0>         0.1315
     39 N2          1.3778    1.9738    0.0285 N.4       1 <0>        -0.3970
     40 H23         1.6796    2.1261   -0.9410 H         1 <0>         0.4329
@<TRIPOS>BOND
     1    1    2 1
     2    1   18 1
     3    1   19 1
     4    1   20 1
     5    2    3 2
     6    2    4 am
     7    4    9 1
     8    4    5 1
     9    5    6 1
    10    5   21 1
    11    5   22 1
    12    6    7 1
    13    6   23 1
    14    6   24 1
    15    7    8 1
    16    7   25 1
    17    7   26 1
    18    8    9 1
    19    8   27 1
    20    8   28 1
    21    9   10 1
    22    9   11 1
    23   11   12 3
    24   12   13 1
    25   13   29 1
    26   13   30 1
    27   13   39 1
    28   14   15 1
    29   14   31 1
    30   14   32 1
    31   14   39 1
    32   15   16 1
    33   15   33 1
    34   15   34 1
    35   16   17 1
    36   16   35 1
    37   16   36 1
    38   17   37 1
    39   17   38 1
    40   17   39 1
    41   39   40 1
@<TRIPOS>MOLECULE
ZINC05160067
   40    41     0     0     0
SMALL
USER_CHARGES
1-[2-(3-pyrrolidin-1-ylprop-1-ynyl)-1-piperidyl]ethanone
@<TRIPOS>ATOM
      1 C1         -4.6353    2.4818   -1.2400 C.3       1 <0>        -0.1852
      2 C2         -4.0129    2.0178    0.0517 C.2       1 <0>         0.5251
      3 O1         -4.5822    2.2149    1.1043 O.2       1 <0>        -0.5553
      4 N1         -2.8236    1.3839    0.0372 N.am      1 <0>        -0.6089
      5 C3         -2.1802    1.0285   -1.2350 C.3       1 <0>         0.0978
      6 C4         -0.7561    1.5929   -1.2419 C.3       1 <0>        -0.1410
      7 C5         -0.0098    1.0987   -0.0005 C.3       1 <0>        -0.1231
      8 C6         -0.7222    1.5998    1.2579 C.3       1 <0>        -0.1268
      9 C7         -2.1457    1.0355    1.2932 C.3       1 <0>         0.2445
     10 H1         -2.1065   -0.0487    1.3988 H         1 <0>         0.1072
     11 C8         -2.8815    1.6156    2.4285 C.1       1 <0>        -0.0380
     12 C9         -3.4684    2.0782    3.3340 C.1       1 <0>        -0.2555
     13 C10        -4.2042    2.6583    4.4692 C.3       1 <0>         0.1520
     14 C11        -2.0858    2.6746    5.6694 C.3       1 <0>         0.0005
     15 C12        -1.6801    2.7397    7.1632 C.3       1 <0>        -0.1474
     16 C13        -2.9315    3.3501    7.8351 C.3       1 <0>        -0.1456
     17 C14        -4.0902    3.0644    6.8619 C.3       1 <0>        -0.0105
     18 H2         -4.0304    2.1377   -2.0789 H         1 <0>         0.0882
     19 H3         -5.6419    2.0726   -1.3259 H         1 <0>         0.0988
     20 H4         -4.6837    3.5707   -1.2495 H         1 <0>         0.0999
     21 H5         -2.7465    1.4556   -2.0627 H         1 <0>         0.1025
     22 H6         -2.1440   -0.0560   -1.3382 H         1 <0>         0.0809
     23 H7         -0.7964    2.6821   -1.2326 H         1 <0>         0.0716
     24 H8         -0.2353    1.2553   -2.1379 H         1 <0>         0.0875
     25 H9          0.0086    0.0089    0.0022 H         1 <0>         0.0724
     26 H10         1.0115    1.4791   -0.0154 H         1 <0>         0.0796
     27 H11        -0.1773    1.2671    2.1413 H         1 <0>         0.0856
     28 H12        -0.7628    2.6890    1.2436 H         1 <0>         0.0747
     29 H13        -4.2379    3.7427    4.3644 H         1 <0>         0.1381
     30 H14        -5.2199    2.2629    4.4840 H         1 <0>         0.1433
     31 H15        -1.5130    1.9076    5.1482 H         1 <0>         0.1332
     32 H16        -1.9538    3.6457    5.1922 H         1 <0>         0.1288
     33 H17        -0.8142    3.3876    7.2999 H         1 <0>         0.1139
     34 H18        -1.4814    1.7413    7.5528 H         1 <0>         0.0965
     35 H19        -2.8041    4.4246    7.9666 H         1 <0>         0.1029
     36 H20        -3.1172    2.8700    8.7959 H         1 <0>         0.1042
     37 H21        -4.5183    4.0025    6.5086 H         1 <0>         0.1316
     38 H22        -4.8550    2.4684    7.3599 H         1 <0>         0.1336
     39 N2         -3.5103    2.3145    5.7468 N.4       1 <0>        -0.3937
     40 H23        -3.6045    1.3069    5.9204 H         1 <0>         0.4358
@<TRIPOS>BOND
     1    1    2 1
     2    1   18 1
     3    1   19 1
     4    1   20 1
     5    2    3 2
     6    2    4 am
     7    4    9 1
     8    4    5 1
     9    5    6 1
    10    5   21 1
    11    5   22 1
    12    6    7 1
    13    6   23 1
    14    6   24 1
    15    7    8 1
    16    7   25 1
    17    7   26 1
    18    8    9 1
    19    8   27 1
    20    8   28 1
    21    9   10 1
    22    9   11 1
    23   11   12 3
    24   12   13 1
    25   13   29 1
    26   13   30 1
    27   13   39 1
    28   14   15 1
    29   14   31 1
    30   14   32 1
    31   14   39 1
    32   15   16 1
    33   15   33 1
    34   15   34 1
    35   16   17 1
    36   16   35 1
    37   16   36 1
    38   17   37 1
    39   17   38 1
    40   17   39 1
    41   39   40 1
@<TRIPOS>MOLECULE
ZINC35857039
   45    47     0     0     0
SMALL
USER_CHARGES

@<TRIPOS>ATOM
      1 C1         -1.1868    0.8283    0.5807 C.3       1 <0>        -0.1547
      2 C2         -0.0787    0.0000   -0.0728 C.3       1 <0>         0.0097
      3 H1         -0.5204   -0.8430   -0.6041 H         1 <0>         0.0990
      4 C3          0.6856    0.8615   -1.0448 C.ar      1 <0>         0.1337
      5 C4          0.8303    2.2128   -0.7925 C.ar      1 <0>        -0.1699
      6 C5          1.5352    2.9965   -1.6929 C.ar      1 <0>        -0.0743
      7 C6          2.0707    2.3889   -2.8186 C.ar      1 <0>        -0.1690
      8 C7          1.8852    1.0322   -3.0041 C.ar      1 <0>         0.1034
      9 N1          1.2132    0.3165   -2.1233 N.ar      1 <0>        -0.4835
     10 C8          0.8592   -0.5117    0.9900 C.2       1 <0>        -0.0505
     11 C9          2.2563   -0.1033    0.9962 C.ar      1 <0>        -0.0919
     12 C10         2.9309    0.7599    0.1005 C.ar      1 <0>        -0.1003
     13 C11         4.2534    1.0312    0.2603 C.ar      1 <0>        -0.1212
     14 C12         4.9878    0.4768    1.3003 C.ar      1 <0>        -0.0781
     15 C13         4.3661   -0.3701    2.1959 C.ar      1 <0>        -0.0838
     16 C14         3.0255   -0.6534    2.0443 C.ar      1 <0>        -0.1009
     17 S1          1.8628   -1.6562    2.9331 S.3       1 <0>         0.0471
     18 C15         0.4140   -1.3434    1.9427 C.2       1 <0>        -0.1698
     19 C16        -0.9794   -1.8858    2.1307 C.3       1 <0>        -0.0665
     20 C17        -1.1652   -3.1281    1.2572 C.3       1 <0>        -0.0120
     21 N2         -2.5235   -3.6568    1.4405 N.4       1 <0>        -0.3867
     22 C18        -2.7422   -4.7762    0.5147 C.3       1 <0>        -0.0477
     23 C19        -2.6837   -4.1265    2.8231 C.3       1 <0>        -0.0549
     24 H2         -0.7413    1.6103    1.1956 H         1 <0>         0.0712
     25 H3         -1.8052    1.2827   -0.1933 H         1 <0>         0.0736
     26 H4         -1.8032    0.1818    1.2053 H         1 <0>         0.0668
     27 H5          0.3993    2.6527    0.0948 H         1 <0>         0.1396
     28 H6          1.6640    4.0550   -1.5220 H         1 <0>         0.1422
     29 H7          2.6254    2.9688   -3.5414 H         1 <0>         0.1431
     30 H8          2.2990    0.5515   -3.8782 H         1 <0>         0.1623
     31 H9          2.3892    1.2080   -0.7194 H         1 <0>         0.1531
     32 H10         4.7443    1.6929   -0.4380 H         1 <0>         0.1282
     33 H11         6.0377    0.7062    1.4075 H         1 <0>         0.1399
     34 H12         4.9260   -0.8082    3.0089 H         1 <0>         0.1360
     35 H13        -1.1275   -2.1520    3.1773 H         1 <0>         0.1044
     36 H14        -1.7067   -1.1268    1.8425 H         1 <0>         0.1149
     37 H15        -1.0171   -2.8618    0.2107 H         1 <0>         0.1354
     38 H16        -0.4379   -3.8871    1.5455 H         1 <0>         0.1359
     39 H17        -2.0156   -5.5629    0.7177 H         1 <0>         0.1231
     40 H18        -3.7500   -5.1685    0.6507 H         1 <0>         0.1263
     41 H19        -2.6233   -4.4278   -0.5113 H         1 <0>         0.1244
     42 H20        -2.5214   -3.2959    3.5101 H         1 <0>         0.1245
     43 H21        -3.6915   -4.5188    2.9591 H         1 <0>         0.1267
     44 H22        -1.9571   -4.9132    3.0261 H         1 <0>         0.1242
     45 H23        -3.1961   -2.9286    1.2525 H         1 <0>         0.4269
@<TRIPOS>BOND
     1    1    2 1
     2    1   24 1
     3    1   25 1
     4    1   26 1
     5    2    3 1
     6    2    4 1
     7    2   10 1
     8    4    9 ar
     9    4    5 ar
    10    5    6 ar
    11    5   27 1
    12    6    7 ar
    13    6   28 1
    14    7    8 ar
    15    7   29 1
    16    8    9 ar
    17    8   30 1
    18   10   18 2
    19   10   11 1
    20   11   16 ar
    21   11   12 ar
    22   12   13 ar
    23   12   31 1
    24   13   14 ar
    25   13   32 1
    26   14   15 ar
    27   14   33 1
    28   15   16 ar
    29   15   34 1
    30   16   17 1
    31   17   18 1
    32   18   19 1
    33   19   20 1
    34   19   35 1
    35   19   36 1
    36   20   21 1
    37   20   37 1
    38   20   38 1
    39   21   22 1
    40   21   23 1
    41   21   45 1
    42   22   39 1
    43   22   40 1
    44   22   41 1
    45   23   42 1
    46   23   43 1
    47   23   44 1
@<TRIPOS>MOLECULE
ZINC00968273
   54    56     0     0     0
SMALL
USER_CHARGES

@<TRIPOS>ATOM
      1 C1          0.0762    1.3452   -0.3150 C.ar      1 <0>        -0.1098
      2 C2          1.2713    2.0393   -0.3470 C.ar      1 <0>        -0.1122
      3 C3          2.4688    1.3595   -0.2265 C.ar      1 <0>        -0.1247
      4 C4          2.4714   -0.0144   -0.0737 C.ar      1 <0>        -0.1244
      5 C5          1.2763   -0.7084   -0.0408 C.ar      1 <0>        -0.1067
      6 C6          0.0788   -0.0287   -0.1627 C.ar      1 <0>        -0.1104
      7 C7          3.7770   -0.7557    0.0566 C.3       1 <0>         0.1934
      8 C8          4.1663   -0.8472    1.5335 C.3       1 <0>        -0.1754
      9 C9          4.2922    0.5619    2.1160 C.3       1 <0>        -0.0183
     10 N1          4.8004    0.4794    3.4918 N.4       1 <0>        -0.3797
     11 C10         3.8171   -0.2117    4.3344 C.3       1 <0>        -0.0117
     12 C11         4.3758   -0.3722    5.7499 C.3       1 <0>        -0.1455
     13 C12         4.6703    1.0114    6.3365 C.3       1 <0>        -0.1395
     14 C13         5.6396    1.7518    5.4105 C.3       1 <0>        -0.1459
     15 C14         5.0341    1.8336    4.0076 C.3       1 <0>        -0.0078
     16 C15         3.6229   -2.1650   -0.5185 C.3       1 <0>        -0.0695
     17 C16         4.9235   -2.9444   -0.3139 C.3       1 <0>        -0.1134
     18 C17         4.7694   -4.3538   -0.8890 C.3       1 <0>        -0.1214
     19 C18         4.4590   -4.2632   -2.3844 C.3       1 <0>        -0.1230
     20 C19         3.1584   -3.4839   -2.5891 C.3       1 <0>        -0.1222
     21 C20         3.3125   -2.0745   -2.0139 C.3       1 <0>        -0.1104
     22 O1          4.7953   -0.0567   -0.6620 O.3       1 <0>        -0.5340
     23 H1         -0.8596    1.8768   -0.4046 H         1 <0>         0.1279
     24 H2          1.2693    3.1127   -0.4664 H         1 <0>         0.1271
     25 H3          3.4025    1.9017   -0.2522 H         1 <0>         0.1173
     26 H4          1.2783   -1.7818    0.0782 H         1 <0>         0.1281
     27 H5         -0.8549   -0.5710   -0.1374 H         1 <0>         0.1286
     28 H6          3.3994   -1.3982    2.0779 H         1 <0>         0.1002
     29 H7          5.1207   -1.3654    1.6262 H         1 <0>         0.1036
     30 H8          4.9830    1.1460    1.5079 H         1 <0>         0.1276
     31 H9          3.3141    1.0430    2.1182 H         1 <0>         0.1348
     32 H10         2.8971    0.3717    4.3714 H         1 <0>         0.1281
     33 H11         3.6061   -1.1949    3.9139 H         1 <0>         0.1302
     34 H12         3.6435   -0.8840    6.3743 H         1 <0>         0.1121
     35 H13         5.2958   -0.9557    5.7140 H         1 <0>         0.0878
     36 H14         3.7423    1.5769    6.4201 H         1 <0>         0.0817
     37 H15         5.1212    0.9007    7.3227 H         1 <0>         0.0947
     38 H16         5.8107    2.7583    5.7923 H         1 <0>         0.1126
     39 H17         6.5858    1.2124    5.3676 H         1 <0>         0.0879
     40 H18         5.7215    2.3604    3.3457 H         1 <0>         0.1299
     41 H19         4.0881    2.3734    4.0515 H         1 <0>         0.1281
     42 H20         2.8077   -2.6784   -0.0086 H         1 <0>         0.0861
     43 H21         5.7387   -2.4310   -0.8237 H         1 <0>         0.0745
     44 H22         5.1447   -3.0089    0.7515 H         1 <0>         0.0559
     45 H23         5.6960   -4.9090   -0.7432 H         1 <0>         0.0650
     46 H24         3.9542   -4.8671   -0.3791 H         1 <0>         0.0613
     47 H25         5.2742   -3.7499   -2.8943 H         1 <0>         0.0637
     48 H26         4.3492   -5.2673   -2.7942 H         1 <0>         0.0643
     49 H27         2.9372   -3.4194   -3.6544 H         1 <0>         0.0658
     50 H28         2.3431   -3.9973   -2.0792 H         1 <0>         0.0605
     51 H29         2.3859   -1.5193   -2.1597 H         1 <0>         0.0639
     52 H30         4.1277   -1.5612   -2.5238 H         1 <0>         0.0738
     53 H31         4.9474    0.8461   -0.3505 H         1 <0>         0.3677
     54 H32         5.6677   -0.0362    3.4986 H         1 <0>         0.4220
@<TRIPOS>BOND
     1    1    6 ar
     2    1    2 ar
     3    1   23 1
     4    2    3 ar
     5    2   24 1
     6    3    4 ar
     7    3   25 1
     8    4    5 ar
     9    4    7 1
    10    5    6 ar
    11    5   26 1
    12    6   27 1
    13    7    8 1
    14    7   16 1
    15    7   22 1
    16    8    9 1
    17    8   28 1
    18    8   29 1
    19    9   10 1
    20    9   30 1
    21    9   31 1
    22   10   15 1
    23   10   11 1
    24   10   54 1
    25   11   12 1
    26   11   32 1
    27   11   33 1
    28   12   13 1
    29   12   34 1
    30   12   35 1
    31   13   14 1
    32   13   36 1
    33   13   37 1
    34   14   15 1
    35   14   38 1
    36   14   39 1
    37   15   40 1
    38   15   41 1
    39   16   21 1
    40   16   17 1
    41   16   42 1
    42   17   18 1
    43   17   43 1
    44   17   44 1
    45   18   19 1
    46   18   45 1
    47   18   46 1
    48   19   20 1
    49   19   47 1
    50   19   48 1
    51   20   21 1
    52   20   49 1
    53   20   50 1
    54   21   51 1
    55   21   52 1
    56   22   53 1
@<TRIPOS>MOLECULE
ZINC00968274
   54    56     0     0     0
SMALL
USER_CHARGES

@<TRIPOS>ATOM
      1 C1         -0.1352    1.1091   -0.4300 C.ar      1 <0>        -0.1083
      2 C2          0.7513    1.5676    0.5264 C.ar      1 <0>        -0.1143
      3 C3          1.9959    0.9797    0.6535 C.ar      1 <0>        -0.0998
      4 C4          2.3539   -0.0669   -0.1755 C.ar      1 <0>        -0.1232
      5 C5          1.4671   -0.5260   -1.1313 C.ar      1 <0>        -0.1161
      6 C6          0.2229    0.0628   -1.2594 C.ar      1 <0>        -0.1180
      7 C7          3.7112   -0.7071   -0.0376 C.3       1 <0>         0.1941
      8 C8          4.2610   -1.0411   -1.4258 C.3       1 <0>        -0.1780
      9 C9          5.5803   -1.8024   -1.2822 C.3       1 <0>        -0.0120
     10 N1          6.1082   -2.1230   -2.6150 N.4       1 <0>        -0.3820
     11 C10         5.1901   -3.0450   -3.2945 C.3       1 <0>        -0.0137
     12 C11         5.6935   -3.3187   -4.7133 C.3       1 <0>        -0.1453
     13 C12         7.0889   -3.9455   -4.6421 C.3       1 <0>        -0.1393
     14 C13         8.0196   -3.0086   -3.8667 C.3       1 <0>        -0.1461
     15 C14         7.4301   -2.7465   -2.4792 C.3       1 <0>        -0.0068
     16 C15         3.5881   -1.9915    0.7847 C.3       1 <0>        -0.0706
     17 C16         2.6851   -2.9836    0.0490 C.3       1 <0>        -0.1231
     18 C17         2.5620   -4.2679    0.8713 C.3       1 <0>        -0.1182
     19 C18         1.9553   -3.9425    2.2376 C.3       1 <0>        -0.1243
     20 C19         2.8582   -2.9504    2.9734 C.3       1 <0>        -0.1220
     21 C20         2.9813   -1.6660    2.1511 C.3       1 <0>        -0.1116
     22 O1          4.5997    0.1973    0.6217 O.3       1 <0>        -0.5458
     23 H1         -1.1093    1.5654   -0.5263 H         1 <0>         0.1267
     24 H2          0.4716    2.3853    1.1741 H         1 <0>         0.1275
     25 H3          2.6888    1.3384    1.4003 H         1 <0>         0.1310
     26 H4          1.7469   -1.3435   -1.7792 H         1 <0>         0.1182
     27 H5         -0.4698   -0.2957   -2.0064 H         1 <0>         0.1254
     28 H6          3.5413   -1.6593   -1.9625 H         1 <0>         0.1009
     29 H7          4.4323   -0.1185   -1.9803 H         1 <0>         0.0931
     30 H8          6.3000   -1.1842   -0.7455 H         1 <0>         0.1386
     31 H9          5.4090   -2.7250   -0.7277 H         1 <0>         0.1331
     32 H10         5.1407   -3.9821   -2.7399 H         1 <0>         0.1289
     33 H11         4.1968   -2.5988   -3.3416 H         1 <0>         0.1284
     34 H12         5.0115   -4.0048   -5.2155 H         1 <0>         0.1118
     35 H13         5.7431   -2.3822   -5.2689 H         1 <0>         0.0873
     36 H14         7.0311   -4.9066   -4.1312 H         1 <0>         0.0818
     37 H15         7.4754   -4.0903   -5.6509 H         1 <0>         0.0943
     38 H16         9.0003   -3.4732   -3.7636 H         1 <0>         0.1124
     39 H17         8.1175   -2.0657   -4.4046 H         1 <0>         0.0873
     40 H18         8.0904   -2.0799   -1.9244 H         1 <0>         0.1304
     41 H19         7.3329   -3.6899   -1.9420 H         1 <0>         0.1280
     42 H20         4.5759   -2.4315    0.9214 H         1 <0>         0.0782
     43 H21         1.6973   -2.5435   -0.0877 H         1 <0>         0.0801
     44 H22         3.1174   -3.2154   -0.9244 H         1 <0>         0.0528
     45 H23         1.9188   -4.9747    0.3471 H         1 <0>         0.0666
     46 H24         3.5499   -4.7079    1.0079 H         1 <0>         0.0602
     47 H25         0.9674   -3.5024    2.1010 H         1 <0>         0.0638
     48 H26         1.8676   -4.8575    2.8234 H         1 <0>         0.0656
     49 H27         2.4259   -2.7186    3.9468 H         1 <0>         0.0668
     50 H28         3.8460   -3.3904    3.1100 H         1 <0>         0.0608
     51 H29         3.6246   -0.9593    2.6753 H         1 <0>         0.0722
     52 H30         1.9935   -1.2260    2.0144 H         1 <0>         0.0681
     53 H31         4.7254    1.0351    0.1555 H         1 <0>         0.3829
     54 H32         6.1913   -1.2751   -3.1557 H         1 <0>         0.4210
@<TRIPOS>BOND
     1    1    6 ar
     2    1    2 ar
     3    1   23 1
     4    2    3 ar
     5    2   24 1
     6    3    4 ar
     7    3   25 1
     8    4    5 ar
     9    4    7 1
    10    5    6 ar
    11    5   26 1
    12    6   27 1
    13    7    8 1
    14    7   16 1
    15    7   22 1
    16    8    9 1
    17    8   28 1
    18    8   29 1
    19    9   10 1
    20    9   30 1
    21    9   31 1
    22   10   15 1
    23   10   11 1
    24   10   54 1
    25   11   12 1
    26   11   32 1
    27   11   33 1
    28   12   13 1
    29   12   34 1
    30   12   35 1
    31   13   14 1
    32   13   36 1
    33   13   37 1
    34   14   15 1
    35   14   38 1
    36   14   39 1
    37   15   40 1
    38   15   41 1
    39   16   21 1
    40   16   17 1
    41   16   42 1
    42   17   18 1
    43   17   43 1
    44   17   44 1
    45   18   19 1
    46   18   45 1
    47   18   46 1
    48   19   20 1
    49   19   47 1
    50   19   48 1
    51   20   21 1
    52   20   49 1
    53   20   50 1
    54   21   51 1
    55   21   52 1
    56   22   53 1
@<TRIPOS>MOLECULE
ZINC22055590
   40    43     0     0     0
SMALL
USER_CHARGES
2-methyl-4-piperazin-1-yl-10H-thieno[2,3-b][1,5]benzodiazepine
@<TRIPOS>ATOM
      1 C1          2.9000    6.4909    5.1733 C.3       1 <0>        -0.0794
      2 C2          2.5815    5.9866    3.7894 C.2       1 <0>        -0.1487
      3 C3          1.6183    6.4056    2.9486 C.2       1 <0>        -0.1359
      4 C4          1.5178    5.7559    1.6564 C.2       1 <0>        -0.2219
      5 C5          2.4395    4.7328    1.4394 C.2       1 <0>         0.1326
      6 S1          3.3891    4.6898    2.8707 S.3       1 <0>         0.1175
      7 N1          2.5084    3.9288    0.3158 N.pl3     1 <0>        -0.6794
      8 C6          1.3322    3.2144   -0.0160 C.ar      1 <0>         0.1140
      9 C7          1.3818    1.8365   -0.0931 C.ar      1 <0>        -0.1132
     10 C8          0.2296    1.1109   -0.3542 C.ar      1 <0>        -0.1125
     11 C9         -0.9694    1.7704   -0.5428 C.ar      1 <0>        -0.1069
     12 C10        -1.0287    3.1477   -0.4744 C.ar      1 <0>        -0.1040
     13 C11         0.1275    3.8975   -0.2233 C.ar      1 <0>         0.1419
     14 N2          0.0194    5.2532   -0.2098 N.2       1 <0>        -0.5947
     15 C12         0.5397    6.1123    0.6013 C.2       1 <0>         0.5251
     16 N3          0.1661    7.4315    0.4793 N.pl3     1 <0>        -0.6143
     17 C13        -0.9003    7.8310   -0.4516 C.3       1 <0>         0.0945
     18 C14        -0.3858    8.9721   -1.3278 C.3       1 <0>        -0.0147
     19 N4          0.1296   10.0500   -0.4732 N.4       1 <0>        -0.5347
     20 C15         1.2772    9.5959    0.3235 C.3       1 <0>        -0.0188
     21 C16         0.8267    8.4796    1.2719 C.3       1 <0>         0.0827
     22 H1          2.2045    7.3011    5.4374 H         1 <0>         0.0840
     23 H2          3.9319    6.8713    5.1964 H         1 <0>         0.0821
     24 H3          2.7962    5.6683    5.8962 H         1 <0>         0.0829
     25 H4          0.9422    7.2004    3.2271 H         1 <0>         0.1391
     26 H5          3.4417    3.8721   -0.2636 H         1 <0>         0.4455
     27 H6          2.3208    1.3226    0.0501 H         1 <0>         0.1291
     28 H7          0.2702    0.0334   -0.4145 H         1 <0>         0.1328
     29 H8         -1.8675    1.2043   -0.7411 H         1 <0>         0.1317
     30 H9         -1.9729    3.6514   -0.6202 H         1 <0>         0.1285
     31 H10        -1.1776    6.9729   -1.0815 H         1 <0>         0.1410
     32 H11        -1.7789    8.1660    0.1193 H         1 <0>         0.0882
     33 H12         0.4208    8.6008   -1.9770 H         1 <0>         0.1293
     34 H13        -1.2082    9.3572   -1.9486 H         1 <0>         0.1436
     35 H14         0.4513   10.8938   -1.1013 H         1 <0>         0.4556
     36 H15         2.0613    9.2147   -0.3472 H         1 <0>         0.1293
     37 H16         1.6735   10.4385    0.9091 H         1 <0>         0.1449
     38 H17         0.1191    8.8797    2.0130 H         1 <0>         0.0936
     39 H18         1.6982    8.0530    1.7901 H         1 <0>         0.1398
     40 H19        -0.6625   10.3846    0.2128 H         1 <0>         0.4497
@<TRIPOS>BOND
     1    1    2 1
     2    1   22 1
     3    1   23 1
     4    1   24 1
     5    2    6 1
     6    2    3 2
     7    3    4 1
     8    3   25 1
     9    4   15 1
    10    4    5 2
    11    5    6 1
    12    5    7 1
    13    7    8 1
    14    7   26 1
    15    8   13 ar
    16    8    9 ar
    17    9   10 ar
    18    9   27 1
    19   10   11 ar
    20   10   28 1
    21   11   12 ar
    22   11   29 1
    23   12   13 ar
    24   12   30 1
    25   13   14 1
    26   14   15 2
    27   15   16 1
    28   16   21 1
    29   16   17 1
    30   17   18 1
    31   17   31 1
    32   17   32 1
    33   18   19 1
    34   18   33 1
    35   18   34 1
    36   19   20 1
    37   19   35 1
    38   19   40 1
    39   20   21 1
    40   20   36 1
    41   20   37 1
    42   21   38 1
    43   21   39 1
@<TRIPOS>MOLECULE
ZINC22055590
   39    42     0     0     0
SMALL
USER_CHARGES
2-methyl-4-piperazin-1-yl-10H-thieno[2,3-b][1,5]benzodiazepine
@<TRIPOS>ATOM
      1 C1          2.9000    6.4909    5.1733 C.3       1 <0>        -0.0731
      2 C2          2.5815    5.9866    3.7894 C.2       1 <0>        -0.1595
      3 C3          1.6183    6.4056    2.9486 C.2       1 <0>        -0.1197
      4 C4          1.5178    5.7559    1.6564 C.2       1 <0>        -0.2090
      5 C5          2.4395    4.7328    1.4394 C.2       1 <0>         0.1289
      6 S1          3.3891    4.6898    2.8707 S.3       1 <0>         0.0909
      7 N1          2.5084    3.9288    0.3158 N.pl3     1 <0>        -0.6777
      8 C6          1.3322    3.2144   -0.0160 C.ar      1 <0>         0.1017
      9 C7          1.3818    1.8365   -0.0931 C.ar      1 <0>        -0.1111
     10 C8          0.2296    1.1109   -0.3542 C.ar      1 <0>        -0.1312
     11 C9         -0.9694    1.7704   -0.5428 C.ar      1 <0>        -0.1060
     12 C10        -1.0287    3.1477   -0.4744 C.ar      1 <0>        -0.1167
     13 C11         0.1275    3.8975   -0.2233 C.ar      1 <0>         0.1681
     14 N2          0.0194    5.2532   -0.2098 N.2       1 <0>        -0.6216
     15 C12         0.5397    6.1123    0.6013 C.2       1 <0>         0.5340
     16 N3          0.1661    7.4315    0.4793 N.pl3     1 <0>        -0.5933
     17 C13        -0.9003    7.8310   -0.4516 C.3       1 <0>         0.1226
     18 C14        -0.3858    8.9721   -1.3278 C.3       1 <0>         0.0334
     19 N4          0.1296   10.0500   -0.4732 N.3       1 <0>        -0.6705
     20 C15         1.2772    9.5959    0.3235 C.3       1 <0>         0.0314
     21 C16         0.8267    8.4796    1.2719 C.3       1 <0>         0.1111
     22 H1          2.2045    7.3011    5.4374 H         1 <0>         0.0832
     23 H2          3.9319    6.8713    5.1964 H         1 <0>         0.0780
     24 H3          2.7962    5.6683    5.8962 H         1 <0>         0.0776
     25 H4          0.9422    7.2004    3.2271 H         1 <0>         0.1418
     26 H5          3.4417    3.8721   -0.2636 H         1 <0>         0.4407
     27 H6          2.3208    1.3226    0.0501 H         1 <0>         0.1233
     28 H7          0.2702    0.0334   -0.4145 H         1 <0>         0.1260
     29 H8         -1.8675    1.2043   -0.7411 H         1 <0>         0.1256
     30 H9         -1.9729    3.6514   -0.6202 H         1 <0>         0.1265
     31 H10        -1.1776    6.9729   -1.0815 H         1 <0>         0.1044
     32 H11        -1.7789    8.1660    0.1193 H         1 <0>         0.0695
     33 H12         0.4208    8.6008   -1.9770 H         1 <0>         0.0349
     34 H13        -1.2082    9.3572   -1.9486 H         1 <0>         0.0894
     35 H14         2.0613    9.2147   -0.3472 H         1 <0>         0.0352
     36 H15         1.6735   10.4385    0.9091 H         1 <0>         0.0904
     37 H16         0.1191    8.8797    2.0130 H         1 <0>         0.0755
     38 H17         1.6982    8.0530    1.7901 H         1 <0>         0.0999
     39 H18         0.4513   10.8938   -1.1013 H         1 <0>         0.3455
@<TRIPOS>BOND
     1    1    2 1
     2    1   22 1
     3    1   23 1
     4    1   24 1
     5    2    6 1
     6    2    3 2
     7    3    4 1
     8    3   25 1
     9    4   15 1
    10    4    5 2
    11    5    6 1
    12    5    7 1
    13    7    8 1
    14    7   26 1
    15    8   13 ar
    16    8    9 ar
    17    9   10 ar
    18    9   27 1
    19   10   11 ar
    20   10   28 1
    21   11   12 ar
    22   11   29 1
    23   12   13 ar
    24   12   30 1
    25   13   14 1
    26   14   15 2
    27   15   16 1
    28   16   21 1
    29   16   17 1
    30   17   18 1
    31   17   31 1
    32   17   32 1
    33   18   19 1
    34   18   33 1
    35   18   34 1
    36   19   20 1
    37   19   39 1
    38   20   21 1
    39   20   35 1
    40   20   36 1
    41   21   37 1
    42   21   38 1
@<TRIPOS>MOLECULE
ZINC03079336
   26    25     0     0     0
SMALL
USER_CHARGES

@<TRIPOS>ATOM
      1 C1          0.4567    1.0915    0.2066 C.3       1 <0>        -0.1505
      2 C2          0.2519   -0.4009    0.1635 C.2       1 <0>         0.4622
      3 O1          1.2065   -1.1415    0.1480 O.2       1 <0>        -0.4897
      4 O2         -0.9909   -0.9074    0.1422 O.3       1 <0>        -0.3664
      5 C3         -1.1108   -2.3308    0.1015 C.3       1 <0>         0.0295
      6 C4         -2.5910   -2.7176    0.0823 C.3       1 <0>        -0.0006
      7 N1         -3.1974   -2.2714   -1.1791 N.4       1 <0>        -0.2721
      8 C5         -2.4263   -2.8064   -2.3093 C.3       1 <0>        -0.0542
      9 C6         -4.5812   -2.7582   -1.2563 C.3       1 <0>        -0.0453
     10 C7         -3.1910   -0.8034   -1.2332 C.3       1 <0>        -0.0471
     11 H1          1.5242    1.3115    0.2188 H         1 <0>         0.1116
     12 H2          0.0021    1.5462   -0.6735 H         1 <0>         0.1044
     13 H3         -0.0079    1.4962    1.1057 H         1 <0>         0.1080
     14 H4         -0.6243   -2.7109   -0.7968 H         1 <0>         0.0948
     15 H5         -0.6343   -2.7609    0.9824 H         1 <0>         0.1144
     16 H6         -2.6847   -3.8002    0.1675 H         1 <0>         0.1489
     17 H7         -3.1018   -2.2417    0.9193 H         1 <0>         0.1414
     18 H8         -2.4311   -3.8957   -2.2692 H         1 <0>         0.1244
     19 H9         -2.8763   -2.4753   -3.2452 H         1 <0>         0.1264
     20 H10        -1.3995   -2.4452   -2.2520 H         1 <0>         0.1197
     21 H11        -5.1533   -2.3613   -0.4177 H         1 <0>         0.1231
     22 H12        -5.0311   -2.4272   -2.1923 H         1 <0>         0.1241
     23 H13        -4.5859   -3.8475   -1.2162 H         1 <0>         0.1220
     24 H14        -2.1697   -0.4495   -1.3740 H         1 <0>         0.1297
     25 H15        -3.8098   -0.4678   -2.0653 H         1 <0>         0.1185
     26 H16        -3.5886   -0.4038   -0.3003 H         1 <0>         0.1230
@<TRIPOS>BOND
     1    1    2 1
     2    1   11 1
     3    1   12 1
     4    1   13 1
     5    2    3 2
     6    2    4 1
     7    4    5 1
     8    5    6 1
     9    5   14 1
    10    5   15 1
    11    6    7 1
    12    6   16 1
    13    6   17 1
    14    7    8 1
    15    7    9 1
    16    7   10 1
    17    8   18 1
    18    8   19 1
    19    8   20 1
    20    9   21 1
    21    9   22 1
    22    9   23 1
    23   10   24 1
    24   10   25 1
    25   10   26 1
@<TRIPOS>MOLECULE
ZINC03936683
   54    58     0     0     0
SMALL
USER_CHARGES

@<TRIPOS>ATOM
      1 C1         -0.0161    1.3791    0.0139 C.ar      1 <0>        -0.1072
      2 C2          0.0881    0.1354    0.6081 C.ar      1 <0>        -0.1195
      3 C3          1.2942   -0.5398    0.5913 C.ar      1 <0>        -0.1025
      4 C4          2.3960    0.0285   -0.0201 C.ar      1 <0>        -0.1067
      5 C5          2.2916    1.2719   -0.6151 C.ar      1 <0>        -0.0987
      6 C6          1.0859    1.9477   -0.5971 C.ar      1 <0>        -0.1176
      7 C7          3.7112   -0.7071   -0.0376 C.3       1 <0>         0.2465
      8 H1          4.4779   -0.0690   -0.4769 H         1 <0>         0.1178
      9 C8          4.1045   -1.0655    1.3735 C.ar      1 <0>        -0.0920
     10 C9          4.5143   -0.0380    2.2125 C.ar      1 <0>        -0.1011
     11 C10         4.8763   -0.3016    3.5174 C.ar      1 <0>        -0.1131
     12 C11         4.8295   -1.5990    3.9930 C.ar      1 <0>        -0.1088
     13 C12         4.4268   -2.6211    3.1592 C.ar      1 <0>        -0.1180
     14 C13         4.0668   -2.3593    1.8427 C.ar      1 <0>        -0.0760
     15 C14         3.6633   -3.5285    0.9836 C.3       1 <0>        -0.0959
     16 C15         2.8595   -3.0609   -0.2287 C.3       1 <0>         0.0988
     17 N1          3.5762   -1.9293   -0.8374 N.am      1 <0>        -0.5753
     18 C16         4.0877   -2.0127   -2.0815 C.2       1 <0>         0.6539
     19 O1          4.6747   -1.0635   -2.5620 O.2       1 <0>        -0.5591
     20 O2          3.9482   -3.1478   -2.7920 O.3       1 <0>        -0.3491
     21 C17         4.5151   -3.1660   -4.1036 C.3       1 <0>         0.0967
     22 H2          4.5010   -2.1594   -4.5216 H         1 <0>         0.1228
     23 C18         5.9577   -3.6714   -4.0318 C.3       1 <0>        -0.0270
     24 N2          6.1041   -4.8865   -4.8366 N.4       1 <0>        -0.3731
     25 C19         5.8050   -4.6120   -6.2441 C.3       1 <0>        -0.0108
     26 C20         4.3573   -4.1377   -6.3893 C.3       1 <0>        -0.1360
     27 C21         3.7020   -4.1071   -5.0022 C.3       1 <0>        -0.0973
     28 C22         3.7681   -5.5203   -4.4080 C.3       1 <0>        -0.1345
     29 C23         5.2396   -5.9520   -4.3237 C.3       1 <0>        -0.0080
     30 H3         -0.9595    1.9047    0.0231 H         1 <0>         0.1263
     31 H4         -0.7727   -0.3087    1.0858 H         1 <0>         0.1258
     32 H5          1.3758   -1.5113    1.0562 H         1 <0>         0.1232
     33 H6          3.1526    1.7161   -1.0925 H         1 <0>         0.1247
     34 H7          1.0044    2.9193   -1.0616 H         1 <0>         0.1271
     35 H8          4.5496    0.9754    1.8408 H         1 <0>         0.1252
     36 H9          5.1952    0.5021    4.1646 H         1 <0>         0.1288
     37 H10         5.1079   -1.8116    5.0146 H         1 <0>         0.1274
     38 H11         4.3905   -3.6338    3.5328 H         1 <0>         0.1247
     39 H12         4.5586   -4.0478    0.6415 H         1 <0>         0.0793
     40 H13         3.0556   -4.2143    1.5739 H         1 <0>         0.0939
     41 H14         2.7730   -3.8739   -0.9496 H         1 <0>         0.0977
     42 H15         1.8668   -2.7410    0.0882 H         1 <0>         0.0907
     43 H16         6.6298   -2.9023   -4.4126 H         1 <0>         0.1437
     44 H17         6.2128   -3.8912   -2.9952 H         1 <0>         0.1372
     45 H18         6.4779   -3.8377   -6.6124 H         1 <0>         0.1331
     46 H19         5.9481   -5.5210   -6.8282 H         1 <0>         0.1353
     47 H20         4.3424   -3.1366   -6.8203 H         1 <0>         0.1049
     48 H21         3.8112   -4.8242   -7.0363 H         1 <0>         0.1117
     49 H22         2.6711   -3.7610   -5.0768 H         1 <0>         0.1268
     50 H23         3.3318   -5.5173   -3.4091 H         1 <0>         0.1060
     51 H24         3.2181   -6.2112   -5.0469 H         1 <0>         0.1046
     52 H25         5.3858   -6.8540   -4.9180 H         1 <0>         0.1332
     53 H26         5.4982   -6.1592   -3.2853 H         1 <0>         0.1301
     54 H27         7.0625   -5.1961   -4.7760 H         1 <0>         0.4295
@<TRIPOS>BOND
     1    1    6 ar
     2    1    2 ar
     3    1   30 1
     4    2    3 ar
     5    2   31 1
     6    3    4 ar
     7    3   32 1
     8    4    5 ar
     9    4    7 1
    10    5    6 ar
    11    5   33 1
    12    6   34 1
    13    7    8 1
    14    7   17 1
    15    7    9 1
    16    9   14 ar
    17    9   10 ar
    18   10   11 ar
    19   10   35 1
    20   11   12 ar
    21   11   36 1
    22   12   13 ar
    23   12   37 1
    24   13   14 ar
    25   13   38 1
    26   14   15 1
    27   15   16 1
    28   15   39 1
    29   15   40 1
    30   16   17 1
    31   16   41 1
    32   16   42 1
    33   17   18 am
    34   18   19 2
    35   18   20 1
    36   20   21 1
    37   21   22 1
    38   21   27 1
    39   21   23 1
    40   23   24 1
    41   23   43 1
    42   23   44 1
    43   24   29 1
    44   24   25 1
    45   24   54 1
    46   25   26 1
    47   25   45 1
    48   25   46 1
    49   26   27 1
    50   26   47 1
    51   26   48 1
    52   27   28 1
    53   27   49 1
    54   28   29 1
    55   28   50 1
    56   28   51 1
    57   29   52 1
    58   29   53 1
@<TRIPOS>MOLECULE
ZINC00000346
   51    53     0     0     0
SMALL
USER_CHARGES

@<TRIPOS>ATOM
      1 C1          1.4244    1.6886   -1.5887 C.3       1 <0>        -0.0469
      2 N1          1.1814    0.2517   -1.4042 N.4       1 <0>        -0.2721
      3 C2          2.0272   -0.5181   -2.3348 C.3       1 <0>        -0.0094
      4 C3          2.9556   -1.4066   -1.4804 C.3       1 <0>        -0.1635
      5 C4          2.9783   -0.6746   -0.1127 C.3       1 <0>         0.0653
      6 H1          3.6979    0.1441   -0.1199 H         1 <0>         0.1168
      7 C5          1.5281   -0.1381   -0.0208 C.3       1 <0>        -0.0050
      8 O1          3.2558   -1.5870    0.9516 O.3       1 <0>        -0.3195
      9 C6          4.5430   -1.7481    1.2962 C.2       1 <0>         0.4516
     10 O2          5.4057   -1.1348    0.7134 O.2       1 <0>        -0.4737
     11 C7          4.9123   -2.6938    2.4098 C.3       1 <0>         0.2145
     12 C8          6.2290   -2.2732    3.0102 C.ar      1 <0>        -0.1385
     13 C9          7.3344   -2.0990    2.1987 C.ar      1 <0>        -0.0834
     14 C10         8.5422   -1.7132    2.7495 C.ar      1 <0>        -0.1241
     15 C11         8.6444   -1.5011    4.1116 C.ar      1 <0>        -0.1009
     16 C12         7.5387   -1.6744    4.9230 C.ar      1 <0>        -0.1214
     17 C13         6.3299   -2.0561    4.3717 C.ar      1 <0>        -0.0984
     18 C14         5.0360   -4.1136    1.8532 C.3       1 <0>        -0.0775
     19 C15         5.9787   -4.1413    0.6245 C.3       1 <0>        -0.1295
     20 C16         5.5417   -5.3961   -0.1594 C.3       1 <0>        -0.1255
     21 C17         4.0846   -5.6813    0.2445 C.3       1 <0>        -0.1278
     22 C18         3.6869   -4.5900    1.2597 C.3       1 <0>        -0.1172
     23 O3          3.8984   -2.6635    3.4164 O.3       1 <0>        -0.5241
     24 C19        -0.2332   -0.0487   -1.6626 C.3       1 <0>        -0.0440
     25 H2          2.4767    1.9057   -1.4048 H         1 <0>         0.1210
     26 H3          1.1678    1.9725   -2.6093 H         1 <0>         0.1263
     27 H4          0.8091    2.2540   -0.8887 H         1 <0>         0.1248
     28 H5          1.4025   -1.1417   -2.9743 H         1 <0>         0.1389
     29 H6          2.6224    0.1621   -2.9440 H         1 <0>         0.1359
     30 H7          2.5397   -2.4086   -1.3744 H         1 <0>         0.1117
     31 H8          3.9554   -1.4469   -1.9126 H         1 <0>         0.1192
     32 H9          1.4851    0.7281    0.6395 H         1 <0>         0.1438
     33 H10         0.8559   -0.9198    0.3330 H         1 <0>         0.1472
     34 H11         7.2546   -2.2647    1.1345 H         1 <0>         0.1341
     35 H12         9.4060   -1.5778    2.1156 H         1 <0>         0.1275
     36 H13         9.5882   -1.2003    4.5420 H         1 <0>         0.1279
     37 H14         7.6186   -1.5090    5.9873 H         1 <0>         0.1294
     38 H15         5.4651   -2.1879    5.0051 H         1 <0>         0.1316
     39 H16         5.3825   -4.8007    2.6251 H         1 <0>         0.1095
     40 H17         5.8418   -3.2459    0.0183 H         1 <0>         0.0667
     41 H18         7.0173   -4.2327    0.9426 H         1 <0>         0.0806
     42 H19         5.6019   -5.2065   -1.2311 H         1 <0>         0.0664
     43 H20         6.1754   -6.2421    0.1067 H         1 <0>         0.0718
     44 H21         3.4375   -5.6302   -0.6313 H         1 <0>         0.0637
     45 H22         4.0111   -6.6658    0.7066 H         1 <0>         0.0706
     46 H23         3.0530   -5.0088    2.0413 H         1 <0>         0.0786
     47 H24         3.1799   -3.7670    0.7561 H         1 <0>         0.0683
     48 H25         3.7652   -1.7923    3.8143 H         1 <0>         0.3851
     49 H26        -0.4867    0.2446   -2.6814 H         1 <0>         0.1254
     50 H27        -0.4061   -1.1178   -1.5386 H         1 <0>         0.1237
     51 H28        -0.8563    0.5041   -0.9597 H         1 <0>         0.1242
@<TRIPOS>BOND
     1    1    2 1
     2    1   25 1
     3    1   26 1
     4    1   27 1
     5    2    7 1
     6    2    3 1
     7    2   24 1
     8    3    4 1
     9    3   28 1
    10    3   29 1
    11    4    5 1
    12    4   30 1
    13    4   31 1
    14    5    6 1
    15    5    7 1
    16    5    8 1
    17    7   32 1
    18    7   33 1
    19    8    9 1
    20    9   10 2
    21    9   11 1
    22   11   12 1
    23   11   18 1
    24   11   23 1
    25   12   17 ar
    26   12   13 ar
    27   13   14 ar
    28   13   34 1
    29   14   15 ar
    30   14   35 1
    31   15   16 ar
    32   15   36 1
    33   16   17 ar
    34   16   37 1
    35   17   38 1
    36   18   22 1
    37   18   19 1
    38   18   39 1
    39   19   20 1
    40   19   40 1
    41   19   41 1
    42   20   21 1
    43   20   42 1
    44   20   43 1
    45   21   22 1
    46   21   44 1
    47   21   45 1
    48   22   46 1
    49   22   47 1
    50   23   48 1
    51   24   49 1
    52   24   50 1
    53   24   51 1
@<TRIPOS>MOLECULE
ZINC00896958
   51    53     0     0     0
SMALL
USER_CHARGES

@<TRIPOS>ATOM
      1 C1         -0.0178    1.4648    0.0101 C.3       1 <0>        -0.0469
      2 N1          0.0021   -0.0041    0.0020 N.4       1 <0>        -0.2722
      3 C2          0.7097   -0.4841   -1.1991 C.3       1 <0>        -0.0092
      4 C3          1.9322   -1.2931   -0.7168 C.3       1 <0>        -0.1633
      5 C4          2.1672   -0.7497    0.7171 C.3       1 <0>         0.0661
      6 H1          2.7372    0.1791    0.6942 H         1 <0>         0.1162
      7 C5          0.7163   -0.4986    1.1983 C.3       1 <0>        -0.0050
      8 O1          2.8167   -1.7256    1.5343 O.3       1 <0>        -0.3200
      9 C6          4.1581   -1.6955    1.5698 C.2       1 <0>         0.4461
     10 O2          4.7610   -0.8679    0.9283 O.2       1 <0>        -0.4727
     11 C7          4.9123   -2.6938    2.4098 C.3       1 <0>         0.2139
     12 C8          6.2985   -2.8778    1.8479 C.ar      1 <0>        -0.1181
     13 C9          7.3354   -2.0780    2.2905 C.ar      1 <0>        -0.0885
     14 C10         8.6069   -2.2467    1.7751 C.ar      1 <0>        -0.1148
     15 C11         8.8416   -3.2155    0.8174 C.ar      1 <0>        -0.1025
     16 C12         7.8048   -4.0159    0.3754 C.ar      1 <0>        -0.1146
     17 C13         6.5342   -3.8501    0.8940 C.ar      1 <0>        -0.1055
     18 C14         5.0089   -2.1807    3.8480 C.3       1 <0>        -0.0849
     19 C15         5.6305   -3.2557    4.7737 C.3       1 <0>        -0.1090
     20 C16         5.1174   -2.8858    6.1807 C.3       1 <0>        -0.1272
     21 C17         3.8252   -2.0753    5.9783 C.3       1 <0>        -0.1247
     22 C18         3.5982   -1.9809    4.4554 C.3       1 <0>        -0.1159
     23 O3          4.2228   -3.9454    2.3959 O.3       1 <0>        -0.5200
     24 C19        -1.3740   -0.5182    0.0002 C.3       1 <0>        -0.0439
     25 H2          1.0047    1.8421    0.0024 H         1 <0>         0.1210
     26 H3         -0.5450    1.8259   -0.8730 H         1 <0>         0.1263
     27 H4         -0.5280    1.8163    0.9069 H         1 <0>         0.1249
     28 H5          0.0508   -1.1230   -1.7872 H         1 <0>         0.1389
     29 H6          1.0396    0.3641   -1.7990 H         1 <0>         0.1358
     30 H7          1.7040   -2.3586   -0.6926 H         1 <0>         0.1112
     31 H8          2.7978   -1.0975   -1.3498 H         1 <0>         0.1186
     32 H9          0.7029    0.2542    1.9865 H         1 <0>         0.1439
     33 H10         0.2676   -1.4270    1.5514 H         1 <0>         0.1473
     34 H11         7.1521   -1.3210    3.0388 H         1 <0>         0.1260
     35 H12         9.4170   -1.6213    2.1204 H         1 <0>         0.1300
     36 H13         9.8349   -3.3468    0.4142 H         1 <0>         0.1293
     37 H14         7.9881   -4.7726   -0.3731 H         1 <0>         0.1292
     38 H15         5.7249   -4.4779    0.5514 H         1 <0>         0.1197
     39 H16         5.5816   -1.2542    3.8883 H         1 <0>         0.0972
     40 H17         5.2841   -4.2496    4.4904 H         1 <0>         0.0842
     41 H18         6.7188   -3.2058    4.7392 H         1 <0>         0.0698
     42 H19         4.9053   -3.7905    6.7506 H         1 <0>         0.0696
     43 H20         5.8597   -2.2812    6.7019 H         1 <0>         0.0661
     44 H21         2.9860   -2.5865    6.4500 H         1 <0>         0.0680
     45 H22         3.9404   -1.0773    6.4012 H         1 <0>         0.0640
     46 H23         3.2033   -1.0006    4.1886 H         1 <0>         0.0564
     47 H24         2.9236   -2.7689    4.1207 H         1 <0>         0.0840
     48 H25         4.1245   -4.3306    1.5144 H         1 <0>         0.3820
     49 H26        -1.8992   -0.1476   -0.8802 H         1 <0>         0.1253
     50 H27        -1.3547   -1.6079   -0.0202 H         1 <0>         0.1237
     51 H28        -1.8892   -0.1807    0.8995 H         1 <0>         0.1242
@<TRIPOS>BOND
     1    1    2 1
     2    1   25 1
     3    1   26 1
     4    1   27 1
     5    2    7 1
     6    2    3 1
     7    2   24 1
     8    3    4 1
     9    3   28 1
    10    3   29 1
    11    4    5 1
    12    4   30 1
    13    4   31 1
    14    5    6 1
    15    5    7 1
    16    5    8 1
    17    7   32 1
    18    7   33 1
    19    8    9 1
    20    9   10 2
    21    9   11 1
    22   11   12 1
    23   11   18 1
    24   11   23 1
    25   12   17 ar
    26   12   13 ar
    27   13   14 ar
    28   13   34 1
    29   14   15 ar
    30   14   35 1
    31   15   16 ar
    32   15   36 1
    33   16   17 ar
    34   16   37 1
    35   17   38 1
    36   18   22 1
    37   18   19 1
    38   18   39 1
    39   19   20 1
    40   19   40 1
    41   19   41 1
    42   20   21 1
    43   20   42 1
    44   20   43 1
    45   21   22 1
    46   21   44 1
    47   21   45 1
    48   22   46 1
    49   22   47 1
    50   23   48 1
    51   24   49 1
    52   24   50 1
    53   24   51 1
@<TRIPOS>MOLECULE
ZINC00896968
   51    53     0     0     0
SMALL
USER_CHARGES

@<TRIPOS>ATOM
      1 C1         -0.7683    2.3255    1.8090 C.3       1 <0>        -0.0456
      2 N1         -0.7454    0.9107    1.4143 N.4       1 <0>        -0.2722
      3 C2         -2.1018    0.3365    1.5421 C.3       1 <0>        -0.0066
      4 C3         -1.8721   -1.1166    2.0273 C.3       1 <0>        -0.1639
      5 C4         -0.6662   -0.9395    2.9872 C.3       1 <0>         0.0664
      6 H1         -1.0018   -0.6122    3.9713 H         1 <0>         0.1195
      7 C5          0.1662    0.1632    2.2999 C.3       1 <0>        -0.0100
      8 O1          0.0816   -2.1530    3.0882 O.3       1 <0>        -0.3234
      9 C6         -0.2621   -3.0007    4.0705 C.2       1 <0>         0.4517
     10 O2         -1.1680   -2.7217    4.8199 O.2       1 <0>        -0.4731
     11 C7          0.4817   -4.3005    4.2388 C.3       1 <0>         0.2144
     12 C8         -0.4068   -5.3019    4.9308 C.ar      1 <0>        -0.1383
     13 C9         -1.0042   -4.9798    6.1351 C.ar      1 <0>        -0.0834
     14 C10        -1.8193   -5.8983    6.7698 C.ar      1 <0>        -0.1239
     15 C11        -2.0373   -7.1388    6.2000 C.ar      1 <0>        -0.1010
     16 C12        -1.4406   -7.4605    4.9953 C.ar      1 <0>        -0.1216
     17 C13        -0.6290   -6.5404    4.3585 C.ar      1 <0>        -0.0987
     18 C14         1.7368   -4.0644    5.0814 C.3       1 <0>        -0.0777
     19 C15         1.3833   -3.3318    6.3995 C.3       1 <0>        -0.1297
     20 C16         2.6995   -2.6419    6.8136 C.3       1 <0>        -0.1258
     21 C17         3.5297   -2.4721    5.5293 C.3       1 <0>        -0.1281
     22 C18         2.6891   -3.0647    4.3795 C.3       1 <0>        -0.1166
     23 O3          0.8574   -4.8040    2.9553 O.3       1 <0>        -0.5241
     24 C19        -0.2904    0.7919    0.0226 C.3       1 <0>        -0.0449
     25 H2          0.2360    2.7415    1.7284 H         1 <0>         0.1246
     26 H3         -1.4430    2.8749    1.1525 H         1 <0>         0.1256
     27 H4         -1.1149    2.4098    2.8390 H         1 <0>         0.1225
     28 H5         -2.6824    0.8945    2.2766 H         1 <0>         0.1371
     29 H6         -2.6073    0.3386    0.5764 H         1 <0>         0.1412
     30 H7         -2.7446   -1.4923    2.5617 H         1 <0>         0.1234
     31 H8         -1.6151   -1.7705    1.1940 H         1 <0>         0.1092
     32 H9          0.9664   -0.2877    1.7130 H         1 <0>         0.1467
     33 H10         0.5861    0.8330    3.0504 H         1 <0>         0.1434
     34 H11        -0.8339   -4.0106    6.5802 H         1 <0>         0.1343
     35 H12        -2.2854   -5.6469    7.7110 H         1 <0>         0.1276
     36 H13        -2.6735   -7.8566    6.6963 H         1 <0>         0.1278
     37 H14        -1.6107   -8.4298    4.5503 H         1 <0>         0.1293
     38 H15        -0.1658   -6.7904    3.4154 H         1 <0>         0.1313
     39 H16         2.2468   -5.0062    5.2844 H         1 <0>         0.1096
     40 H17         0.6024   -2.5913    6.2267 H         1 <0>         0.0667
     41 H18         1.0710   -4.0463    7.1611 H         1 <0>         0.0808
     42 H19         2.4879   -1.6671    7.2531 H         1 <0>         0.0667
     43 H20         3.2389   -3.2646    7.5273 H         1 <0>         0.0719
     44 H21         3.7211   -1.4149    5.3454 H         1 <0>         0.0641
     45 H22         4.4721   -3.0123    5.6197 H         1 <0>         0.0707
     46 H23         3.3299   -3.5842    3.6670 H         1 <0>         0.0786
     47 H24         2.1191   -2.2810    3.8805 H         1 <0>         0.0673
     48 H25         0.1101   -4.9771    2.3666 H         1 <0>         0.3845
     49 H26         0.7182    1.1956   -0.0656 H         1 <0>         0.1243
     50 H27        -0.2885   -0.2579   -0.2706 H         1 <0>         0.1227
     51 H28        -0.9634    1.3498   -0.6285 H         1 <0>         0.1246
@<TRIPOS>BOND
     1    1    2 1
     2    1   25 1
     3    1   26 1
     4    1   27 1
     5    2    7 1
     6    2    3 1
     7    2   24 1
     8    3    4 1
     9    3   28 1
    10    3   29 1
    11    4    5 1
    12    4   30 1
    13    4   31 1
    14    5    6 1
    15    5    7 1
    16    5    8 1
    17    7   32 1
    18    7   33 1
    19    8    9 1
    20    9   10 2
    21    9   11 1
    22   11   12 1
    23   11   18 1
    24   11   23 1
    25   12   17 ar
    26   12   13 ar
    27   13   14 ar
    28   13   34 1
    29   14   15 ar
    30   14   35 1
    31   15   16 ar
    32   15   36 1
    33   16   17 ar
    34   16   37 1
    35   17   38 1
    36   18   22 1
    37   18   19 1
    38   18   39 1
    39   19   20 1
    40   19   40 1
    41   19   41 1
    42   20   21 1
    43   20   42 1
    44   20   43 1
    45   21   22 1
    46   21   44 1
    47   21   45 1
    48   22   46 1
    49   22   47 1
    50   23   48 1
    51   24   49 1
    52   24   50 1
    53   24   51 1
@<TRIPOS>MOLECULE
ZINC00968301
   51    53     0     0     0
SMALL
USER_CHARGES

@<TRIPOS>ATOM
      1 C1         -0.0178    1.4648    0.0101 C.3       1 <0>        -0.0447
      2 N1          0.0021   -0.0041    0.0020 N.4       1 <0>        -0.2723
      3 C2          0.7116   -0.4854   -1.2024 C.3       1 <0>        -0.0067
      4 C3          2.1644   -0.7417   -0.7297 C.3       1 <0>        -0.1645
      5 C4          1.9349   -1.3008    0.6992 C.3       1 <0>         0.0670
      6 H1          1.7066   -2.3661    0.6641 H         1 <0>         0.1186
      7 C5          0.7144   -0.4972    1.1951 C.3       1 <0>        -0.0092
      8 O1          3.0746   -1.0571    1.5261 O.3       1 <0>        -0.3240
      9 C6          4.0140   -2.0151    1.5669 C.2       1 <0>         0.4458
     10 O2          3.8733   -3.0270    0.9218 O.2       1 <0>        -0.4720
     11 C7          5.2441   -1.8285    2.4172 C.3       1 <0>         0.2138
     12 C8          5.8060   -3.1761    2.7903 C.ar      1 <0>        -0.1185
     13 C9          6.7475   -3.7811    1.9789 C.ar      1 <0>        -0.0885
     14 C10         7.2630   -5.0172    2.3211 C.ar      1 <0>        -0.1149
     15 C11         6.8372   -5.6482    3.4750 C.ar      1 <0>        -0.1025
     16 C12         5.8964   -5.0428    4.2869 C.ar      1 <0>        -0.1145
     17 C13         5.3841   -3.8047    3.9469 C.ar      1 <0>        -0.1055
     18 C14         6.2925   -1.0387    1.6311 C.3       1 <0>        -0.0843
     19 C15         7.5022   -0.6850    2.5314 C.3       1 <0>        -0.1092
     20 C16         8.1269    0.5535    1.8564 C.3       1 <0>        -0.1272
     21 C17         7.0095    1.2142    1.0301 C.3       1 <0>        -0.1247
     22 C18         5.7449    0.3541    1.2318 C.3       1 <0>        -0.1151
     23 O3          4.8985   -1.1113    3.6039 O.3       1 <0>        -0.5207
     24 C19        -1.3740   -0.5182    0.0002 C.3       1 <0>        -0.0456
     25 H2          1.0047    1.8421    0.0024 H         1 <0>         0.1228
     26 H3         -0.5450    1.8259   -0.8730 H         1 <0>         0.1245
     27 H4         -0.5280    1.8163    0.9069 H         1 <0>         0.1243
     28 H5          0.2615   -1.4100   -1.5639 H         1 <0>         0.1371
     29 H6          0.6951    0.2760   -1.9822 H         1 <0>         0.1411
     30 H7          2.6567   -1.4795   -1.3633 H         1 <0>         0.1235
     31 H8          2.7345    0.1867   -0.6988 H         1 <0>         0.1097
     32 H9          1.0466    0.3444    1.8028 H         1 <0>         0.1468
     33 H10         0.0578   -1.1425    1.7786 H         1 <0>         0.1430
     34 H11         7.0801   -3.2881    1.0773 H         1 <0>         0.1259
     35 H12         7.9980   -5.4902    1.6868 H         1 <0>         0.1300
     36 H13         7.2394   -6.6143    3.7421 H         1 <0>         0.1294
     37 H14         5.5635   -5.5359    5.1883 H         1 <0>         0.1293
     38 H15         4.6518   -3.3300    4.5832 H         1 <0>         0.1199
     39 H16         6.6125   -1.5950    0.7501 H         1 <0>         0.0971
     40 H17         7.1688   -0.4422    3.5403 H         1 <0>         0.0841
     41 H18         8.2158   -1.5087    2.5523 H         1 <0>         0.0699
     42 H19         8.4913    1.2475    2.6138 H         1 <0>         0.0696
     43 H20         8.9448    0.2500    1.2029 H         1 <0>         0.0661
     44 H21         6.8317    2.2289    1.3865 H         1 <0>         0.0676
     45 H22         7.2852    1.2313   -0.0243 H         1 <0>         0.0638
     46 H23         5.1760    0.2888    0.3043 H         1 <0>         0.0558
     47 H24         5.1277    0.7648    2.0309 H         1 <0>         0.0835
     48 H25         4.2369   -1.5544    4.1526 H         1 <0>         0.3823
     49 H26        -1.8992   -0.1476   -0.8802 H         1 <0>         0.1255
     50 H27        -1.3547   -1.6079   -0.0202 H         1 <0>         0.1223
     51 H28        -1.8892   -0.1807    0.8995 H         1 <0>         0.1244
@<TRIPOS>BOND
     1    1    2 1
     2    1   25 1
     3    1   26 1
     4    1   27 1
     5    2    7 1
     6    2    3 1
     7    2   24 1
     8    3    4 1
     9    3   28 1
    10    3   29 1
    11    4    5 1
    12    4   30 1
    13    4   31 1
    14    5    6 1
    15    5    7 1
    16    5    8 1
    17    7   32 1
    18    7   33 1
    19    8    9 1
    20    9   10 2
    21    9   11 1
    22   11   12 1
    23   11   18 1
    24   11   23 1
    25   12   17 ar
    26   12   13 ar
    27   13   14 ar
    28   13   34 1
    29   14   15 ar
    30   14   35 1
    31   15   16 ar
    32   15   36 1
    33   16   17 ar
    34   16   37 1
    35   17   38 1
    36   18   22 1
    37   18   19 1
    38   18   39 1
    39   19   20 1
    40   19   40 1
    41   19   41 1
    42   20   21 1
    43   20   42 1
    44   20   43 1
    45   21   22 1
    46   21   44 1
    47   21   45 1
    48   22   46 1
    49   22   47 1
    50   23   48 1
    51   24   49 1
    52   24   50 1
    53   24   51 1
@<TRIPOS>MOLECULE
ZINC01530751
   58    59     0     0     0
SMALL
USER_CHARGES

@<TRIPOS>ATOM
      1 C1          0.2991    1.0752   -0.2917 C.3       1 <0>        -0.1878
      2 C2          0.2487   -0.4286   -0.0143 C.3       1 <0>        -0.0180
      3 N1          0.7545   -0.6942    1.3391 N.4       1 <0>        -0.3873
      4 C3         -0.1471   -0.0863    2.3268 C.3       1 <0>        -0.0176
      5 C4         -1.5739   -0.5857    2.0902 C.3       1 <0>        -0.1896
      6 C5          0.8186   -2.1448    1.5620 C.3       1 <0>         0.1283
      7 C6          1.4440   -2.4134    2.8672 C.1       1 <0>        -0.2437
      8 C7          1.9427   -2.6277    3.9081 C.1       1 <0>        -0.0537
      9 C8          2.5681   -2.8964    5.2133 C.3       1 <0>         0.1556
     10 O1          2.6305   -4.3075    5.4302 O.3       1 <0>        -0.3355
     11 C9          3.1776   -4.7232    6.5833 C.2       1 <0>         0.4488
     12 O2          3.5898   -3.9158    7.3820 O.2       1 <0>        -0.4789
     13 C10         3.2776   -6.1970    6.8816 C.3       1 <0>         0.2093
     14 C11         4.5302   -6.7526    6.2545 C.ar      1 <0>        -0.0984
     15 C12         5.7129   -6.7686    6.9701 C.ar      1 <0>        -0.0971
     16 C13         6.8619   -7.2782    6.3949 C.ar      1 <0>        -0.1209
     17 C14         6.8282   -7.7722    5.1043 C.ar      1 <0>        -0.1021
     18 C15         5.6454   -7.7571    4.3890 C.ar      1 <0>        -0.1258
     19 C16         4.4953   -7.2514    4.9658 C.ar      1 <0>        -0.0793
     20 C17         3.3284   -6.4085    8.3961 C.3       1 <0>        -0.1010
     21 C18         3.4299   -7.9047    8.6989 C.3       1 <0>        -0.1097
     22 C19         3.4807   -8.1162   10.2134 C.3       1 <0>        -0.1205
     23 C20         2.2089   -7.5522   10.8501 C.3       1 <0>        -0.1228
     24 C21         2.1074   -6.0559   10.5472 C.3       1 <0>        -0.1149
     25 C22         2.0566   -5.8444    9.0327 C.3       1 <0>        -0.1247
     26 O3          2.1371   -6.8701    6.3446 O.3       1 <0>        -0.5261
     27 H1          1.3286    1.4247   -0.2135 H         1 <0>         0.0810
     28 H2         -0.0762    1.2722   -1.2959 H         1 <0>         0.1084
     29 H3         -0.3191    1.5999    0.4367 H         1 <0>         0.0808
     30 H4         -0.7808   -0.7782   -0.0925 H         1 <0>         0.1359
     31 H5          0.8669   -0.9534   -0.7427 H         1 <0>         0.1340
     32 H6          0.1734   -0.3644    3.3308 H         1 <0>         0.1267
     33 H7         -0.1201    0.9985    2.2242 H         1 <0>         0.1343
     34 H8         -1.5833   -1.6756    2.0977 H         1 <0>         0.0801
     35 H9         -2.2254   -0.2113    2.8798 H         1 <0>         0.1065
     36 H10        -1.9293   -0.2258    1.1247 H         1 <0>         0.0853
     37 H11        -0.1895   -2.5591    1.5500 H         1 <0>         0.1522
     38 H12         1.4112   -2.6078    0.7730 H         1 <0>         0.1531
     39 H13         3.5762   -2.4820    5.2254 H         1 <0>         0.1078
     40 H14         1.9755   -2.4334    6.0023 H         1 <0>         0.1076
     41 H15         5.7392   -6.3826    7.9784 H         1 <0>         0.1298
     42 H16         7.7860   -7.2900    6.9537 H         1 <0>         0.1301
     43 H17         7.7261   -8.1698    4.6546 H         1 <0>         0.1278
     44 H18         5.6191   -8.1428    3.3806 H         1 <0>         0.1272
     45 H19         3.5704   -7.2430    4.4083 H         1 <0>         0.1315
     46 H20         4.1982   -5.8950    8.8056 H         1 <0>         0.0970
     47 H21         2.5600   -8.4182    8.2894 H         1 <0>         0.0730
     48 H22         4.3359   -8.3066    8.2454 H         1 <0>         0.0711
     49 H23         3.5530   -9.1822   10.4292 H         1 <0>         0.0680
     50 H24         4.3506   -7.6028   10.6230 H         1 <0>         0.0632
     51 H25         1.3390   -8.0656   10.4405 H         1 <0>         0.0633
     52 H26         2.2451   -7.7028   11.9290 H         1 <0>         0.0655
     53 H27         1.2014   -5.6540   11.0007 H         1 <0>         0.0657
     54 H28         2.9773   -5.5424   10.9568 H         1 <0>         0.0657
     55 H29         1.9843   -4.7784    8.8169 H         1 <0>         0.0646
     56 H30         1.1867   -6.3579    8.6231 H         1 <0>         0.0644
     57 H31         1.2937   -6.5628    6.7041 H         1 <0>         0.3842
     58 H32         1.6771   -0.2977    1.4371 H         1 <0>         0.4275
@<TRIPOS>BOND
     1    1    2 1
     2    1   27 1
     3    1   28 1
     4    1   29 1
     5    2    3 1
     6    2   30 1
     7    2   31 1
     8    3    4 1
     9    3    6 1
    10    3   58 1
    11    4    5 1
    12    4   32 1
    13    4   33 1
    14    5   34 1
    15    5   35 1
    16    5   36 1
    17    6    7 1
    18    6   37 1
    19    6   38 1
    20    7    8 3
    21    8    9 1
    22    9   10 1
    23    9   39 1
    24    9   40 1
    25   10   11 1
    26   11   12 2
    27   11   13 1
    28   13   14 1
    29   13   20 1
    30   13   26 1
    31   14   19 ar
    32   14   15 ar
    33   15   16 ar
    34   15   41 1
    35   16   17 ar
    36   16   42 1
    37   17   18 ar
    38   17   43 1
    39   18   19 ar
    40   18   44 1
    41   19   45 1
    42   20   25 1
    43   20   21 1
    44   20   46 1
    45   21   22 1
    46   21   47 1
    47   21   48 1
    48   22   23 1
    49   22   49 1
    50   22   50 1
    51   23   24 1
    52   23   51 1
    53   23   52 1
    54   24   25 1
    55   24   53 1
    56   24   54 1
    57   25   55 1
    58   25   56 1
    59   26   57 1
@<TRIPOS>MOLECULE
ZINC01530751
   57    58     0     0     0
SMALL
USER_CHARGES

@<TRIPOS>ATOM
      1 C1         -1.3393   -0.9465    0.0937 C.3       1 <0>        -0.1938
      2 C2         -0.0615   -0.1096    0.0057 C.3       1 <0>         0.0454
      3 N1          0.7423   -0.5619   -1.1377 N.3       1 <0>        -0.5361
      4 C3          1.0055   -2.0050   -1.0581 C.3       1 <0>         0.0450
      5 C4          1.8971   -2.2949    0.1510 C.3       1 <0>        -0.1498
      6 C5          0.0922   -0.2147   -2.4084 C.3       1 <0>         0.1567
      7 C6          0.2750    1.2211   -2.6767 C.1       1 <0>        -0.1196
      8 C7          0.4208    2.3662   -2.8907 C.1       1 <0>        -0.1918
      9 C8          0.6035    3.8019   -3.1591 C.3       1 <0>         0.1841
     10 O1         -0.0288    4.1398   -4.3952 O.3       1 <0>        -0.3348
     11 C9          0.0461    5.4212   -4.7878 C.2       1 <0>         0.4444
     12 O2          0.6293    6.2292   -4.1046 O.2       1 <0>        -0.4887
     13 C10        -0.5971    5.8519   -6.0808 C.3       1 <0>         0.2057
     14 C11        -2.0520    6.1618   -5.8393 C.ar      1 <0>        -0.0924
     15 C12        -2.4377    7.4438   -5.4950 C.ar      1 <0>        -0.0985
     16 C13        -3.7722    7.7281   -5.2735 C.ar      1 <0>        -0.1236
     17 C14        -4.7211    6.7304   -5.3966 C.ar      1 <0>        -0.1058
     18 C15        -4.3355    5.4486   -5.7417 C.ar      1 <0>        -0.1251
     19 C16        -3.0014    5.1653   -5.9675 C.ar      1 <0>        -0.0771
     20 C17         0.1094    7.1015   -6.6103 C.3       1 <0>        -0.0996
     21 C18        -0.5436    7.5388   -7.9230 C.3       1 <0>        -0.1098
     22 C19         0.1629    8.7884   -8.4526 C.3       1 <0>        -0.1192
     23 C20         1.6400    8.4738   -8.6978 C.3       1 <0>        -0.1218
     24 C21         2.2930    8.0364   -7.3851 C.3       1 <0>        -0.1141
     25 C22         1.5865    6.7869   -6.8555 C.3       1 <0>        -0.1261
     26 O3         -0.4873    4.7996   -7.0412 O.3       1 <0>        -0.5275
     27 H1         -1.8650   -0.9086   -0.8604 H         1 <0>         0.0562
     28 H2         -1.0816   -1.9799    0.3257 H         1 <0>         0.0612
     29 H3         -1.9818   -0.5474    0.8786 H         1 <0>         0.0646
     30 H4         -0.3232    0.9402   -0.1267 H         1 <0>         0.0755
     31 H5          0.5140   -0.2276    0.9238 H         1 <0>         0.0815
     32 H6          0.0625   -2.5410   -0.9510 H         1 <0>         0.0441
     33 H7          1.5087   -2.3332   -1.9676 H         1 <0>         0.0758
     34 H8          1.3939   -1.9667    1.0605 H         1 <0>         0.0556
     35 H9          2.0924   -3.3656    0.2100 H         1 <0>         0.0609
     36 H10         2.8401   -1.7589    0.0439 H         1 <0>         0.0634
     37 H11         0.5392   -0.7949   -3.2156 H         1 <0>         0.1002
     38 H12        -0.9724   -0.4399   -2.3454 H         1 <0>         0.0714
     39 H13         0.1566    4.3822   -2.3518 H         1 <0>         0.0936
     40 H14         1.6681    4.0271   -3.2221 H         1 <0>         0.0926
     41 H15        -1.6964    8.2233   -5.3988 H         1 <0>         0.1285
     42 H16        -4.0735    8.7296   -5.0039 H         1 <0>         0.1274
     43 H17        -5.7637    6.9523   -5.2228 H         1 <0>         0.1253
     44 H18        -5.0768    4.6690   -5.8376 H         1 <0>         0.1263
     45 H19        -2.7006    4.1647   -6.2407 H         1 <0>         0.1330
     46 H20         0.0256    7.9042   -5.8777 H         1 <0>         0.0957
     47 H21        -0.4599    6.7361   -8.6556 H         1 <0>         0.0723
     48 H22        -1.5959    7.7630   -7.7484 H         1 <0>         0.0703
     49 H23        -0.3024    9.1000   -9.3878 H         1 <0>         0.0653
     50 H24         0.0791    9.5911   -7.7200 H         1 <0>         0.0621
     51 H25         1.7237    7.6710   -9.4304 H         1 <0>         0.0626
     52 H26         2.1433    9.3640   -9.0751 H         1 <0>         0.0629
     53 H27         3.3453    7.8123   -7.5598 H         1 <0>         0.0646
     54 H28         2.2092    8.8391   -6.6525 H         1 <0>         0.0648
     55 H29         2.0517    6.4753   -5.9204 H         1 <0>         0.0680
     56 H30         1.6703    5.9842   -7.5882 H         1 <0>         0.0641
     57 H31         0.4235    4.5473   -7.2458 H         1 <0>         0.3843
@<TRIPOS>BOND
     1    1    2 1
     2    1   27 1
     3    1   28 1
     4    1   29 1
     5    2    3 1
     6    2   30 1
     7    2   31 1
     8    3    4 1
     9    3    6 1
    10    4    5 1
    11    4   32 1
    12    4   33 1
    13    5   34 1
    14    5   35 1
    15    5   36 1
    16    6    7 1
    17    6   37 1
    18    6   38 1
    19    7    8 3
    20    8    9 1
    21    9   10 1
    22    9   39 1
    23    9   40 1
    24   10   11 1
    25   11   12 2
    26   11   13 1
    27   13   14 1
    28   13   20 1
    29   13   26 1
    30   14   19 ar
    31   14   15 ar
    32   15   16 ar
    33   15   41 1
    34   16   17 ar
    35   16   42 1
    36   17   18 ar
    37   17   43 1
    38   18   19 ar
    39   18   44 1
    40   19   45 1
    41   20   25 1
    42   20   21 1
    43   20   46 1
    44   21   22 1
    45   21   47 1
    46   21   48 1
    47   22   23 1
    48   22   49 1
    49   22   50 1
    50   23   24 1
    51   23   51 1
    52   23   52 1
    53   24   25 1
    54   24   53 1
    55   24   54 1
    56   25   55 1
    57   25   56 1
    58   26   57 1
@<TRIPOS>MOLECULE
ZINC01530752
   58    59     0     0     0
SMALL
USER_CHARGES

@<TRIPOS>ATOM
      1 C1          0.2991    1.0752   -0.2917 C.3       1 <0>        -0.1878
      2 C2          0.2487   -0.4286   -0.0143 C.3       1 <0>        -0.0180
      3 N1          0.7545   -0.6942    1.3391 N.4       1 <0>        -0.3872
      4 C3         -0.1471   -0.0863    2.3268 C.3       1 <0>        -0.0177
      5 C4         -1.5739   -0.5857    2.0902 C.3       1 <0>        -0.1897
      6 C5          0.8186   -2.1448    1.5620 C.3       1 <0>         0.1283
      7 C6          1.4440   -2.4134    2.8672 C.1       1 <0>        -0.2437
      8 C7          1.9427   -2.6277    3.9081 C.1       1 <0>        -0.0537
      9 C8          2.5681   -2.8964    5.2133 C.3       1 <0>         0.1556
     10 O1          2.6305   -4.3075    5.4302 O.3       1 <0>        -0.3355
     11 C9          3.1776   -4.7232    6.5833 C.2       1 <0>         0.4488
     12 O2          3.5898   -3.9158    7.3820 O.2       1 <0>        -0.4789
     13 C10         3.2776   -6.1970    6.8816 C.3       1 <0>         0.2092
     14 C11         1.9845   -6.6752    7.4902 C.ar      1 <0>        -0.0978
     15 C12         1.8111   -6.6395    8.8612 C.ar      1 <0>        -0.0973
     16 C13         0.6250   -7.0782    9.4194 C.ar      1 <0>        -0.1208
     17 C14        -0.3878   -7.5520    8.6067 C.ar      1 <0>        -0.1023
     18 C15        -0.2147   -7.5869    7.2357 C.ar      1 <0>        -0.1256
     19 C16         0.9697   -7.1442    6.6771 C.ar      1 <0>        -0.0796
     20 C17         4.4248   -6.4418    7.8638 C.3       1 <0>        -0.1009
     21 C18         4.5263   -7.9381    8.1667 C.3       1 <0>        -0.1096
     22 C19         5.6736   -8.1829    9.1490 C.3       1 <0>        -0.1204
     23 C20         6.9864   -7.6974    8.5311 C.3       1 <0>        -0.1229
     24 C21         6.8848   -6.2011    8.2282 C.3       1 <0>        -0.1149
     25 C22         5.7376   -5.9563    7.2459 C.3       1 <0>        -0.1248
     26 O3          3.5270   -6.9124    5.6700 O.3       1 <0>        -0.5262
     27 H1          1.3286    1.4247   -0.2135 H         1 <0>         0.0810
     28 H2         -0.0762    1.2722   -1.2959 H         1 <0>         0.1083
     29 H3         -0.3191    1.5999    0.4367 H         1 <0>         0.0808
     30 H4         -0.7808   -0.7782   -0.0925 H         1 <0>         0.1359
     31 H5          0.8669   -0.9534   -0.7427 H         1 <0>         0.1340
     32 H6          0.1734   -0.3644    3.3308 H         1 <0>         0.1267
     33 H7         -0.1201    0.9985    2.2242 H         1 <0>         0.1344
     34 H8         -1.5833   -1.6756    2.0977 H         1 <0>         0.0801
     35 H9         -2.2254   -0.2113    2.8798 H         1 <0>         0.1066
     36 H10        -1.9293   -0.2258    1.1247 H         1 <0>         0.0853
     37 H11        -0.1895   -2.5591    1.5500 H         1 <0>         0.1521
     38 H12         1.4112   -2.6078    0.7730 H         1 <0>         0.1532
     39 H13         3.5762   -2.4820    5.2254 H         1 <0>         0.1081
     40 H14         1.9755   -2.4334    6.0023 H         1 <0>         0.1074
     41 H15         2.6024   -6.2693    9.4961 H         1 <0>         0.1297
     42 H16         0.4898   -7.0510   10.4906 H         1 <0>         0.1300
     43 H17        -1.3142   -7.8954    9.0429 H         1 <0>         0.1277
     44 H18        -1.0059   -7.9574    6.6007 H         1 <0>         0.1271
     45 H19         1.1036   -7.1679    5.6057 H         1 <0>         0.1315
     46 H20         4.2345   -5.8961    8.7880 H         1 <0>         0.0969
     47 H21         3.5911   -8.2840    8.6069 H         1 <0>         0.0710
     48 H22         4.7166   -8.4838    7.2425 H         1 <0>         0.0730
     49 H23         5.4833   -7.6372   10.0731 H         1 <0>         0.0631
     50 H24         5.7459   -9.2489    9.3647 H         1 <0>         0.0680
     51 H25         7.8037   -7.8718    9.2308 H         1 <0>         0.0655
     52 H26         7.1766   -8.2431    7.6069 H         1 <0>         0.0633
     53 H27         6.6946   -5.6554    9.1524 H         1 <0>         0.0657
     54 H28         7.8201   -5.8552    7.7880 H         1 <0>         0.0658
     55 H29         5.9279   -6.5020    6.3218 H         1 <0>         0.0644
     56 H30         5.6653   -4.8903    7.0302 H         1 <0>         0.0647
     57 H31         4.3451   -6.6556    5.2229 H         1 <0>         0.3845
     58 H32         1.6771   -0.2977    1.4371 H         1 <0>         0.4274
@<TRIPOS>BOND
     1    1    2 1
     2    1   27 1
     3    1   28 1
     4    1   29 1
     5    2    3 1
     6    2   30 1
     7    2   31 1
     8    3    4 1
     9    3    6 1
    10    3   58 1
    11    4    5 1
    12    4   32 1
    13    4   33 1
    14    5   34 1
    15    5   35 1
    16    5   36 1
    17    6    7 1
    18    6   37 1
    19    6   38 1
    20    7    8 3
    21    8    9 1
    22    9   10 1
    23    9   39 1
    24    9   40 1
    25   10   11 1
    26   11   12 2
    27   11   13 1
    28   13   14 1
    29   13   20 1
    30   13   26 1
    31   14   19 ar
    32   14   15 ar
    33   15   16 ar
    34   15   41 1
    35   16   17 ar
    36   16   42 1
    37   17   18 ar
    38   17   43 1
    39   18   19 ar
    40   18   44 1
    41   19   45 1
    42   20   25 1
    43   20   21 1
    44   20   46 1
    45   21   22 1
    46   21   47 1
    47   21   48 1
    48   22   23 1
    49   22   49 1
    50   22   50 1
    51   23   24 1
    52   23   51 1
    53   23   52 1
    54   24   25 1
    55   24   53 1
    56   24   54 1
    57   25   55 1
    58   25   56 1
    59   26   57 1
@<TRIPOS>MOLECULE
ZINC01530752
   57    58     0     0     0
SMALL
USER_CHARGES

@<TRIPOS>ATOM
      1 C1         -1.3393   -0.9465    0.0937 C.3       1 <0>        -0.1940
      2 C2         -0.0615   -0.1096    0.0057 C.3       1 <0>         0.0454
      3 N1          0.7423   -0.5619   -1.1377 N.3       1 <0>        -0.5360
      4 C3          1.0055   -2.0050   -1.0581 C.3       1 <0>         0.0448
      5 C4          1.8971   -2.2949    0.1510 C.3       1 <0>        -0.1497
      6 C5          0.0922   -0.2147   -2.4084 C.3       1 <0>         0.1566
      7 C6          0.2750    1.2211   -2.6767 C.1       1 <0>        -0.1195
      8 C7          0.4208    2.3662   -2.8907 C.1       1 <0>        -0.1918
      9 C8          0.6035    3.8019   -3.1591 C.3       1 <0>         0.1841
     10 O1         -0.0288    4.1398   -4.3952 O.3       1 <0>        -0.3348
     11 C9          0.0461    5.4212   -4.7878 C.2       1 <0>         0.4444
     12 O2          0.6293    6.2292   -4.1046 O.2       1 <0>        -0.4887
     13 C10        -0.5971    5.8519   -6.0808 C.3       1 <0>         0.2057
     14 C11         0.3520    5.5971   -7.2233 C.ar      1 <0>        -0.0920
     15 C12         1.2505    6.5752   -7.6067 C.ar      1 <0>        -0.0986
     16 C13         2.1211    6.3415   -8.6547 C.ar      1 <0>        -0.1235
     17 C14         2.0935    5.1295   -9.3191 C.ar      1 <0>        -0.1061
     18 C15         1.1956    4.1511   -8.9351 C.ar      1 <0>        -0.1253
     19 C16         0.3279    4.3833   -7.8843 C.ar      1 <0>        -0.0776
     20 C17        -0.9260    7.3447   -6.0142 C.3       1 <0>        -0.0995
     21 C18        -1.5790    7.7820   -7.3269 C.3       1 <0>        -0.1096
     22 C19        -1.9079    9.2748   -7.2604 C.3       1 <0>        -0.1192
     23 C20        -2.8715    9.5335   -6.1004 C.3       1 <0>        -0.1218
     24 C21        -2.2185    9.0961   -4.7877 C.3       1 <0>        -0.1141
     25 C22        -1.8896    7.6034   -4.8543 C.3       1 <0>        -0.1262
     26 O3         -1.7997    5.1079   -6.2856 O.3       1 <0>        -0.5275
     27 H1         -1.8650   -0.9086   -0.8604 H         1 <0>         0.0562
     28 H2         -1.0816   -1.9799    0.3257 H         1 <0>         0.0612
     29 H3         -1.9818   -0.5474    0.8786 H         1 <0>         0.0647
     30 H4         -0.3232    0.9402   -0.1267 H         1 <0>         0.0756
     31 H5          0.5140   -0.2276    0.9238 H         1 <0>         0.0815
     32 H6          0.0625   -2.5410   -0.9510 H         1 <0>         0.0441
     33 H7          1.5087   -2.3332   -1.9676 H         1 <0>         0.0758
     34 H8          1.3939   -1.9667    1.0605 H         1 <0>         0.0557
     35 H9          2.0924   -3.3656    0.2100 H         1 <0>         0.0609
     36 H10         2.8401   -1.7589    0.0439 H         1 <0>         0.0634
     37 H11         0.5392   -0.7949   -3.2156 H         1 <0>         0.1003
     38 H12        -0.9724   -0.4399   -2.3454 H         1 <0>         0.0714
     39 H13         0.1566    4.3822   -2.3518 H         1 <0>         0.0939
     40 H14         1.6681    4.0271   -3.2221 H         1 <0>         0.0922
     41 H15         1.2721    7.5220   -7.0877 H         1 <0>         0.1286
     42 H16         2.8226    7.1058   -8.9547 H         1 <0>         0.1274
     43 H17         2.7732    4.9472  -10.1383 H         1 <0>         0.1253
     44 H18         1.1737    3.2044   -9.4543 H         1 <0>         0.1263
     45 H19        -0.3711    3.6175   -7.5819 H         1 <0>         0.1332
     46 H20        -0.0086    7.9123   -5.8580 H         1 <0>         0.0956
     47 H21        -0.8926    7.5977   -8.1533 H         1 <0>         0.0701
     48 H22        -2.4964    7.2145   -7.4831 H         1 <0>         0.0723
     49 H23        -0.9906    9.8424   -7.1042 H         1 <0>         0.0621
     50 H24        -2.3732    9.5864   -8.1956 H         1 <0>         0.0653
     51 H25        -3.1058   10.5969   -6.0530 H         1 <0>         0.0629
     52 H26        -3.7889    8.9659   -6.2566 H         1 <0>         0.0627
     53 H27        -1.3011    9.6637   -4.6315 H         1 <0>         0.0647
     54 H28        -2.9049    9.2804   -3.9613 H         1 <0>         0.0647
     55 H29        -2.8069    7.0358   -5.0105 H         1 <0>         0.0642
     56 H30        -1.4243    7.2918   -3.9191 H         1 <0>         0.0681
     57 H31        -2.4580    5.2241   -5.5868 H         1 <0>         0.3845
@<TRIPOS>BOND
     1    1    2 1
     2    1   27 1
     3    1   28 1
     4    1   29 1
     5    2    3 1
     6    2   30 1
     7    2   31 1
     8    3    4 1
     9    3    6 1
    10    4    5 1
    11    4   32 1
    12    4   33 1
    13    5   34 1
    14    5   35 1
    15    5   36 1
    16    6    7 1
    17    6   37 1
    18    6   38 1
    19    7    8 3
    20    8    9 1
    21    9   10 1
    22    9   39 1
    23    9   40 1
    24   10   11 1
    25   11   12 2
    26   11   13 1
    27   13   14 1
    28   13   20 1
    29   13   26 1
    30   14   19 ar
    31   14   15 ar
    32   15   16 ar
    33   15   41 1
    34   16   17 ar
    35   16   42 1
    36   17   18 ar
    37   17   43 1
    38   18   19 ar
    39   18   44 1
    40   19   45 1
    41   20   25 1
    42   20   21 1
    43   20   46 1
    44   21   22 1
    45   21   47 1
    46   21   48 1
    47   22   23 1
    48   22   49 1
    49   22   50 1
    50   23   24 1
    51   23   51 1
    52   23   52 1
    53   24   25 1
    54   24   53 1
    55   24   54 1
    56   25   55 1
    57   25   56 1
    58   26   57 1
@<TRIPOS>MOLECULE
ZINC13782937
   54    56     0     0     0
SMALL
USER_CHARGES

@<TRIPOS>ATOM
      1 C1          0.0233    1.5257   -0.0147 C.3       1 <0>        -0.1817
      2 C2          0.0021   -0.0041    0.0020 C.3       1 <0>         0.0110
      3 C3          0.6900   -0.5374   -1.2563 C.3       1 <0>        -0.1813
      4 N1          0.7126   -0.4907    1.1921 N.4       1 <0>        -0.2720
      5 C4          0.0234   -0.0448    2.4322 C.3       1 <0>         0.0359
      6 H1          0.2382    0.9966    2.6719 H         1 <0>         0.1468
      7 C5          0.5377   -1.0135    3.5219 C.3       1 <0>        -0.1443
      8 C6          0.9480   -2.2883    2.7558 C.3       1 <0>        -0.1370
      9 C7          0.6442   -1.9741    1.2728 C.3       1 <0>         0.0353
     10 H2          1.3495   -2.4569    0.5963 H         1 <0>         0.1501
     11 C8         -0.8125   -2.3787    0.9952 C.3       1 <0>        -0.1429
     12 C9         -1.7032   -1.8183    2.1077 C.3       1 <0>         0.0751
     13 C10        -1.4801   -0.2947    2.2329 C.3       1 <0>        -0.1652
     14 O1         -1.3780   -2.4566    3.3441 O.3       1 <0>        -0.3361
     15 C11        -2.3678   -2.5877    4.2411 C.2       1 <0>         0.4590
     16 O2         -3.4738   -2.1741    3.9851 O.2       1 <0>        -0.4682
     17 C12        -2.0997   -3.2507    5.5676 C.3       1 <0>        -0.0382
     18 H3         -1.7586   -4.2724    5.4008 H         1 <0>         0.1279
     19 C13        -1.0206   -2.4691    6.3196 C.3       1 <0>         0.0874
     20 O3         -0.6831   -3.1609    7.5235 O.3       1 <0>        -0.5566
     21 C14        -3.3662   -3.2709    6.3842 C.ar      1 <0>        -0.0822
     22 C15        -3.9918   -2.0846    6.7189 C.ar      1 <0>        -0.0907
     23 C16        -5.1535   -2.1031    7.4679 C.ar      1 <0>        -0.1193
     24 C17        -5.6898   -3.3081    7.8818 C.ar      1 <0>        -0.1075
     25 C18        -5.0647   -4.4945    7.5463 C.ar      1 <0>        -0.1178
     26 C19        -3.9053   -4.4761    6.7937 C.ar      1 <0>        -0.0977
     27 C20         2.1097   -0.0371    1.1815 C.3       1 <0>        -0.0473
     28 H4          1.0557    1.8745   -0.0399 H         1 <0>         0.0820
     29 H5         -0.5039    1.8868   -0.8977 H         1 <0>         0.1038
     30 H6         -0.4668    1.9057    0.8818 H         1 <0>         0.0783
     31 H7         -1.0303   -0.3529    0.0272 H         1 <0>         0.1406
     32 H8          1.7224   -0.1886   -1.2815 H         1 <0>         0.0819
     33 H9          0.6749   -1.6272   -1.2444 H         1 <0>         0.0792
     34 H10         0.1628   -0.1763   -2.1393 H         1 <0>         0.1036
     35 H11         1.3991   -0.5852    4.0343 H         1 <0>         0.0923
     36 H12        -0.2556   -1.2382    4.2348 H         1 <0>         0.1190
     37 H13         2.0111   -2.4868    2.8914 H         1 <0>         0.0938
     38 H14         0.3564   -3.1399    3.0919 H         1 <0>         0.1302
     39 H15        -1.1279   -1.9712    0.0348 H         1 <0>         0.1103
     40 H16        -0.8922   -3.4657    0.9765 H         1 <0>         0.1225
     41 H17        -2.7488   -2.0094    1.8659 H         1 <0>         0.1134
     42 H18        -2.0304    0.0835    3.0944 H         1 <0>         0.1150
     43 H19        -1.8180    0.2135    1.3297 H         1 <0>         0.1099
     44 H20        -0.1340   -2.3782    5.6920 H         1 <0>         0.0592
     45 H21        -1.3957   -1.4754    6.5645 H         1 <0>         0.0540
     46 H22        -0.0030   -2.7214    8.0523 H         1 <0>         0.3903
     47 H23        -3.5728   -1.1432    6.3956 H         1 <0>         0.1125
     48 H24        -5.6419   -1.1762    7.7300 H         1 <0>         0.1246
     49 H25        -6.5970   -3.3226    8.4676 H         1 <0>         0.1263
     50 H26        -5.4835   -5.4359    7.8700 H         1 <0>         0.1274
     51 H27        -3.4190   -5.4032    6.5284 H         1 <0>         0.1231
     52 H28         2.1379    1.0523    1.1599 H         1 <0>         0.1211
     53 H29         2.6151   -0.3959    2.0781 H         1 <0>         0.1211
     54 H30         2.6129   -0.4311    0.2985 H         1 <0>         0.1219
@<TRIPOS>BOND
     1    1    2 1
     2    1   28 1
     3    1   29 1
     4    1   30 1
     5    2    3 1
     6    2    4 1
     7    2   31 1
     8    3   32 1
     9    3   33 1
    10    3   34 1
    11    4    9 1
    12    4    5 1
    13    4   27 1
    14    5    6 1
    15    5   13 1
    16    5    7 1
    17    7    8 1
    18    7   35 1
    19    7   36 1
    20    8    9 1
    21    8   37 1
    22    8   38 1
    23    9   10 1
    24    9   11 1
    25   11   12 1
    26   11   39 1
    27   11   40 1
    28   12   13 1
    29   12   14 1
    30   12   41 1
    31   13   42 1
    32   13   43 1
    33   14   15 1
    34   15   16 2
    35   15   17 1
    36   17   18 1
    37   17   19 1
    38   17   21 1
    39   19   20 1
    40   19   44 1
    41   19   45 1
    42   20   46 1
    43   21   26 ar
    44   21   22 ar
    45   22   23 ar
    46   22   47 1
    47   23   24 ar
    48   23   48 1
    49   24   25 ar
    50   24   49 1
    51   25   26 ar
    52   25   50 1
    53   26   51 1
    54   27   52 1
    55   27   53 1
    56   27   54 1
@<TRIPOS>MOLECULE
ZINC02022527
   54    55     0     0     0
SMALL
USER_CHARGES

@<TRIPOS>ATOM
      1 C1         -3.0730    2.2881   -4.2693 C.3       1 <0>        -0.1569
      2 C2         -2.3049    1.5870   -3.1471 C.3       1 <0>        -0.1270
      3 C3         -2.8110    2.0874   -1.7927 C.3       1 <0>        -0.1231
      4 C4         -2.0429    1.3862   -0.6705 C.3       1 <0>        -0.1174
      5 C5         -2.5490    1.8867    0.6839 C.3       1 <0>        -0.1006
      6 C6         -2.2117    3.3722    0.8391 C.3       1 <0>        -0.1451
      7 C7         -2.6658    3.8518    2.2196 C.3       1 <0>        -0.0114
      8 C8         -2.3347    1.6429    3.1595 C.3       1 <0>        -0.0001
      9 C9         -1.8707    1.0973    1.8070 C.3       1 <0>        -0.1442
     10 C10        -2.2939    3.5901    4.5974 C.3       1 <0>        -0.0052
     11 C11        -2.1583    5.1140    4.5919 C.3       1 <0>        -0.1459
     12 C12        -2.4764    5.6593    5.9856 C.3       1 <0>        -0.1543
     13 C13        -2.3428    7.1604    5.9803 C.2       1 <0>         0.3987
     14 O1         -2.0245    7.7371    4.9623 O.2       1 <0>        -0.4456
     15 C14        -2.5986    7.9263    7.2106 C.ar      1 <0>        -0.1885
     16 C15        -3.0878    7.2813    8.3513 C.ar      1 <0>        -0.0705
     17 C16        -3.3195    8.0047    9.5018 C.ar      1 <0>        -0.1389
     18 C17        -3.0801    9.3679    9.5265 C.ar      1 <0>        -0.0729
     19 C18        -2.6016   10.0143    8.4004 C.ar      1 <0>        -0.1345
     20 C19        -2.3594    9.3036    7.2436 C.ar      1 <0>        -0.0178
     21 C20        -1.8387   10.0095    6.0182 C.3       1 <0>        -0.1264
     22 H1         -4.1363    2.0676   -4.1746 H         1 <0>         0.0549
     23 H2         -2.9175    3.3647   -4.1985 H         1 <0>         0.0540
     24 H3         -2.7125    1.9316   -5.2342 H         1 <0>         0.0581
     25 H4         -1.2417    1.8075   -3.2417 H         1 <0>         0.0621
     26 H5         -2.4605    0.5104   -3.2179 H         1 <0>         0.0631
     27 H6         -3.8743    1.8669   -1.6981 H         1 <0>         0.0644
     28 H7         -2.6555    3.1639   -1.7219 H         1 <0>         0.0632
     29 H8         -2.1984    0.3097   -0.7413 H         1 <0>         0.0733
     30 H9         -0.9796    1.6067   -0.7651 H         1 <0>         0.0688
     31 H10        -3.6287    1.7492    0.7427 H         1 <0>         0.0884
     32 H11        -1.1354    3.5132    0.7407 H         1 <0>         0.0881
     33 H12        -2.7264    3.9447    0.0675 H         1 <0>         0.1133
     34 H13        -3.7442    3.7233    2.3122 H         1 <0>         0.1295
     35 H14        -2.4142    4.9057    2.3388 H         1 <0>         0.1342
     36 H15        -3.4146    1.5248    3.2476 H         1 <0>         0.1293
     37 H16        -1.8426    1.0924    3.9613 H         1 <0>         0.1282
     38 H17        -2.1418    0.0446    1.7270 H         1 <0>         0.1118
     39 H18        -0.7890    1.2025    1.7239 H         1 <0>         0.0880
     40 H19        -3.3133    3.3170    4.8704 H         1 <0>         0.1315
     41 H20        -1.5979    3.1659    5.3211 H         1 <0>         0.1302
     42 H21        -1.1389    5.3871    4.3190 H         1 <0>         0.0944
     43 H22        -2.8542    5.5382    3.8682 H         1 <0>         0.0968
     44 H23        -3.4115    5.4088    6.2361 H         1 <0>         0.0981
     45 H24        -1.7805    5.2352    6.7093 H         1 <0>         0.1100
     46 H25        -3.2793    6.2186    8.3321 H         1 <0>         0.1290
     47 H26        -3.6933    7.5074   10.3846 H         1 <0>         0.1322
     48 H27        -3.2682    9.9300   10.4293 H         1 <0>         0.1326
     49 H28        -2.4176   11.0782    8.4274 H         1 <0>         0.1332
     50 H29        -2.6709   10.2515    5.3572 H         1 <0>         0.0784
     51 H30        -1.3321   10.9277    6.3156 H         1 <0>         0.0652
     52 H31        -1.1365    9.3600    5.4956 H         1 <0>         0.0893
     53 N1         -1.9588    3.0696    3.2558 N.4       1 <0>        -0.3931
     54 H32        -0.9467    3.1581    3.1071 H         1 <0>         0.4272
@<TRIPOS>BOND
     1    1    2 1
     2    1   22 1
     3    1   23 1
     4    1   24 1
     5    2    3 1
     6    2   25 1
     7    2   26 1
     8    3    4 1
     9    3   27 1
    10    3   28 1
    11    4    5 1
    12    4   29 1
    13    4   30 1
    14    5    9 1
    15    5    6 1
    16    5   31 1
    17    6    7 1
    18    6   32 1
    19    6   33 1
    20    7   34 1
    21    7   35 1
    22    7   53 1
    23    8    9 1
    24    8   36 1
    25    8   37 1
    26    8   53 1
    27    9   38 1
    28    9   39 1
    29   10   11 1
    30   10   40 1
    31   10   41 1
    32   10   53 1
    33   11   12 1
    34   11   42 1
    35   11   43 1
    36   12   13 1
    37   12   44 1
    38   12   45 1
    39   13   14 2
    40   13   15 1
    41   15   20 ar
    42   15   16 ar
    43   16   17 ar
    44   16   46 1
    45   17   18 ar
    46   17   47 1
    47   18   19 ar
    48   18   48 1
    49   19   20 ar
    50   19   49 1
    51   20   21 1
    52   21   50 1
    53   21   51 1
    54   21   52 1
    55   53   54 1
@<TRIPOS>MOLECULE
ZINC02516022
   32    32     0     0     0
SMALL
USER_CHARGES

@<TRIPOS>ATOM
      1 C1          0.3388    1.5532   -0.3086 C.3       1 <0>        -0.1547
      2 C2          0.2600    0.0293   -0.1965 C.3       1 <0>         0.0410
      3 H1         -0.7802   -0.2950   -0.1665 H         1 <0>         0.0876
      4 C3          0.9967   -0.6357   -1.3804 C.3       1 <0>         0.0764
      5 H2          1.7493    0.0385   -1.7892 H         1 <0>         0.0826
      6 C4          1.6669   -1.8794   -0.7546 C.3       1 <0>        -0.1422
      7 C5          1.2558   -1.8186    0.7333 C.3       1 <0>         0.0485
      8 H3          0.3688   -2.4278    0.9070 H         1 <0>         0.0956
      9 O1          0.9626   -0.4252    0.9806 O.3       1 <0>        -0.3661
     10 C6          2.4072   -2.2900    1.6237 C.3       1 <0>        -0.0004
     11 N1          1.9433   -2.3862    3.0141 N.4       1 <0>        -0.2703
     12 C7          0.8951   -3.4108    3.1108 C.3       1 <0>        -0.0519
     13 C8          3.0698   -2.7548    3.8819 C.3       1 <0>        -0.0450
     14 C9          1.4009   -1.0892    3.4403 C.3       1 <0>        -0.0444
     15 O2          0.0676   -1.0216   -2.3952 O.3       1 <0>        -0.5551
     16 H4          1.3838    1.8628   -0.3250 H         1 <0>         0.0696
     17 H5         -0.1501    1.8756   -1.2279 H         1 <0>         0.0797
     18 H6         -0.1612    2.0067    0.5472 H         1 <0>         0.0718
     19 H7          1.2892   -2.7907   -1.2183 H         1 <0>         0.1053
     20 H8          2.7507   -1.8200   -0.8541 H         1 <0>         0.0963
     21 H9          2.7503   -3.2681    1.2866 H         1 <0>         0.1420
     22 H10         3.2288   -1.5762    1.5634 H         1 <0>         0.1379
     23 H11         1.2975   -4.3732    2.7946 H         1 <0>         0.1227
     24 H12         0.5508   -3.4823    4.1425 H         1 <0>         0.1247
     25 H13         0.0592   -3.1373    2.4669 H         1 <0>         0.1205
     26 H14         3.8476   -1.9945    3.8102 H         1 <0>         0.1217
     27 H15         2.7256   -2.8262    4.9136 H         1 <0>         0.1236
     28 H16         3.4723   -3.7172    3.5657 H         1 <0>         0.1213
     29 H17         0.4767   -0.8864    2.8992 H         1 <0>         0.1324
     30 H18         1.1972   -1.1146    4.5107 H         1 <0>         0.1162
     31 H19         2.1265   -0.3042    3.2270 H         1 <0>         0.1220
     32 H20        -0.4239   -0.2829   -2.7799 H         1 <0>         0.3910
@<TRIPOS>BOND
     1    1    2 1
     2    1   16 1
     3    1   17 1
     4    1   18 1
     5    2    3 1
     6    2    9 1
     7    2    4 1
     8    4    5 1
     9    4    6 1
    10    4   15 1
    11    6    7 1
    12    6   19 1
    13    6   20 1
    14    7    8 1
    15    7    9 1
    16    7   10 1
    17   10   11 1
    18   10   21 1
    19   10   22 1
    20   11   12 1
    21   11   13 1
    22   11   14 1
    23   12   23 1
    24   12   24 1
    25   12   25 1
    26   13   26 1
    27   13   27 1
    28   13   28 1
    29   14   29 1
    30   14   30 1
    31   14   31 1
    32   15   32 1
@<TRIPOS>MOLECULE
ZINC00057478
   49    52     0     0     0
SMALL
USER_CHARGES
quinuclidin-3-yl 2-hydroxy-2,2-diphenyl-acetate
@<TRIPOS>ATOM
      1 C1          1.4720    2.0015    1.7120 C.ar      1 <0>        -0.1030
      2 C2          1.8758    1.1616    0.6910 C.ar      1 <0>        -0.1147
      3 C3          0.9814    0.2625    0.1411 C.ar      1 <0>        -0.1168
      4 C4         -0.3174    0.2046    0.6107 C.ar      1 <0>        -0.0905
      5 C5         -0.7218    1.0457    1.6304 C.ar      1 <0>        -0.0762
      6 C6          0.1729    1.9442    2.1811 C.ar      1 <0>        -0.1166
      7 C7         -1.2926   -0.7753    0.0108 C.3       1 <0>         0.2533
      8 C8         -1.0593   -2.1418    0.6016 C.ar      1 <0>        -0.1288
      9 C9          0.1993   -2.7112    0.5507 C.ar      1 <0>        -0.0766
     10 C10         0.4144   -3.9627    1.0970 C.ar      1 <0>        -0.1190
     11 C11        -0.6315   -4.6493    1.6848 C.ar      1 <0>        -0.1004
     12 C12        -1.8913   -4.0821    1.7311 C.ar      1 <0>        -0.1192
     13 C13        -2.1052   -2.8284    1.1895 C.ar      1 <0>        -0.1020
     14 C14        -1.0930   -0.8326   -1.4818 C.2       1 <0>         0.4468
     15 O1         -0.3846   -1.6842   -1.9644 O.2       1 <0>        -0.4737
     16 O2         -1.7023    0.0624   -2.2753 O.3       1 <0>        -0.3270
     17 C15        -1.4646   -0.0529   -3.7030 C.3       1 <0>         0.0725
     18 H1         -0.4745   -0.4748   -3.8756 H         1 <0>         0.1215
     19 C16        -2.5281   -0.9599   -4.3287 C.3       1 <0>        -0.0183
     20 C17        -3.9834    0.9338   -4.7344 C.3       1 <0>        -0.0019
     21 C18        -2.9614    1.8944   -4.1200 C.3       1 <0>        -0.1364
     22 C19        -1.5526    1.3339   -4.3524 C.3       1 <0>        -0.0967
     23 C20        -1.3293    1.1822   -5.8624 C.3       1 <0>        -0.1347
     24 C21        -2.3971    0.2417   -6.4281 C.3       1 <0>        -0.0048
     25 O3         -2.6278   -0.3542    0.2970 O.3       1 <0>        -0.5211
     26 H2          2.1710    2.7035    2.1422 H         1 <0>         0.1300
     27 H3          2.8907    1.2067    0.3243 H         1 <0>         0.1296
     28 H4          1.2986   -0.3978   -0.6525 H         1 <0>         0.1211
     29 H5         -1.7366    1.0007    1.9971 H         1 <0>         0.1361
     30 H6         -0.1430    2.6012    2.9780 H         1 <0>         0.1315
     31 H7          1.0154   -2.1766    0.0875 H         1 <0>         0.1253
     32 H8          1.3986   -4.4059    1.0606 H         1 <0>         0.1293
     33 H9         -0.4645   -5.6289    2.1077 H         1 <0>         0.1293
     34 H10        -2.7085   -4.6187    2.1901 H         1 <0>         0.1301
     35 H11        -3.0896   -2.3855    1.2253 H         1 <0>         0.1281
     36 H12        -2.0448   -1.8163   -4.7988 H         1 <0>         0.1413
     37 H13        -3.2111   -1.3076   -3.5536 H         1 <0>         0.1353
     38 H14        -4.6564    0.5726   -3.9568 H         1 <0>         0.1295
     39 H15        -4.5584    1.4553   -5.4996 H         1 <0>         0.1320
     40 H16        -3.1453    1.9877   -3.0497 H         1 <0>         0.1099
     41 H17        -3.0475    2.8731   -4.5920 H         1 <0>         0.1050
     42 H18        -0.8077    1.9998   -3.9167 H         1 <0>         0.1257
     43 H19        -1.4096    2.1571   -6.3432 H         1 <0>         0.1124
     44 H20        -0.3398    0.7631   -6.0450 H         1 <0>         0.1043
     45 H21        -1.9153   -0.6235   -6.8837 H         1 <0>         0.1309
     46 H22        -2.9849    0.7684   -7.1799 H         1 <0>         0.1343
     47 H23        -3.3099   -0.9395   -0.0598 H         1 <0>         0.3849
     48 N1         -3.2990   -0.2219   -5.3524 N.4       1 <0>        -0.3882
     49 H24        -4.0038   -0.8501   -5.7559 H         1 <0>         0.4368
@<TRIPOS>BOND
     1    1    6 ar
     2    1    2 ar
     3    1   26 1
     4    2    3 ar
     5    2   27 1
     6    3    4 ar
     7    3   28 1
     8    4    5 ar
     9    4    7 1
    10    5    6 ar
    11    5   29 1
    12    6   30 1
    13    7    8 1
    14    7   14 1
    15    7   25 1
    16    8   13 ar
    17    8    9 ar
    18    9   10 ar
    19    9   31 1
    20   10   11 ar
    21   10   32 1
    22   11   12 ar
    23   11   33 1
    24   12   13 ar
    25   12   34 1
    26   13   35 1
    27   14   15 2
    28   14   16 1
    29   16   17 1
    30   17   18 1
    31   17   22 1
    32   17   19 1
    33   19   36 1
    34   19   37 1
    35   19   48 1
    36   20   21 1
    37   20   38 1
    38   20   39 1
    39   20   48 1
    40   21   22 1
    41   21   40 1
    42   21   41 1
    43   22   23 1
    44   22   42 1
    45   23   24 1
    46   23   43 1
    47   23   44 1
    48   24   45 1
    49   24   46 1
    50   24   48 1
    51   25   47 1
    52   48   49 1
@<TRIPOS>MOLECULE
ZINC00057479
   49    52     0     0     0
SMALL
USER_CHARGES
quinuclidin-3-yl 2-hydroxy-2,2-diphenyl-acetate
@<TRIPOS>ATOM
      1 C1          0.1683   -0.8233   -3.3647 C.ar      1 <0>        -0.1003
      2 C2         -0.5192   -0.9452   -2.1717 C.ar      1 <0>        -0.1206
      3 C3         -0.1575   -0.1733   -1.0835 C.ar      1 <0>        -0.0993
      4 C4          0.8920    0.7203   -1.1882 C.ar      1 <0>        -0.1324
      5 C5          1.5761    0.8460   -2.3828 C.ar      1 <0>        -0.0766
      6 C6          1.2172    0.0709   -3.4697 C.ar      1 <0>        -0.1211
      7 C7          1.2864    1.5618   -0.0018 C.3       1 <0>         0.2537
      8 C8          1.0779    3.0183   -0.3276 C.ar      1 <0>        -0.0915
      9 C9          1.9720    3.6773   -1.1505 C.ar      1 <0>        -0.1148
     10 C10         1.7784    5.0122   -1.4529 C.ar      1 <0>        -0.1150
     11 C11         0.6958    5.6905   -0.9250 C.ar      1 <0>        -0.1030
     12 C12        -0.1954    5.0328   -0.0978 C.ar      1 <0>        -0.1175
     13 C13        -0.0042    3.6968    0.2010 C.ar      1 <0>        -0.0769
     14 C14         2.7383    1.3225    0.3233 C.2       1 <0>         0.4475
     15 O1          3.4953    0.9410   -0.5376 O.2       1 <0>        -0.4746
     16 O2          3.1905    1.5333    1.5694 O.3       1 <0>        -0.3268
     17 C15         4.6003    1.2824    1.8103 C.3       1 <0>         0.0725
     18 H1          5.1660    1.4714    0.8980 H         1 <0>         0.1212
     19 C16         4.7957   -0.1736    2.2430 C.3       1 <0>        -0.0183
     20 C17         6.7236    0.4252    3.5821 C.3       1 <0>        -0.0050
     21 C18         6.5842    1.9003    3.1846 C.3       1 <0>        -0.1343
     22 C19         5.1031    2.2054    2.9275 C.3       1 <0>        -0.0961
     23 C20         4.3106    1.8963    4.2073 C.3       1 <0>        -0.1364
     24 C21         4.5144    0.4236    4.5738 C.3       1 <0>        -0.0018
     25 O3          0.4812    1.2054    1.1237 O.3       1 <0>        -0.5215
     26 H2         -0.1138   -1.4269   -4.2147 H         1 <0>         0.1288
     27 H3         -1.3387   -1.6439   -2.0896 H         1 <0>         0.1300
     28 H4         -0.6946   -0.2686   -0.1514 H         1 <0>         0.1308
     29 H5          2.3932    1.5473   -2.4659 H         1 <0>         0.1272
     30 H6          1.7546    0.1660   -4.4017 H         1 <0>         0.1287
     31 H7          2.8200    3.1484   -1.5599 H         1 <0>         0.1216
     32 H8          2.4745    5.5259   -2.0994 H         1 <0>         0.1296
     33 H9          0.5460    6.7341   -1.1590 H         1 <0>         0.1298
     34 H10        -1.0413    5.5627    0.3146 H         1 <0>         0.1313
     35 H11        -0.7005    3.1830    0.8472 H         1 <0>         0.1367
     36 H12         3.8303   -0.6791    2.2650 H         1 <0>         0.1352
     37 H13         5.4542   -0.6778    1.5357 H         1 <0>         0.1413
     38 H14         7.1600    0.3561    4.5785 H         1 <0>         0.1344
     39 H15         7.3687   -0.0837    2.8660 H         1 <0>         0.1308
     40 H16         7.1588    2.0893    2.2779 H         1 <0>         0.1040
     41 H17         6.9534    2.5353    3.9899 H         1 <0>         0.1126
     42 H18         4.9674    3.2484    2.6414 H         1 <0>         0.1260
     43 H19         3.2513    2.0866    4.0350 H         1 <0>         0.1099
     44 H20         4.6675    2.5279    5.0208 H         1 <0>         0.1048
     45 H21         3.5511   -0.0864    4.5797 H         1 <0>         0.1294
     46 H22         4.9688    0.3540    5.5622 H         1 <0>         0.1320
     47 H23         0.5651    0.2796    1.3900 H         1 <0>         0.3858
     48 N1          5.4008   -0.2351    3.5909 N.4       1 <0>        -0.3881
     49 H24         5.5211   -1.2193    3.8576 H         1 <0>         0.4368
@<TRIPOS>BOND
     1    1    6 ar
     2    1    2 ar
     3    1   26 1
     4    2    3 ar
     5    2   27 1
     6    3    4 ar
     7    3   28 1
     8    4    5 ar
     9    4    7 1
    10    5    6 ar
    11    5   29 1
    12    6   30 1
    13    7    8 1
    14    7   14 1
    15    7   25 1
    16    8   13 ar
    17    8    9 ar
    18    9   10 ar
    19    9   31 1
    20   10   11 ar
    21   10   32 1
    22   11   12 ar
    23   11   33 1
    24   12   13 ar
    25   12   34 1
    26   13   35 1
    27   14   15 2
    28   14   16 1
    29   16   17 1
    30   17   18 1
    31   17   22 1
    32   17   19 1
    33   19   36 1
    34   19   37 1
    35   19   48 1
    36   20   21 1
    37   20   38 1
    38   20   39 1
    39   20   48 1
    40   21   22 1
    41   21   40 1
    42   21   41 1
    43   22   23 1
    44   22   42 1
    45   23   24 1
    46   23   43 1
    47   23   44 1
    48   24   45 1
    49   24   46 1
    50   24   48 1
    51   25   47 1
    52   48   49 1
@<TRIPOS>MOLECULE
ZINC01996117
   63    67     0     0     0
SMALL
USER_CHARGES

@<TRIPOS>ATOM
      1 C1          6.2679   -0.9746   -3.4775 C.ar      1 <0>        -0.1035
      2 C2          6.2774    0.1494   -2.6728 C.ar      1 <0>        -0.1058
      3 C3          5.4460    0.2173   -1.5705 C.ar      1 <0>        -0.1005
      4 C4          4.6049   -0.8386   -1.2731 C.ar      1 <0>        -0.1025
      5 C5          4.5947   -1.9622   -2.0782 C.ar      1 <0>        -0.1272
      6 C6          5.4271   -2.0307   -3.1798 C.ar      1 <0>        -0.1102
      7 C7          3.6993   -0.7650   -0.0708 C.3       1 <0>         0.0236
      8 C8          2.6283    0.2677   -0.3111 C.ar      1 <0>        -0.0909
      9 C9          2.5129    0.8682   -1.5508 C.ar      1 <0>        -0.0999
     10 C10         1.5305    1.8154   -1.7712 C.ar      1 <0>        -0.1205
     11 C11         0.6633    2.1618   -0.7520 C.ar      1 <0>        -0.1024
     12 C12         0.7781    1.5607    0.4875 C.ar      1 <0>        -0.1224
     13 C13         1.7578    0.6103    0.7066 C.ar      1 <0>        -0.0890
     14 C14         3.0485   -2.1300    0.1619 C.3       1 <0>        -0.0907
     15 H1          2.4325   -2.4056   -0.6941 H         1 <0>         0.1334
     16 C15         2.1954   -2.1050    1.4509 C.3       1 <0>        -0.1547
     17 C16         2.4706   -3.4959    2.0755 C.3       1 <0>        -0.0075
     18 N1          3.9085   -3.7227    1.7802 N.4       1 <0>        -0.3960
     19 C17         4.1269   -3.2007    0.4113 C.3       1 <0>        -0.0193
     20 C18         4.2152   -5.1585    1.8284 C.3       1 <0>        -0.0052
     21 C19         4.0516   -5.6671    3.2621 C.3       1 <0>        -0.0913
     22 C20         4.3663   -7.1400    3.3116 C.ar      1 <0>        -0.1400
     23 C21         3.3641   -8.0709    3.1080 C.ar      1 <0>        -0.0707
     24 C22         3.6475   -9.4201    3.1480 C.ar      1 <0>        -0.1359
     25 C23         4.9469   -9.8570    3.3944 C.ar      1 <0>         0.1259
     26 C24         5.9434   -8.9127    3.6046 C.ar      1 <0>        -0.1703
     27 C25         5.6599   -7.5657    3.5551 C.ar      1 <0>        -0.0581
     28 C26         7.2284   -9.6738    3.8681 C.3       1 <0>        -0.1145
     29 C27         6.7019  -11.0988    4.1605 C.3       1 <0>         0.0488
     30 O1          5.4442  -11.1223    3.4644 O.3       1 <0>        -0.2994
     31 C28         4.5056   -0.3795    1.1426 C.2       1 <0>         0.5197
     32 O2          4.1054    0.4924    1.8847 O.2       1 <0>        -0.4969
     33 N2          5.6714   -1.0036    1.4031 N.am      1 <0>        -0.8651
     34 H2          6.9142   -1.0258   -4.3412 H         1 <0>         0.1309
     35 H3          6.9346    0.9743   -2.9052 H         1 <0>         0.1313
     36 H4          5.4539    1.0951   -0.9414 H         1 <0>         0.1238
     37 H5          3.9381   -2.7874   -1.8455 H         1 <0>         0.1247
     38 H6          5.4195   -2.9087   -3.8086 H         1 <0>         0.1306
     39 H7          3.1904    0.5975   -2.3471 H         1 <0>         0.1262
     40 H8          1.4408    2.2851   -2.7396 H         1 <0>         0.1264
     41 H9         -0.1038    2.9024   -0.9240 H         1 <0>         0.1267
     42 H10         0.1008    1.8317    1.2839 H         1 <0>         0.1264
     43 H11         1.8452    0.1380    1.6739 H         1 <0>         0.1274
     44 H12         2.5281   -1.3099    2.1182 H         1 <0>         0.1084
     45 H13         1.1380   -1.9920    1.2116 H         1 <0>         0.1282
     46 H14         2.2974   -3.4756    3.1515 H         1 <0>         0.1396
     47 H15         1.8551   -4.2597    1.6001 H         1 <0>         0.1404
     48 H16         4.0251   -4.0065   -0.3156 H         1 <0>         0.1453
     49 H17         5.1182   -2.7535    0.3375 H         1 <0>         0.1318
     50 H18         3.5330   -5.6980    1.1714 H         1 <0>         0.1343
     51 H19         5.2415   -5.3220    1.4998 H         1 <0>         0.1314
     52 H20         4.7338   -5.1275    3.9191 H         1 <0>         0.0929
     53 H21         3.0253   -5.5036    3.5907 H         1 <0>         0.0956
     54 H22         2.3540   -7.7396    2.9170 H         1 <0>         0.1333
     55 H23         2.8591  -10.1405    2.9875 H         1 <0>         0.1358
     56 H24         6.4466   -6.8421    3.7101 H         1 <0>         0.1264
     57 H25         7.8714   -9.6690    2.9880 H         1 <0>         0.0954
     58 H26         7.7517   -9.2667    4.7333 H         1 <0>         0.0968
     59 H27         7.3802  -11.8512    3.7580 H         1 <0>         0.1142
     60 H28         6.5538  -11.2438    5.2306 H         1 <0>         0.0839
     61 H29         6.0369   -1.6350    0.7639 H         1 <0>         0.3981
     62 H30         6.1448   -0.8214    2.2299 H         1 <0>         0.4099
     63 H31         4.4827   -3.2205    2.4406 H         1 <0>         0.4229
@<TRIPOS>BOND
     1    1    6 ar
     2    1    2 ar
     3    1   34 1
     4    2    3 ar
     5    2   35 1
     6    3    4 ar
     7    3   36 1
     8    4    5 ar
     9    4    7 1
    10    5    6 ar
    11    5   37 1
    12    6   38 1
    13    7    8 1
    14    7   14 1
    15    7   31 1
    16    8   13 ar
    17    8    9 ar
    18    9   10 ar
    19    9   39 1
    20   10   11 ar
    21   10   40 1
    22   11   12 ar
    23   11   41 1
    24   12   13 ar
    25   12   42 1
    26   13   43 1
    27   14   15 1
    28   14   19 1
    29   14   16 1
    30   16   17 1
    31   16   44 1
    32   16   45 1
    33   17   18 1
    34   17   46 1
    35   17   47 1
    36   18   19 1
    37   18   20 1
    38   18   63 1
    39   19   48 1
    40   19   49 1
    41   20   21 1
    42   20   50 1
    43   20   51 1
    44   21   22 1
    45   21   52 1
    46   21   53 1
    47   22   27 ar
    48   22   23 ar
    49   23   24 ar
    50   23   54 1
    51   24   25 ar
    52   24   55 1
    53   25   30 1
    54   25   26 ar
    55   26   27 ar
    56   26   28 1
    57   27   56 1
    58   28   29 1
    59   28   57 1
    60   28   58 1
    61   29   30 1
    62   29   59 1
    63   29   60 1
    64   31   32 2
    65   31   33 am
    66   33   61 1
    67   33   62 1
@<TRIPOS>MOLECULE
ZINC53041013
   29    30     0     0     0
SMALL
USER_CHARGES

@<TRIPOS>ATOM
      1 C1         -0.0173    1.4248    0.0099 C.3       1 <0>         0.0385
      2 O1          0.0021   -0.0041    0.0020 O.3       1 <0>        -0.2283
      3 N1         -1.2835   -0.5976    0.0111 N.2       1 <0>        -0.2778
      4 C2         -1.4013   -1.8863    0.0053 C.2       1 <0>         0.2326
      5 C3         -0.2316   -2.7122   -0.0103 C.1       1 <0>         0.2101
      6 N2          0.6964   -3.3673   -0.0227 N.1       1 <0>        -0.3662
      7 C4         -2.7695   -2.5179    0.0150 C.3       1 <0>        -0.0589
      8 H1         -2.8462   -3.2104    0.8533 H         1 <0>         0.1104
      9 C5         -3.8369   -1.4281    0.1502 C.3       1 <0>         0.0530
     10 N3         -4.7228   -1.4658   -1.0211 N.3       1 <0>        -0.5245
     11 C6         -3.9767   -1.1890   -2.2564 C.3       1 <0>         0.0535
     12 C7         -2.9127   -2.2713   -2.4599 C.3       1 <0>        -0.1531
     13 C8         -2.9953   -3.2754   -1.2996 C.3       1 <0>        -0.0825
     14 C9         -4.4038   -3.8826   -1.2786 C.3       1 <0>        -0.1472
     15 C10        -5.4271   -2.7524   -1.1092 C.3       1 <0>         0.0481
     16 H2          1.0053    1.8021    0.0021 H         1 <0>         0.1031
     17 H3         -0.5445    1.7859   -0.8732 H         1 <0>         0.0574
     18 H4         -0.5275    1.7763    0.9067 H         1 <0>         0.0581
     19 H5         -4.4213   -1.6016    1.0538 H         1 <0>         0.0881
     20 H6         -3.3548   -0.4524    0.2103 H         1 <0>         0.1042
     21 H7         -4.6627   -1.1896   -3.1035 H         1 <0>         0.0787
     22 H8         -3.4943   -0.2146   -2.1793 H         1 <0>         0.0786
     23 H9         -3.0929   -2.7879   -3.4026 H         1 <0>         0.0726
     24 H10        -1.9239   -1.8129   -2.4757 H         1 <0>         0.0625
     25 H11        -2.2409   -4.0532   -1.4183 H         1 <0>         0.0837
     26 H12        -4.5891   -4.4075   -2.2157 H         1 <0>         0.0738
     27 H13        -4.4888   -4.5792   -0.4446 H         1 <0>         0.0717
     28 H14        -6.0005   -2.9164   -0.1969 H         1 <0>         0.0802
     29 H15        -6.1013   -2.7400   -1.9656 H         1 <0>         0.0794
@<TRIPOS>BOND
     1    1    2 1
     2    1   16 1
     3    1   17 1
     4    1   18 1
     5    2    3 1
     6    3    4 2
     7    4    5 1
     8    4    7 1
     9    5    6 3
    10    7    8 1
    11    7   13 1
    12    7    9 1
    13    9   10 1
    14    9   19 1
    15    9   20 1
    16   10   15 1
    17   10   11 1
    18   11   12 1
    19   11   21 1
    20   11   22 1
    21   12   13 1
    22   12   23 1
    23   12   24 1
    24   13   14 1
    25   13   25 1
    26   14   15 1
    27   14   26 1
    28   14   27 1
    29   15   28 1
    30   15   29 1
@<TRIPOS>MOLECULE
ZINC00968336
   56    57     0     0     0
SMALL
USER_CHARGES

@<TRIPOS>ATOM
      1 C1          2.4412    1.0226    2.8896 C.3       1 <0>        -0.1195
      2 C2          1.9321   -0.3816    2.6890 C.ar      1 <0>        -0.0860
      3 C3          2.2025   -1.0521    1.5102 C.ar      1 <0>        -0.0980
      4 C4          1.7366   -2.3390    1.3238 C.ar      1 <0>        -0.1336
      5 C5          0.9971   -2.9590    2.3208 C.ar      1 <0>         0.1081
      6 C6          0.7276   -2.2845    3.5025 C.ar      1 <0>        -0.1060
      7 C7          1.2003   -0.9992    3.6861 C.ar      1 <0>        -0.1038
      8 C8         -0.0753   -2.9549    4.5873 C.3       1 <0>         0.0055
      9 H1         -0.4621   -3.9050    4.2187 H         1 <0>         0.1034
     10 C9         -1.2423   -2.0512    4.9906 C.3       1 <0>        -0.1451
     11 C10        -2.1281   -2.7827    6.0011 C.3       1 <0>        -0.0271
     12 N1         -3.3197   -1.9717    6.2849 N.4       1 <0>        -0.3808
     13 C11        -4.2493   -2.7431    7.1207 C.3       1 <0>         0.0221
     14 C12        -5.5502   -1.9570    7.2958 C.3       1 <0>        -0.1831
     15 C13        -4.5500   -4.0830    6.4460 C.3       1 <0>        -0.1853
     16 C14        -2.9220   -0.7489    6.9951 C.3       1 <0>         0.0164
     17 C15        -1.6530   -1.0198    7.8058 C.3       1 <0>        -0.1933
     18 C16        -2.6515    0.3647    5.9814 C.3       1 <0>        -0.1958
     19 C17         0.8058   -3.2019    5.7847 C.ar      1 <0>        -0.0910
     20 C18         1.2808   -2.1355    6.5250 C.ar      1 <0>        -0.1234
     21 C19         2.0891   -2.3620    7.6233 C.ar      1 <0>        -0.1125
     22 C20         2.4220   -3.6549    7.9815 C.ar      1 <0>        -0.1133
     23 C21         1.9462   -4.7214    7.2418 C.ar      1 <0>        -0.1102
     24 C22         1.1345   -4.4950    6.1460 C.ar      1 <0>        -0.1148
     25 O1          0.5372   -4.2249    2.1396 O.3       1 <0>        -0.4973
     26 H2          3.4315    0.9886    3.3438 H         1 <0>         0.0751
     27 H3          2.5007    1.5286    1.9259 H         1 <0>         0.0718
     28 H4          1.7598    1.5662    3.5439 H         1 <0>         0.0662
     29 H5          2.7781   -0.5690    0.7346 H         1 <0>         0.1310
     30 H6          1.9474   -2.8620    0.4027 H         1 <0>         0.1335
     31 H7          0.9942   -0.4751    4.6076 H         1 <0>         0.1224
     32 H8         -0.8552   -1.1374    5.4412 H         1 <0>         0.0993
     33 H9         -1.8295   -1.8003    4.1073 H         1 <0>         0.0930
     34 H10        -2.4330   -3.7442    5.5880 H         1 <0>         0.1355
     35 H11        -1.5703   -2.9439    6.9235 H         1 <0>         0.1395
     36 H12        -3.7981   -2.9210    8.0969 H         1 <0>         0.1344
     37 H13        -6.0337   -1.8342    6.3266 H         1 <0>         0.0821
     38 H14        -6.2152   -2.4999    7.9674 H         1 <0>         0.1060
     39 H15        -5.3284   -0.9769    7.7180 H         1 <0>         0.0803
     40 H16        -5.0012   -3.9051    5.4699 H         1 <0>         0.0816
     41 H17        -3.6233   -4.6431    6.3213 H         1 <0>         0.0831
     42 H18        -5.2398   -4.6554    7.0662 H         1 <0>         0.1054
     43 H19        -3.7236   -0.4419    7.6669 H         1 <0>         0.1390
     44 H20        -0.8183   -1.1939    7.1268 H         1 <0>         0.0923
     45 H21        -1.4343   -0.1585    8.4370 H         1 <0>         0.1025
     46 H22        -1.8024   -1.9000    8.4312 H         1 <0>         0.0786
     47 H23        -3.5595    0.5673    5.4134 H         1 <0>         0.0821
     48 H24        -2.3429    1.2680    6.5076 H         1 <0>         0.1057
     49 H25        -1.8595    0.0520    5.3009 H         1 <0>         0.0892
     50 H26         1.0207   -1.1253    6.2451 H         1 <0>         0.1201
     51 H27         2.4608   -1.5288    8.2012 H         1 <0>         0.1255
     52 H28         3.0540   -3.8319    8.8392 H         1 <0>         0.1264
     53 H29         2.2066   -5.7315    7.5215 H         1 <0>         0.1270
     54 H30         0.7597   -5.3284    5.5702 H         1 <0>         0.1239
     55 H31         1.1480   -4.9120    2.4395 H         1 <0>         0.3924
     56 H32        -3.7728   -1.7248    5.4178 H         1 <0>         0.4196
@<TRIPOS>BOND
     1    1    2 1
     2    1   26 1
     3    1   27 1
     4    1   28 1
     5    2    7 ar
     6    2    3 ar
     7    3    4 ar
     8    3   29 1
     9    4    5 ar
    10    4   30 1
    11    5    6 ar
    12    5   25 1
    13    6    7 ar
    14    6    8 1
    15    7   31 1
    16    8    9 1
    17    8   10 1
    18    8   19 1
    19   10   11 1
    20   10   32 1
    21   10   33 1
    22   11   12 1
    23   11   34 1
    24   11   35 1
    25   12   13 1
    26   12   16 1
    27   12   56 1
    28   13   14 1
    29   13   15 1
    30   13   36 1
    31   14   37 1
    32   14   38 1
    33   14   39 1
    34   15   40 1
    35   15   41 1
    36   15   42 1
    37   16   17 1
    38   16   18 1
    39   16   43 1
    40   17   44 1
    41   17   45 1
    42   17   46 1
    43   18   47 1
    44   18   48 1
    45   18   49 1
    46   19   24 ar
    47   19   20 ar
    48   20   21 ar
    49   20   50 1
    50   21   22 ar
    51   21   51 1
    52   22   23 ar
    53   22   52 1
    54   23   24 ar
    55   23   53 1
    56   24   54 1
    57   25   55 1
@<TRIPOS>MOLECULE
ZINC03079342
   25    24     0     0     0
SMALL
USER_CHARGES

@<TRIPOS>ATOM
      1 C1          0.5385    1.3265   -0.0156 C.3       1 <0>        -0.0552
      2 N1          0.0207   -0.0467    0.0478 N.4       1 <0>        -0.2722
      3 C2          0.5070   -0.6974    1.2718 C.3       1 <0>        -0.0471
      4 C3         -1.4480   -0.0161    0.0600 C.3       1 <0>        -0.0454
      5 C4          0.4850   -0.7999   -1.1248 C.3       1 <0>        -0.0017
      6 C5          2.0115   -0.7313   -1.2033 C.3       1 <0>         0.0515
      7 O1          2.5777   -1.4543   -0.1084 O.3       1 <0>        -0.3772
      8 C6          3.9213   -1.4920   -0.0303 C.2       1 <0>         0.6511
      9 O2          4.5947   -0.9264   -0.8688 O.2       1 <0>        -0.5552
     10 N2          4.5193   -2.1570    0.9780 N.am      1 <0>        -0.8167
     11 H1          1.6283    1.3038   -0.0246 H         1 <0>         0.1211
     12 H2          0.1776    1.8093   -0.9238 H         1 <0>         0.1253
     13 H3          0.1939    1.8853    0.8545 H         1 <0>         0.1262
     14 H4          0.0211   -0.2500    2.1388 H         1 <0>         0.1189
     15 H5          0.2750   -1.7618    1.2342 H         1 <0>         0.1224
     16 H6          1.5859   -0.5633    1.3504 H         1 <0>         0.1286
     17 H7         -1.8089    0.4667   -0.8482 H         1 <0>         0.1227
     18 H8         -1.8322   -1.0351    0.1071 H         1 <0>         0.1229
     19 H9         -1.7926    0.5427    0.9301 H         1 <0>         0.1241
     20 H10         0.1722   -1.8402   -1.0357 H         1 <0>         0.1419
     21 H11         0.0550   -0.3672   -2.0281 H         1 <0>         0.1522
     22 H12         2.3472   -1.1718   -2.1420 H         1 <0>         0.1171
     23 H13         2.3314    0.3096   -1.1555 H         1 <0>         0.0971
     24 H14         3.9817   -2.6085    1.6473 H         1 <0>         0.4117
     25 H15         5.4873   -2.1841    1.0343 H         1 <0>         0.4360
@<TRIPOS>BOND
     1    1    2 1
     2    1   11 1
     3    1   12 1
     4    1   13 1
     5    2    3 1
     6    2    4 1
     7    2    5 1
     8    3   14 1
     9    3   15 1
    10    3   16 1
    11    4   17 1
    12    4   18 1
    13    4   19 1
    14    5    6 1
    15    5   20 1
    16    5   21 1
    17    6    7 1
    18    6   22 1
    19    6   23 1
    20    7    8 1
    21    8    9 2
    22    8   10 am
    23   10   24 1
    24   10   25 1
@<TRIPOS>MOLECULE
ZINC01491952
   33    35     0     0     0
SMALL
USER_CHARGES
2-(3,4-dihydro-1H-isoquinolin-2-yl)pyridin-4-amine
@<TRIPOS>ATOM
      1 C1         -6.7942    6.1264    1.4284 C.ar      1 <0>        -0.1038
      2 C2         -6.6935    4.9246    2.1045 C.ar      1 <0>        -0.1121
      3 C3         -5.5343    4.1809    2.0157 C.ar      1 <0>        -0.1062
      4 C4         -4.4683    4.6319    1.2508 C.ar      1 <0>        -0.1015
      5 C5         -4.5706    5.8284    0.5743 C.ar      1 <0>        -0.0764
      6 C6         -5.7349    6.5760    0.6660 C.ar      1 <0>        -0.1133
      7 C7         -3.4439    6.3543   -0.2776 C.3       1 <0>        -0.0743
      8 C8         -2.1430    5.6324    0.0745 C.3       1 <0>         0.0215
      9 N1         -2.3912    4.1822    0.0470 N.pl3     1 <0>        -0.4733
     10 C9         -3.2227    3.7874    1.1884 C.3       1 <0>         0.1031
     11 C10        -1.1958    3.4723    0.0322 C.ar      1 <0>         0.3970
     12 C11        -1.2211    2.0843    0.0191 C.ar      1 <0>        -0.2390
     13 C12        -0.0168    1.3878    0.0097 C.ar      1 <0>         0.3457
     14 C13         1.1729    2.1198    0.0022 C.ar      1 <0>        -0.2169
     15 C14         1.1161    3.4959    0.0102 C.ar      1 <0>         0.1807
     16 N2          0.0021   -0.0041    0.0020 N.pl3     1 <0>        -0.8077
     17 H1         -7.6990    6.7121    1.4969 H         1 <0>         0.1309
     18 H2         -7.5206    4.5684    2.7007 H         1 <0>         0.1312
     19 H3         -5.4566    3.2426    2.5447 H         1 <0>         0.1273
     20 H4         -5.8135    7.5148    0.1378 H         1 <0>         0.1289
     21 H5         -3.6771    6.1876   -1.3292 H         1 <0>         0.0961
     22 H6         -3.3231    7.4227   -0.0986 H         1 <0>         0.0998
     23 H7         -1.8178    5.9295    1.0716 H         1 <0>         0.0785
     24 H8         -1.3741    5.8863   -0.6553 H         1 <0>         0.0947
     25 H9         -3.5035    2.7394    1.0834 H         1 <0>         0.1114
     26 H10        -2.6543    3.9169    2.1094 H         1 <0>         0.0774
     27 H11        -2.1615    1.5532    0.0202 H         1 <0>         0.1789
     28 H12         2.1263    1.6125   -0.0100 H         1 <0>         0.1808
     29 H13         2.0329    4.0666    0.0049 H         1 <0>         0.1948
     30 H14         0.8486   -0.4776   -0.0086 H         1 <0>         0.4241
     31 H15        -0.8313   -0.5005    0.0073 H         1 <0>         0.4231
     32 N3         -0.0446    4.2078    0.0251 N.ar      1 <0>        -0.5663
     33 H16        -0.0540    5.2345    0.0308 H         1 <0>         0.4648
@<TRIPOS>BOND
     1    1    6 ar
     2    1    2 ar
     3    1   17 1
     4    2    3 ar
     5    2   18 1
     6    3    4 ar
     7    3   19 1
     8    4   10 1
     9    4    5 ar
    10    5    6 ar
    11    5    7 1
    12    6   20 1
    13    7    8 1
    14    7   21 1
    15    7   22 1
    16    8    9 1
    17    8   23 1
    18    8   24 1
    19    9   10 1
    20    9   11 1
    21   10   25 1
    22   10   26 1
    23   11   12 ar
    24   11   32 ar
    25   12   13 ar
    26   12   27 1
    27   13   14 ar
    28   13   16 1
    29   14   15 ar
    30   14   28 1
    31   15   29 1
    32   15   32 ar
    33   16   30 1
    34   16   31 1
    35   32   33 1
@<TRIPOS>MOLECULE
ZINC13488071
   36    38     0     0     0
SMALL
USER_CHARGES
2-(3,4-dihydro-1H-isoquinolin-2-yl)-5-methyl-pyridin-4-amine
@<TRIPOS>ATOM
      1 C1          3.7106    2.0397   -0.0229 C.3       1 <0>        -0.1144
      2 C2          2.3770    1.3379   -0.0139 C.ar      1 <0>        -0.1765
      3 C3          2.3138   -0.0384   -0.0202 C.ar      1 <0>         0.1708
      4 C4          0.0021   -0.0041    0.0020 C.ar      1 <0>         0.3938
      5 C5         -0.0167    1.3836    0.0096 C.ar      1 <0>        -0.2353
      6 C6          1.1910    2.0750    0.0018 C.ar      1 <0>         0.3463
      7 N1          1.2163    3.4667    0.0086 N.pl3     1 <0>        -0.8074
      8 N2         -1.1966   -0.7086    0.0092 N.pl3     1 <0>        -0.4729
      9 C7         -0.9554   -2.1599   -0.0233 C.3       1 <0>         0.0216
     10 C8         -2.2529   -2.8760    0.3527 C.3       1 <0>        -0.0742
     11 C9         -3.3928   -2.3447   -0.4779 C.ar      1 <0>        -0.0764
     12 C10        -4.5620   -3.0871   -0.5482 C.ar      1 <0>        -0.1133
     13 C11        -5.6332   -2.6324   -1.2907 C.ar      1 <0>        -0.1040
     14 C12        -5.5397   -1.4309   -1.9683 C.ar      1 <0>        -0.1121
     15 C13        -4.3757   -0.6925   -1.9008 C.ar      1 <0>        -0.1063
     16 C14        -3.2977   -1.1485   -1.1559 C.ar      1 <0>        -0.1011
     17 C15        -2.0473   -0.3096   -1.1164 C.3       1 <0>         0.1029
     18 H1          4.0225    2.2141   -1.0526 H         1 <0>         0.0911
     19 H2          3.6225    2.9939    0.4966 H         1 <0>         0.0797
     20 H3          4.4514    1.4187    0.4809 H         1 <0>         0.0911
     21 H4          3.2280   -0.6133   -0.0321 H         1 <0>         0.1933
     22 H5         -0.9547    1.9190    0.0170 H         1 <0>         0.1799
     23 H6          0.3852    3.9668    0.0189 H         1 <0>         0.4231
     24 H7          2.0649    3.9364    0.0030 H         1 <0>         0.4224
     25 H8         -0.6502   -2.4581   -1.0263 H         1 <0>         0.0782
     26 H9         -0.1744   -2.4175    0.6920 H         1 <0>         0.0944
     27 H10        -2.4658   -2.7087    1.4086 H         1 <0>         0.0961
     28 H11        -2.1403   -3.9449    0.1712 H         1 <0>         0.0997
     29 H12        -4.6350   -4.0257   -0.0189 H         1 <0>         0.1288
     30 H13        -6.5418   -3.2140   -1.3425 H         1 <0>         0.1309
     31 H14        -6.3761   -1.0707   -2.5489 H         1 <0>         0.1312
     32 H15        -4.3035    0.2458   -2.4309 H         1 <0>         0.1272
     33 H16        -2.3214    0.7396   -1.0059 H         1 <0>         0.1112
     34 H17        -1.4968   -0.4414   -2.0478 H         1 <0>         0.0771
     35 N3          1.1502   -0.7449   -0.0129 N.ar      1 <0>        -0.5616
     36 H18         1.1361   -1.7715   -0.0183 H         1 <0>         0.4648
@<TRIPOS>BOND
     1    1    2 1
     2    1   18 1
     3    1   19 1
     4    1   20 1
     5    2    6 ar
     6    2    3 ar
     7    3   21 1
     8    3   35 ar
     9    4    5 ar
    10    4    8 1
    11    4   35 ar
    12    5    6 ar
    13    5   22 1
    14    6    7 1
    15    7   23 1
    16    7   24 1
    17    8   17 1
    18    8    9 1
    19    9   10 1
    20    9   25 1
    21    9   26 1
    22   10   11 1
    23   10   27 1
    24   10   28 1
    25   11   16 ar
    26   11   12 ar
    27   12   13 ar
    28   12   29 1
    29   13   14 ar
    30   13   30 1
    31   14   15 ar
    32   14   31 1
    33   15   16 ar
    34   15   32 1
    35   16   17 1
    36   17   33 1
    37   17   34 1
    38   35   36 1
@<TRIPOS>MOLECULE
ZINC22454198
   63    66     0     0     0
SMALL
USER_CHARGES

@<TRIPOS>ATOM
      1 C1          3.7363   -2.4652    4.4496 C.3       1 <0>        -0.1796
      2 C2          2.9845   -1.9903    3.2045 C.3       1 <0>        -0.0557
      3 N1          1.9173   -2.9469    2.8822 N.4       1 <0>        -0.3766
      4 C3          0.9693   -3.0185    4.0021 C.3       1 <0>        -0.0205
      5 C4         -0.0535   -4.1245    3.7345 C.3       1 <0>        -0.1879
      6 C5          1.2126   -2.5048    1.6715 C.3       1 <0>        -0.0145
      7 C6          2.1525   -2.6063    0.4685 C.3       1 <0>         0.0555
      8 H1          1.6017   -2.3748   -0.4432 H         1 <0>         0.0958
      9 C7          2.7136   -4.0272    0.3784 C.3       1 <0>        -0.1243
     10 C8          3.6690   -4.1187   -0.8148 C.3       1 <0>        -0.1226
     11 C9          4.7828   -3.0814   -0.6474 C.3       1 <0>        -0.1192
     12 C10         4.1616   -1.6879   -0.5275 C.3       1 <0>         0.0474
     13 N2          3.2569   -1.6519    0.6286 N.3       1 <0>        -0.5201
     14 C11         2.7491   -0.2926    0.8574 C.3       1 <0>         0.0145
     15 C12         3.8621    0.5778    1.3816 C.2       1 <0>         0.5305
     16 O1          4.9649    0.1075    1.5643 O.2       1 <0>        -0.4785
     17 N3          3.6318    1.8789    1.6473 N.am      1 <0>        -0.5093
     18 C13         4.6781    2.7203    2.0213 C.ar      1 <0>         0.1608
     19 C14         5.4159    2.4454    3.1637 C.ar      1 <0>        -0.1021
     20 C15         6.4274    3.2993    3.5569 C.ar      1 <0>        -0.0762
     21 C16         6.7098    4.4353    2.8164 C.ar      1 <0>        -0.1135
     22 C17         5.9968    4.7149    1.6709 C.ar      1 <0>        -0.0462
     23 C18         4.9822    3.8500    1.2493 C.ar      1 <0>        -0.1376
     24 C19         4.2858    4.1039   -0.0175 C.2       1 <0>         0.5680
     25 O2          4.9500    4.5470   -0.9343 O.2       1 <0>        -0.5066
     26 N4          2.9995    3.8935   -0.2523 N.am      1 <0>        -0.6555
     27 C20         2.0490    3.4215    0.6482 C.ar      1 <0>         0.1169
     28 C21         2.3415    2.4057    1.5464 C.ar      1 <0>         0.3044
     29 N5          1.3913    1.9274    2.3381 N.ar      1 <0>        -0.4788
     30 C22         0.1668    2.4167    2.3331 C.ar      1 <0>         0.1077
     31 C23        -0.1775    3.4577    1.4943 C.ar      1 <0>        -0.1319
     32 C24         0.7704    3.9710    0.6406 C.ar      1 <0>        -0.0799
     33 H2          4.0753   -3.4903    4.3003 H         1 <0>         0.0751
     34 H3          4.5972   -1.8193    4.6226 H         1 <0>         0.1013
     35 H4          3.0720   -2.4242    5.3128 H         1 <0>         0.0723
     36 H5          2.5481   -1.0099    3.3955 H         1 <0>         0.1151
     37 H6          3.6772   -1.9225    2.3656 H         1 <0>         0.1891
     38 H7          1.5102   -3.2387    4.9225 H         1 <0>         0.1325
     39 H8          0.4537   -2.0635    4.1033 H         1 <0>         0.1266
     40 H9          0.4559   -5.0870    3.6880 H         1 <0>         0.0801
     41 H10        -0.7892   -4.1412    4.5386 H         1 <0>         0.1052
     42 H11        -0.5559   -3.9331    2.7863 H         1 <0>         0.0778
     43 H12         0.3413   -3.1386    1.5064 H         1 <0>         0.1413
     44 H13         0.8913   -1.4706    1.7954 H         1 <0>         0.1304
     45 H14         3.2530   -4.2644    1.2954 H         1 <0>         0.0670
     46 H15         1.8948   -4.7340    0.2440 H         1 <0>         0.0883
     47 H16         4.1043   -5.1171   -0.8571 H         1 <0>         0.0798
     48 H17         3.1213   -3.9198   -1.7360 H         1 <0>         0.0707
     49 H18         5.3547   -3.3036    0.2535 H         1 <0>         0.0770
     50 H19         5.4423   -3.1125   -1.5147 H         1 <0>         0.0810
     51 H20         4.9513   -0.9486   -0.3939 H         1 <0>         0.0973
     52 H21         3.6013   -1.4608   -1.4345 H         1 <0>         0.0471
     53 H22         2.3772    0.1190   -0.0809 H         1 <0>         0.0811
     54 H23         1.9393   -0.3251    1.5862 H         1 <0>         0.1188
     55 H24         5.1986    1.5625    3.7465 H         1 <0>         0.1332
     56 H25         7.0006    3.0806    4.4458 H         1 <0>         0.1409
     57 H26         7.4928    5.1057    3.1388 H         1 <0>         0.1431
     58 H27         6.2215    5.6028    1.0986 H         1 <0>         0.1441
     59 H28         2.6857    4.0898   -1.1489 H         1 <0>         0.4167
     60 H29        -0.5772    1.9971    2.9940 H         1 <0>         0.1727
     61 H30        -1.1778    3.8645    1.5105 H         1 <0>         0.1559
     62 H31         0.5230    4.7829   -0.0272 H         1 <0>         0.1552
     63 H32         2.3196   -3.8585    2.7233 H         1 <0>         0.4189
@<TRIPOS>BOND
     1    1    2 1
     2    1   33 1
     3    1   34 1
     4    1   35 1
     5    2    3 1
     6    2   36 1
     7    2   37 1
     8    3    4 1
     9    3    6 1
    10    3   63 1
    11    4    5 1
    12    4   38 1
    13    4   39 1
    14    5   40 1
    15    5   41 1
    16    5   42 1
    17    6    7 1
    18    6   43 1
    19    6   44 1
    20    7    8 1
    21    7   13 1
    22    7    9 1
    23    9   10 1
    24    9   45 1
    25    9   46 1
    26   10   11 1
    27   10   47 1
    28   10   48 1
    29   11   12 1
    30   11   49 1
    31   11   50 1
    32   12   13 1
    33   12   51 1
    34   12   52 1
    35   13   14 1
    36   14   15 1
    37   14   53 1
    38   14   54 1
    39   15   16 2
    40   15   17 am
    41   17   28 1
    42   17   18 1
    43   18   23 ar
    44   18   19 ar
    45   19   20 ar
    46   19   55 1
    47   20   21 ar
    48   20   56 1
    49   21   22 ar
    50   21   57 1
    51   22   23 ar
    52   22   58 1
    53   23   24 1
    54   24   25 2
    55   24   26 am
    56   26   27 1
    57   26   59 1
    58   27   32 ar
    59   27   28 ar
    60   28   29 ar
    61   29   30 ar
    62   30   31 ar
    63   30   60 1
    64   31   32 ar
    65   31   61 1
    66   32   62 1
@<TRIPOS>MOLECULE
ZINC22454203
   63    66     0     0     0
SMALL
USER_CHARGES

@<TRIPOS>ATOM
      1 C1          2.3844   -0.5288    2.8835 C.3       1 <0>        -0.1884
      2 C2          2.6615   -2.0249    2.7225 C.3       1 <0>        -0.0230
      3 N1          1.3938   -2.7384    2.5180 N.4       1 <0>        -0.3829
      4 C3          0.5122   -2.5105    3.6707 C.3       1 <0>        -0.0177
      5 C4          1.1417   -3.1234    4.9233 C.3       1 <0>        -0.1865
      6 C5          0.7434   -2.2414    1.2982 C.3       1 <0>        -0.0210
      7 C6          1.6030   -2.5930    0.0824 C.3       1 <0>         0.0658
      8 H1          2.5922   -2.1497    0.1965 H         1 <0>         0.0673
      9 C7          1.7351   -4.1138   -0.0261 C.3       1 <0>        -0.1263
     10 C8          2.5792   -4.4615   -1.2554 C.3       1 <0>        -0.1208
     11 C9          1.9227   -3.8616   -2.5018 C.3       1 <0>        -0.1199
     12 C10         1.7851   -2.3481   -2.3216 C.3       1 <0>         0.0567
     13 N2          0.9688   -2.0678   -1.1335 N.3       1 <0>        -0.5060
     14 C11         0.6997   -0.6292   -1.0075 C.3       1 <0>         0.0280
     15 C12        -0.2574   -0.2005   -2.0898 C.2       1 <0>         0.5313
     16 O1         -0.7602   -1.0298   -2.8180 O.2       1 <0>        -0.4731
     17 N3         -0.5547    1.1045   -2.2484 N.am      1 <0>        -0.5141
     18 C13        -1.5127    1.5036   -3.1787 C.ar      1 <0>         0.1642
     19 C14        -1.3406    1.2078   -4.5233 C.ar      1 <0>        -0.1026
     20 C15        -2.2693    1.6364   -5.4511 C.ar      1 <0>        -0.0744
     21 C16        -3.3753    2.3657   -5.0466 C.ar      1 <0>        -0.1154
     22 C17        -3.5691    2.6549   -3.7134 C.ar      1 <0>        -0.0474
     23 C18        -2.6476    2.2115   -2.7597 C.ar      1 <0>        -0.1411
     24 C19        -2.9034    2.4447   -1.3334 C.2       1 <0>         0.5707
     25 O2         -4.0572    2.3654   -0.9585 O.2       1 <0>        -0.5104
     26 N4         -1.9910    2.7332   -0.4177 N.am      1 <0>        -0.6551
     27 C20        -0.6242    2.9005   -0.6197 C.ar      1 <0>         0.1102
     28 C21         0.0889    2.0770   -1.4786 C.ar      1 <0>         0.3092
     29 N5          1.4031    2.2148   -1.5897 N.ar      1 <0>        -0.4700
     30 C22         2.0649    3.1482   -0.9342 C.ar      1 <0>         0.1109
     31 C23         1.4081    4.0281   -0.0975 C.ar      1 <0>        -0.1366
     32 C24         0.0479    3.9086    0.0649 C.ar      1 <0>        -0.0827
     33 H2          1.7033   -0.3735    3.7202 H         1 <0>         0.0839
     34 H3          3.3207   -0.0045    3.0750 H         1 <0>         0.1078
     35 H4          1.9320   -0.1427    1.9701 H         1 <0>         0.0745
     36 H5          3.3107   -2.1836    1.8614 H         1 <0>         0.1300
     37 H6          3.1503   -2.4026    3.6205 H         1 <0>         0.1356
     38 H7          0.3775   -1.4391    3.8189 H         1 <0>         0.1313
     39 H8         -0.4558   -2.9762    3.4855 H         1 <0>         0.1320
     40 H9          2.0590   -2.5880    5.1681 H         1 <0>         0.0811
     41 H10         0.4427   -3.0463    5.7561 H         1 <0>         0.1073
     42 H11         1.3718   -4.1726    4.7380 H         1 <0>         0.0805
     43 H12        -0.2381   -2.7042    1.1954 H         1 <0>         0.1434
     44 H13         0.6298   -1.1592    1.3622 H         1 <0>         0.1301
     45 H14         2.2199   -4.5017    0.8698 H         1 <0>         0.0627
     46 H15         0.7452   -4.5588   -0.1266 H         1 <0>         0.0911
     47 H16         3.5814   -4.0495   -1.1375 H         1 <0>         0.0652
     48 H17         2.6397   -5.5447   -1.3611 H         1 <0>         0.0790
     49 H18         2.5414   -4.0694   -3.3748 H         1 <0>         0.0795
     50 H19         0.9357   -4.3027   -2.6413 H         1 <0>         0.0802
     51 H20         2.7734   -1.9060   -2.1960 H         1 <0>         0.0424
     52 H21         1.3050   -1.9198   -3.2015 H         1 <0>         0.0945
     53 H22         0.2590   -0.4261   -0.0315 H         1 <0>         0.0980
     54 H23         1.6328   -0.0748   -1.1073 H         1 <0>         0.0911
     55 H24        -0.4789    0.6417   -4.8448 H         1 <0>         0.1348
     56 H25        -2.1325    1.4023   -6.4965 H         1 <0>         0.1412
     57 H26        -4.0894    2.7097   -5.7802 H         1 <0>         0.1425
     58 H27        -4.4332    3.2246   -3.4048 H         1 <0>         0.1431
     59 H28        -2.3100    2.8396    0.4921 H         1 <0>         0.4138
     60 H29         3.1355    3.2250   -1.0532 H         1 <0>         0.1728
     61 H30         1.9558    4.8012    0.4208 H         1 <0>         0.1545
     62 H31        -0.4866    4.5833    0.7172 H         1 <0>         0.1534
     63 H32         1.5754   -3.7264    2.4236 H         1 <0>         0.4239
@<TRIPOS>BOND
     1    1    2 1
     2    1   33 1
     3    1   34 1
     4    1   35 1
     5    2    3 1
     6    2   36 1
     7    2   37 1
     8    3    4 1
     9    3    6 1
    10    3   63 1
    11    4    5 1
    12    4   38 1
    13    4   39 1
    14    5   40 1
    15    5   41 1
    16    5   42 1
    17    6    7 1
    18    6   43 1
    19    6   44 1
    20    7    8 1
    21    7   13 1
    22    7    9 1
    23    9   10 1
    24    9   45 1
    25    9   46 1
    26   10   11 1
    27   10   47 1
    28   10   48 1
    29   11   12 1
    30   11   49 1
    31   11   50 1
    32   12   13 1
    33   12   51 1
    34   12   52 1
    35   13   14 1
    36   14   15 1
    37   14   53 1
    38   14   54 1
    39   15   16 2
    40   15   17 am
    41   17   28 1
    42   17   18 1
    43   18   23 ar
    44   18   19 ar
    45   19   20 ar
    46   19   55 1
    47   20   21 ar
    48   20   56 1
    49   21   22 ar
    50   21   57 1
    51   22   23 ar
    52   22   58 1
    53   23   24 1
    54   24   25 2
    55   24   26 am
    56   26   27 1
    57   26   59 1
    58   27   32 ar
    59   27   28 ar
    60   28   29 ar
    61   29   30 ar
    62   30   31 ar
    63   30   60 1
    64   31   32 ar
    65   31   61 1
    66   32   62 1
@<TRIPOS>MOLECULE
ZINC03812892
   77    80     0     0     0
SMALL
USER_CHARGES

@<TRIPOS>ATOM
      1 C1         -5.6570   -1.8380   -5.8329 C.3       1 <0>        -0.1410
      2 C2         -5.2316   -3.3070   -5.7878 C.3       1 <0>        -0.0339
      3 C3         -5.1149   -3.7596   -4.3310 C.3       1 <0>        -0.1396
      4 C4         -6.2769   -4.1630   -6.5057 C.3       1 <0>        -0.1471
      5 C5         -3.8977   -3.4648   -6.4712 C.ar      1 <0>        -0.0573
      6 C6         -3.7802   -4.2876   -7.5758 C.ar      1 <0>        -0.1168
      7 C7         -2.5567   -4.4324   -8.2027 C.ar      1 <0>        -0.1067
      8 C8         -1.4508   -3.7541   -7.7253 C.ar      1 <0>        -0.1350
      9 C9         -1.5686   -2.9306   -6.6212 C.ar      1 <0>        -0.1088
     10 C10        -2.7930   -2.7825   -5.9969 C.ar      1 <0>        -0.1103
     11 C11        -0.1168   -3.9128   -8.4081 C.3       1 <0>         0.1533
     12 H1         -0.2727   -4.2002   -9.4478 H         1 <0>         0.1093
     13 C12         0.6951   -4.9963   -7.6956 C.3       1 <0>        -0.1445
     14 C13         1.9961   -5.2452   -8.4615 C.3       1 <0>        -0.1465
     15 C14         2.8080   -6.3287   -7.7490 C.3       1 <0>        -0.0105
     16 N1          4.0571   -6.5677   -8.4843 N.4       1 <0>        -0.3824
     17 C15         4.8871   -5.3578   -8.4420 C.3       1 <0>        -0.0079
     18 C16         6.1529   -5.5737   -9.2743 C.3       1 <0>        -0.1472
     19 C17         6.9399   -6.7549   -8.6994 C.3       1 <0>        -0.1198
     20 C18         6.0400   -7.9939   -8.6795 C.3       1 <0>        -0.1384
     21 C19         4.7784   -7.6883   -7.8693 C.3       1 <0>        -0.0058
     22 C20         8.1658   -7.0269   -9.5736 C.3       1 <0>         0.2364
     23 C21         9.0396   -5.7996   -9.6092 C.ar      1 <0>        -0.1208
     24 C22         9.4143   -5.1835   -8.4299 C.ar      1 <0>        -0.1129
     25 C23        10.2158   -4.0577   -8.4626 C.ar      1 <0>        -0.1158
     26 C24        10.6430   -3.5483   -9.6747 C.ar      1 <0>        -0.1101
     27 C25        10.2690   -4.1651  -10.8540 C.ar      1 <0>        -0.1131
     28 C26         9.4710   -5.2933  -10.8210 C.ar      1 <0>        -0.1068
     29 C27         8.9453   -8.1821   -9.0001 C.ar      1 <0>        -0.0827
     30 C28         9.3013   -8.1805   -7.6644 C.ar      1 <0>        -0.1158
     31 C29        10.0164   -9.2401   -7.1384 C.ar      1 <0>        -0.1179
     32 C30        10.3751  -10.3016   -7.9480 C.ar      1 <0>        -0.1104
     33 C31        10.0184  -10.3036   -9.2835 C.ar      1 <0>        -0.1181
     34 C32         9.2996   -9.2460   -9.8085 C.ar      1 <0>        -0.0910
     35 O1          7.7429   -7.3493  -10.8999 O.3       1 <0>        -0.5409
     36 O2          0.5943   -2.6743   -8.3578 O.3       1 <0>        -0.5537
     37 H2         -4.9123   -1.2282   -5.3215 H         1 <0>         0.0572
     38 H3         -5.7401   -1.5155   -6.8708 H         1 <0>         0.0574
     39 H4         -6.6218   -1.7238   -5.3387 H         1 <0>         0.0630
     40 H5         -6.0797   -3.6455   -3.8367 H         1 <0>         0.0629
     41 H6         -4.8118   -4.8062   -4.2989 H         1 <0>         0.0558
     42 H7         -4.3702   -3.1498   -3.8196 H         1 <0>         0.0568
     43 H8         -6.3600   -3.8405   -7.5436 H         1 <0>         0.0596
     44 H9         -5.9738   -5.2095   -6.4736 H         1 <0>         0.0586
     45 H10        -7.2417   -4.0488   -6.0114 H         1 <0>         0.0628
     46 H11        -4.6441   -4.8176   -7.9488 H         1 <0>         0.1307
     47 H12        -2.4646   -5.0758   -9.0653 H         1 <0>         0.1217
     48 H13        -0.7046   -2.4010   -6.2480 H         1 <0>         0.1176
     49 H14        -2.8859   -2.1362   -5.1366 H         1 <0>         0.1244
     50 H15         0.9270   -4.6692   -6.6821 H         1 <0>         0.0787
     51 H16         0.1148   -5.9182   -7.6560 H         1 <0>         0.0860
     52 H17         1.7641   -5.5723   -9.4750 H         1 <0>         0.0879
     53 H18         2.5764   -4.3234   -8.5011 H         1 <0>         0.0944
     54 H19         3.0399   -6.0016   -6.7355 H         1 <0>         0.1285
     55 H20         2.2277   -7.2506   -7.7094 H         1 <0>         0.1306
     56 H21         4.3245   -4.5174   -8.8485 H         1 <0>         0.1351
     57 H22         5.1637   -5.1434   -7.4097 H         1 <0>         0.1288
     58 H23         5.8774   -5.7879  -10.3069 H         1 <0>         0.0889
     59 H24         6.7686   -4.6749   -9.2401 H         1 <0>         0.1173
     60 H25         7.2596   -6.5203   -7.6841 H         1 <0>         0.1001
     61 H26         5.7622   -8.2584   -9.6998 H         1 <0>         0.0971
     62 H27         6.5751   -8.8251   -8.2202 H         1 <0>         0.1150
     63 H28         5.0574   -7.4243   -6.8492 H         1 <0>         0.1274
     64 H29         4.1356   -8.5685   -7.8530 H         1 <0>         0.1314
     65 H30         9.0806   -5.5814   -7.4830 H         1 <0>         0.1196
     66 H31        10.5080   -3.5759   -7.5413 H         1 <0>         0.1259
     67 H32        11.2686   -2.6684   -9.7003 H         1 <0>         0.1266
     68 H33        10.6025   -3.7669  -11.8009 H         1 <0>         0.1271
     69 H34         9.1819   -5.7773  -11.7422 H         1 <0>         0.1293
     70 H35         9.0210   -7.3512   -7.0319 H         1 <0>         0.1189
     71 H36        10.2951   -9.2385   -6.0950 H         1 <0>         0.1260
     72 H37        10.9345  -11.1291   -7.5372 H         1 <0>         0.1261
     73 H38        10.2990  -11.1328   -9.9161 H         1 <0>         0.1265
     74 H39         9.0176   -9.2493  -10.8511 H         1 <0>         0.1327
     75 H40         7.2342   -6.6493  -11.3316 H         1 <0>         0.3777
     76 H41         0.7687   -2.3570   -7.4611 H         1 <0>         0.3762
     77 H42         3.8432   -6.7930   -9.4443 H         1 <0>         0.4225
@<TRIPOS>BOND
     1    1    2 1
     2    1   37 1
     3    1   38 1
     4    1   39 1
     5    2    3 1
     6    2    4 1
     7    2    5 1
     8    3   40 1
     9    3   41 1
    10    3   42 1
    11    4   43 1
    12    4   44 1
    13    4   45 1
    14    5   10 ar
    15    5    6 ar
    16    6    7 ar
    17    6   46 1
    18    7    8 ar
    19    7   47 1
    20    8    9 ar
    21    8   11 1
    22    9   10 ar
    23    9   48 1
    24   10   49 1
    25   11   12 1
    26   11   13 1
    27   11   36 1
    28   13   14 1
    29   13   50 1
    30   13   51 1
    31   14   15 1
    32   14   52 1
    33   14   53 1
    34   15   16 1
    35   15   54 1
    36   15   55 1
    37   16   21 1
    38   16   17 1
    39   16   77 1
    40   17   18 1
    41   17   56 1
    42   17   57 1
    43   18   19 1
    44   18   58 1
    45   18   59 1
    46   19   20 1
    47   19   22 1
    48   19   60 1
    49   20   21 1
    50   20   61 1
    51   20   62 1
    52   21   63 1
    53   21   64 1
    54   22   23 1
    55   22   29 1
    56   22   35 1
    57   23   28 ar
    58   23   24 ar
    59   24   25 ar
    60   24   65 1
    61   25   26 ar
    62   25   66 1
    63   26   27 ar
    64   26   67 1
    65   27   28 ar
    66   27   68 1
    67   28   69 1
    68   29   34 ar
    69   29   30 ar
    70   30   31 ar
    71   30   70 1
    72   31   32 ar
    73   31   71 1
    74   32   33 ar
    75   32   72 1
    76   33   34 ar
    77   33   73 1
    78   34   74 1
    79   35   75 1
    80   36   76 1
@<TRIPOS>MOLECULE
ZINC03831511
   77    80     0     0     0
SMALL
USER_CHARGES

@<TRIPOS>ATOM
      1 C1          8.5157   -0.1133    0.5257 C.3       1 <0>        -0.1396
      2 C2          8.2329   -1.6122    0.4070 C.3       1 <0>        -0.0339
      3 C3          9.4003   -2.4003    1.0044 C.3       1 <0>        -0.1410
      4 C4          6.9480   -1.9504    1.1657 C.3       1 <0>        -0.1471
      5 C5          8.0700   -1.9792   -1.0455 C.ar      1 <0>        -0.0570
      6 C6          6.8812   -2.5261   -1.4911 C.ar      1 <0>        -0.1171
      7 C7          6.7318   -2.8628   -2.8235 C.ar      1 <0>        -0.1058
      8 C8          7.7711   -2.6522   -3.7103 C.ar      1 <0>        -0.1351
      9 C9          8.9595   -2.1045   -3.2649 C.ar      1 <0>        -0.1088
     10 C10         9.1074   -1.7638   -1.9334 C.ar      1 <0>        -0.1105
     11 C11         7.6085   -3.0201   -5.1627 C.3       1 <0>         0.1534
     12 H1          6.7941   -3.7370   -5.2669 H         1 <0>         0.1083
     13 C12         7.2888   -1.7633   -5.9745 C.3       1 <0>        -0.1447
     14 C13         7.0011   -2.1531   -7.4258 C.3       1 <0>        -0.1461
     15 C14         6.6814   -0.8963   -8.2376 C.3       1 <0>        -0.0105
     16 N1          6.4052   -1.2705   -9.6310 N.4       1 <0>        -0.3824
     17 C15         5.1925   -2.0957   -9.6833 C.3       1 <0>        -0.0077
     18 C16         4.9455   -2.5556  -11.1217 C.3       1 <0>        -0.1474
     19 C17         4.7691   -1.3287  -12.0210 C.3       1 <0>        -0.1197
     20 C18         6.0089   -0.4378  -11.9013 C.3       1 <0>        -0.1385
     21 C19         6.2165   -0.0564  -10.4340 C.3       1 <0>        -0.0057
     22 C20         4.6009   -1.7789  -13.4735 C.3       1 <0>         0.2363
     23 C21         3.3927   -2.6726  -13.5857 C.ar      1 <0>        -0.1208
     24 C22         2.1799   -2.2641  -13.0630 C.ar      1 <0>        -0.1130
     25 C23         1.0716   -3.0839  -13.1659 C.ar      1 <0>        -0.1159
     26 C24         1.1760   -4.3120  -13.7919 C.ar      1 <0>        -0.1102
     27 C25         2.3886   -4.7200  -14.3155 C.ar      1 <0>        -0.1131
     28 C26         3.4958   -3.8984  -14.2163 C.ar      1 <0>        -0.1068
     29 C27         4.4159   -0.5710  -14.3556 C.ar      1 <0>        -0.0827
     30 C28         3.4639    0.3789  -14.0360 C.ar      1 <0>        -0.1158
     31 C29         3.2942    1.4868  -14.8450 C.ar      1 <0>        -0.1179
     32 C30         4.0769    1.6450  -15.9735 C.ar      1 <0>        -0.1103
     33 C31         5.0295    0.6955  -16.2925 C.ar      1 <0>        -0.1181
     34 C32         5.2021   -0.4102  -15.4811 C.ar      1 <0>        -0.0909
     35 O1          5.7648   -2.4972  -13.8874 O.3       1 <0>        -0.5409
     36 O2          8.8208   -3.6031   -5.6449 O.3       1 <0>        -0.5535
     37 H2          9.4311    0.1277   -0.0148 H         1 <0>         0.0568
     38 H3          7.6840    0.4482    0.1001 H         1 <0>         0.0558
     39 H4          8.6335    0.1522    1.5763 H         1 <0>         0.0630
     40 H5          9.5181   -2.1349    2.0550 H         1 <0>         0.0630
     41 H6          9.1989   -3.4682    0.9199 H         1 <0>         0.0575
     42 H7         10.3157   -2.1594    0.4639 H         1 <0>         0.0572
     43 H8          6.1163   -1.3889    0.7401 H         1 <0>         0.0585
     44 H9          6.7465   -3.0183    1.0812 H         1 <0>         0.0596
     45 H10         7.0658   -1.6849    2.2163 H         1 <0>         0.0628
     46 H11         6.0693   -2.6907   -0.7982 H         1 <0>         0.1306
     47 H12         5.8033   -3.2907   -3.1715 H         1 <0>         0.1216
     48 H13         9.7716   -1.9402   -3.9577 H         1 <0>         0.1174
     49 H14        10.0346   -1.3325   -1.5861 H         1 <0>         0.1245
     50 H15         6.4142   -1.2698   -5.5507 H         1 <0>         0.0854
     51 H16         8.1405   -1.0838   -5.9427 H         1 <0>         0.0792
     52 H17         7.8757   -2.6466   -7.8496 H         1 <0>         0.0944
     53 H18         6.1495   -2.8326   -7.4575 H         1 <0>         0.0876
     54 H19         5.8068   -0.4027   -7.8138 H         1 <0>         0.1286
     55 H20         7.5331   -0.2168   -8.2059 H         1 <0>         0.1305
     56 H21         5.3183   -2.9669   -9.0404 H         1 <0>         0.1340
     57 H22         4.3402   -1.5105   -9.3380 H         1 <0>         0.1290
     58 H23         5.7972   -3.1412  -11.4679 H         1 <0>         0.0892
     59 H24         4.0437   -3.1667  -11.1587 H         1 <0>         0.1172
     60 H25         3.8873   -0.7703  -11.7068 H         1 <0>         0.1001
     61 H26         6.8827   -0.9794  -12.2637 H         1 <0>         0.0972
     62 H27         5.8672    0.4650  -12.4955 H         1 <0>         0.1151
     63 H28         5.3424    0.4854  -10.0727 H         1 <0>         0.1274
     64 H29         7.0983    0.5781  -10.3452 H         1 <0>         0.1315
     65 H30         2.0983   -1.3047  -12.5739 H         1 <0>         0.1196
     66 H31         0.1243   -2.7651  -12.7569 H         1 <0>         0.1258
     67 H32         0.3103   -4.9527  -13.8717 H         1 <0>         0.1266
     68 H33         2.4702   -5.6796  -14.8043 H         1 <0>         0.1272
     69 H34         4.4423   -4.2156  -14.6286 H         1 <0>         0.1294
     70 H35         2.8524    0.2553  -13.1544 H         1 <0>         0.1188
     71 H36         2.5499    2.2287  -14.5958 H         1 <0>         0.1260
     72 H37         3.9438    2.5103  -16.6060 H         1 <0>         0.1261
     73 H38         5.6408    0.8189  -17.1743 H         1 <0>         0.1265
     74 H39         5.9489   -1.1502  -15.7284 H         1 <0>         0.1327
     75 H40         5.9458   -3.2889  -13.3624 H         1 <0>         0.3777
     76 H41         9.5897   -3.0199   -5.5826 H         1 <0>         0.3768
     77 H42         7.1840   -1.7972   -9.9974 H         1 <0>         0.4229
@<TRIPOS>BOND
     1    1    2 1
     2    1   37 1
     3    1   38 1
     4    1   39 1
     5    2    3 1
     6    2    4 1
     7    2    5 1
     8    3   40 1
     9    3   41 1
    10    3   42 1
    11    4   43 1
    12    4   44 1
    13    4   45 1
    14    5   10 ar
    15    5    6 ar
    16    6    7 ar
    17    6   46 1
    18    7    8 ar
    19    7   47 1
    20    8    9 ar
    21    8   11 1
    22    9   10 ar
    23    9   48 1
    24   10   49 1
    25   11   12 1
    26   11   13 1
    27   11   36 1
    28   13   14 1
    29   13   50 1
    30   13   51 1
    31   14   15 1
    32   14   52 1
    33   14   53 1
    34   15   16 1
    35   15   54 1
    36   15   55 1
    37   16   21 1
    38   16   17 1
    39   16   77 1
    40   17   18 1
    41   17   56 1
    42   17   57 1
    43   18   19 1
    44   18   58 1
    45   18   59 1
    46   19   20 1
    47   19   22 1
    48   19   60 1
    49   20   21 1
    50   20   61 1
    51   20   62 1
    52   21   63 1
    53   21   64 1
    54   22   23 1
    55   22   29 1
    56   22   35 1
    57   23   28 ar
    58   23   24 ar
    59   24   25 ar
    60   24   65 1
    61   25   26 ar
    62   25   66 1
    63   26   27 ar
    64   26   67 1
    65   27   28 ar
    66   27   68 1
    67   28   69 1
    68   29   34 ar
    69   29   30 ar
    70   30   31 ar
    71   30   70 1
    72   31   32 ar
    73   31   71 1
    74   32   33 ar
    75   32   72 1
    76   33   34 ar
    77   33   73 1
    78   34   74 1
    79   35   75 1
    80   36   76 1
@<TRIPOS>MOLECULE
ZINC02017910
   47    50     0     0     0
SMALL
USER_CHARGES
quinuclidin-3-yl diphenylaminoformate
@<TRIPOS>ATOM
      1 C1          2.9883   -2.8694    0.4903 C.ar      1 <0>        -0.1073
      2 C2          2.0356   -2.6907    1.4766 C.ar      1 <0>        -0.1053
      3 C3          1.0447   -1.7419    1.3177 C.ar      1 <0>        -0.1094
      4 C4          1.0056   -0.9670    0.1661 C.ar      1 <0>         0.1179
      5 C5          1.9603   -1.1528   -0.8251 C.ar      1 <0>        -0.1083
      6 C6          2.9523   -2.0990   -0.6575 C.ar      1 <0>        -0.1054
      7 N1          0.0021   -0.0041    0.0020 N.am      1 <0>        -0.4937
      8 C7         -1.3314   -0.4021   -0.1547 C.ar      1 <0>         0.1348
      9 C8         -2.2595   -0.1332    0.8427 C.ar      1 <0>        -0.1037
     10 C9         -3.5752   -0.5216    0.6824 C.ar      1 <0>        -0.1064
     11 C10        -3.9660   -1.1884   -0.4642 C.ar      1 <0>        -0.1046
     12 C11        -3.0430   -1.4627   -1.4567 C.ar      1 <0>        -0.1047
     13 C12        -1.7271   -1.0715   -1.3052 C.ar      1 <0>        -0.1061
     14 C13         0.3197    1.3057   -0.0051 C.2       1 <0>         0.6534
     15 O1         -0.5361    2.1371   -0.2352 O.2       1 <0>        -0.5402
     16 O2          1.5864    1.6927    0.2374 O.3       1 <0>        -0.3431
     17 C14         1.8559    3.1193    0.2137 C.3       1 <0>         0.0961
     18 H1          1.1703    3.6090   -0.4778 H         1 <0>         0.1254
     19 C15         1.6730    3.6994    1.6191 C.3       1 <0>        -0.0197
     20 C16         3.3412    5.4034    1.1924 C.3       1 <0>        -0.0049
     21 C17         3.5711    4.8718   -0.2251 C.3       1 <0>        -0.1345
     22 C18         3.3016    3.3618   -0.2377 C.3       1 <0>        -0.0970
     23 C19         4.2467    2.6877    0.7648 C.3       1 <0>        -0.1348
     24 C20         3.9981    3.2805    2.1546 C.3       1 <0>        -0.0017
     25 H2          3.7622   -3.6120    0.6168 H         1 <0>         0.1313
     26 H3          2.0664   -3.2940    2.3718 H         1 <0>         0.1324
     27 H4          0.3007   -1.6031    2.0882 H         1 <0>         0.1260
     28 H5          1.9299   -0.5547   -1.7238 H         1 <0>         0.1238
     29 H6          3.6978   -2.2409   -1.4260 H         1 <0>         0.1321
     30 H7         -1.9539    0.3833    1.7405 H         1 <0>         0.1211
     31 H8         -4.2985   -0.3088    1.4557 H         1 <0>         0.1329
     32 H9         -4.9944   -1.4954   -0.5851 H         1 <0>         0.1328
     33 H10        -3.3513   -1.9837   -2.3511 H         1 <0>         0.1345
     34 H11        -1.0066   -1.2863   -2.0805 H         1 <0>         0.1269
     35 H12         0.8978    4.4654    1.5982 H         1 <0>         0.1433
     36 H13         1.3809    2.9046    2.3054 H         1 <0>         0.1359
     37 H14         4.2629    5.8477    1.5682 H         1 <0>         0.1339
     38 H15         2.5544    6.1575    1.1749 H         1 <0>         0.1316
     39 H16         4.6023    5.0612   -0.5234 H         1 <0>         0.1124
     40 H17         2.8931    5.3697   -0.9183 H         1 <0>         0.1055
     41 H18         3.4532    2.9624   -1.2405 H         1 <0>         0.1258
     42 H19         4.0529    1.6153    0.7852 H         1 <0>         0.1077
     43 H20         5.2806    2.8683    0.4704 H         1 <0>         0.1048
     44 H21         4.9145    3.7421    2.5224 H         1 <0>         0.1318
     45 H22         3.6898    2.4894    2.8381 H         1 <0>         0.1283
     46 N2          2.9347    4.3058    2.0957 N.4       1 <0>        -0.3883
     47 H23         2.7864    4.6868    3.0376 H         1 <0>         0.4368
@<TRIPOS>BOND
     1    1    6 ar
     2    1    2 ar
     3    1   25 1
     4    2    3 ar
     5    2   26 1
     6    3    4 ar
     7    3   27 1
     8    4    5 ar
     9    4    7 1
    10    5    6 ar
    11    5   28 1
    12    6   29 1
    13    7    8 1
    14    7   14 am
    15    8   13 ar
    16    8    9 ar
    17    9   10 ar
    18    9   30 1
    19   10   11 ar
    20   10   31 1
    21   11   12 ar
    22   11   32 1
    23   12   13 ar
    24   12   33 1
    25   13   34 1
    26   14   15 2
    27   14   16 1
    28   16   17 1
    29   17   18 1
    30   17   22 1
    31   17   19 1
    32   19   35 1
    33   19   36 1
    34   19   46 1
    35   20   21 1
    36   20   37 1
    37   20   38 1
    38   20   46 1
    39   21   22 1
    40   21   39 1
    41   21   40 1
    42   22   23 1
    43   22   41 1
    44   23   24 1
    45   23   42 1
    46   23   43 1
    47   24   44 1
    48   24   45 1
    49   24   46 1
    50   46   47 1
@<TRIPOS>MOLECULE
ZINC03965738
   50    53     0     0     0
SMALL
USER_CHARGES
quinuclidin-3-yl [(3-fluorophenyl)-[(3,4,5-trifluorophenyl)methyl]amino]formate
@<TRIPOS>ATOM
      1 C1          2.5611    4.6682   -3.9097 C.ar      1 <0>        -0.0752
      2 C2          2.9830    3.5191   -3.2693 C.ar      1 <0>        -0.1230
      3 C3          3.6518    3.6069   -2.0556 C.ar      1 <0>         0.1494
      4 C4          3.8901    4.8502   -1.4853 C.ar      1 <0>        -0.1514
      5 C5          3.4707    5.9979   -2.1333 C.ar      1 <0>         0.1212
      6 C6          2.8038    5.9058   -3.3440 C.ar      1 <0>        -0.1429
      7 F1          3.7066    7.2088   -1.5826 F         1 <0>        -0.1277
      8 N1          4.0799    2.4438   -1.4055 N.am      1 <0>        -0.5386
      9 C7          3.4661    2.0460   -0.1362 C.3       1 <0>         0.1704
     10 C8          2.2813    1.1554   -0.4085 C.ar      1 <0>        -0.0756
     11 C9          1.0258    1.7089   -0.5756 C.ar      1 <0>        -0.1140
     12 C10        -0.0638    0.8926   -0.8258 C.ar      1 <0>         0.1004
     13 C11         0.1047   -0.4806   -0.9083 C.ar      1 <0>         0.0451
     14 C12         1.3644   -1.0337   -0.7400 C.ar      1 <0>         0.0967
     15 C13         2.4514   -0.2139   -0.4900 C.ar      1 <0>        -0.1102
     16 F2          1.5311   -2.3720   -0.8195 F         1 <0>        -0.1143
     17 F3         -0.9575   -1.2791   -1.1520 F         1 <0>        -0.1103
     18 F4         -1.2897    1.4345   -0.9950 F         1 <0>        -0.1123
     19 C14         5.0569    1.6898   -1.9472 C.2       1 <0>         0.6567
     20 O1          5.3668    0.6344   -1.4309 O.2       1 <0>        -0.5453
     21 O2          5.6896    2.1060   -3.0606 O.3       1 <0>        -0.3442
     22 C15         6.7312    1.2431   -3.5884 C.3       1 <0>         0.0974
     23 H1          7.1942    0.6882   -2.7724 H         1 <0>         0.1268
     24 C16         6.1244    0.2650   -4.5985 C.3       1 <0>        -0.0202
     25 C17         8.1982    0.1830   -5.8480 C.3       1 <0>        -0.0052
     26 C18         8.8639    1.1585   -4.8732 C.3       1 <0>        -0.1345
     27 C19         7.7921    2.0933   -4.2986 C.3       1 <0>        -0.0974
     28 C20         7.1232    2.8420   -5.4582 C.3       1 <0>        -0.1349
     29 C21         6.5064    1.8195   -6.4168 C.3       1 <0>        -0.0019
     30 H2          2.0406    4.5994   -4.8535 H         1 <0>         0.1417
     31 H3          2.7929    2.5529   -3.7127 H         1 <0>         0.1268
     32 H4          4.4061    4.9212   -0.5392 H         1 <0>         0.1440
     33 H5          2.4726    6.8025   -3.8466 H         1 <0>         0.1448
     34 H6          3.1366    2.9345    0.4023 H         1 <0>         0.1136
     35 H7          4.1959    1.5055    0.4666 H         1 <0>         0.1169
     36 H8          0.8949    2.7790   -0.5113 H         1 <0>         0.1555
     37 H9          3.4331   -0.6445   -0.3587 H         1 <0>         0.1613
     38 H10         6.2964   -0.7577   -4.2628 H         1 <0>         0.1437
     39 H11         5.0527    0.4456   -4.6809 H         1 <0>         0.1354
     40 H12         8.6350    0.3046   -6.8393 H         1 <0>         0.1340
     41 H13         8.3559   -0.8392   -5.5041 H         1 <0>         0.1319
     42 H14         9.6159    1.7455   -5.4005 H         1 <0>         0.1125
     43 H15         9.3363    0.6029   -4.0632 H         1 <0>         0.1058
     44 H16         8.2434    2.7936   -3.5957 H         1 <0>         0.1262
     45 H17         6.3421    3.4952   -5.0691 H         1 <0>         0.1074
     46 H18         7.8682    3.4359   -5.9877 H         1 <0>         0.1049
     47 H19         6.9570    1.9278   -7.4033 H         1 <0>         0.1319
     48 H20         5.4319    1.9885   -6.4873 H         1 <0>         0.1283
     49 N2          6.7453    0.4447   -5.9285 N.4       1 <0>        -0.3887
     50 H21         6.3226   -0.2208   -6.5863 H         1 <0>         0.4371
@<TRIPOS>BOND
     1    1    6 ar
     2    1    2 ar
     3    1   30 1
     4    2    3 ar
     5    2   31 1
     6    3    4 ar
     7    3    8 1
     8    4    5 ar
     9    4   32 1
    10    5    6 ar
    11    5    7 1
    12    6   33 1
    13    8    9 1
    14    8   19 am
    15    9   10 1
    16    9   34 1
    17    9   35 1
    18   10   15 ar
    19   10   11 ar
    20   11   12 ar
    21   11   36 1
    22   12   13 ar
    23   12   18 1
    24   13   14 ar
    25   13   17 1
    26   14   15 ar
    27   14   16 1
    28   15   37 1
    29   19   20 2
    30   19   21 1
    31   21   22 1
    32   22   23 1
    33   22   27 1
    34   22   24 1
    35   24   38 1
    36   24   39 1
    37   24   49 1
    38   25   26 1
    39   25   40 1
    40   25   41 1
    41   25   49 1
    42   26   27 1
    43   26   42 1
    44   26   43 1
    45   27   28 1
    46   27   44 1
    47   28   29 1
    48   28   45 1
    49   28   46 1
    50   29   47 1
    51   29   48 1
    52   29   49 1
    53   49   50 1
@<TRIPOS>MOLECULE
ZINC01532358
   43    44     0     0     0
SMALL
USER_CHARGES
3-(4-hexoxy-1,2,5-thiadiazol-3-yl)-1-methyl-5,6-dihydro-2H-pyridine
@<TRIPOS>ATOM
      1 C1          1.0740    2.6512    2.3197 C.3       1 <0>        -0.1554
      2 C2          0.1951    2.9518    1.1039 C.3       1 <0>        -0.1278
      3 C3          0.7800    2.2634   -0.1309 C.3       1 <0>        -0.1171
      4 C4         -0.0989    2.5640   -1.3467 C.3       1 <0>        -0.1207
      5 C5          0.4860    1.8755   -2.5815 C.3       1 <0>        -0.1161
      6 C6         -0.3928    2.1761   -3.7973 C.3       1 <0>         0.0610
      7 O1          0.1535    1.5331   -4.9507 O.3       1 <0>        -0.2935
      8 C7         -0.5121    1.7004   -6.1236 C.2       1 <0>         0.2720
      9 C8         -0.0861    1.1341   -7.3225 C.2       1 <0>         0.0553
     10 N1         -0.8263    1.3704   -8.3866 N.2       1 <0>        -0.4586
     11 S1         -2.0045    2.2848   -7.8798 S.3       1 <0>         0.5746
     12 N2         -1.6125    2.4167   -6.2258 N.2       1 <0>        -0.5044
     13 C9          1.1340    0.3040   -7.3965 C.2       1 <0>        -0.0891
     14 C10         1.5480   -0.0981   -8.5783 C.2       1 <0>        -0.0908
     15 C11         2.7753   -0.9465   -8.7629 C.3       1 <0>        -0.1216
     16 C12         3.6271   -0.9079   -7.4915 C.3       1 <0>        -0.0055
     17 C13         1.8402   -0.0463   -6.1184 C.3       1 <0>         0.0501
     18 C14         3.5479   -1.4488   -5.1301 C.3       1 <0>        -0.0400
     19 H1          2.0826    3.0233    2.1398 H         1 <0>         0.0541
     20 H2          0.6573    3.1417    3.1994 H         1 <0>         0.0574
     21 H3          1.1082    1.5746    2.4860 H         1 <0>         0.0539
     22 H4          0.1609    4.0285    0.9376 H         1 <0>         0.0631
     23 H5         -0.8135    2.5797    1.2838 H         1 <0>         0.0630
     24 H6          0.8142    1.1867    0.0354 H         1 <0>         0.0628
     25 H7          1.7886    2.6355   -0.3108 H         1 <0>         0.0632
     26 H8         -1.1075    2.1919   -1.1668 H         1 <0>         0.0694
     27 H9         -0.1331    3.6407   -1.5130 H         1 <0>         0.0697
     28 H10         1.4947    2.2476   -2.7614 H         1 <0>         0.0748
     29 H11         0.5203    0.7988   -2.4152 H         1 <0>         0.0733
     30 H12        -1.4014    1.8040   -3.6174 H         1 <0>         0.0767
     31 H13        -0.4270    3.2528   -3.9636 H         1 <0>         0.0770
     32 H14         0.9858    0.1967   -9.4520 H         1 <0>         0.1508
     33 H15         3.3586   -0.5672   -9.6019 H         1 <0>         0.1303
     34 H16         2.4741   -1.9741   -8.9666 H         1 <0>         0.1120
     35 H17         4.0838    0.0762   -7.3865 H         1 <0>         0.1344
     36 H18         4.4035   -1.6708   -7.5478 H         1 <0>         0.1386
     37 H19         2.4078    0.8170   -5.7712 H         1 <0>         0.1459
     38 H20         1.1040   -0.3192   -5.3623 H         1 <0>         0.1468
     39 H21         2.8803   -1.6945   -4.3043 H         1 <0>         0.1241
     40 H22         4.2168   -2.2885   -5.3187 H         1 <0>         0.1259
     41 H23         4.1350   -0.5673   -4.8728 H         1 <0>         0.1244
     42 N3          2.7409   -1.1920   -6.3446 N.4       1 <0>        -0.3957
     43 H24         2.1782   -2.0249   -6.5541 H         1 <0>         0.4318
@<TRIPOS>BOND
     1    1    2 1
     2    1   19 1
     3    1   20 1
     4    1   21 1
     5    2    3 1
     6    2   22 1
     7    2   23 1
     8    3    4 1
     9    3   24 1
    10    3   25 1
    11    4    5 1
    12    4   26 1
    13    4   27 1
    14    5    6 1
    15    5   28 1
    16    5   29 1
    17    6    7 1
    18    6   30 1
    19    6   31 1
    20    7    8 1
    21    8   12 2
    22    8    9 1
    23    9   10 2
    24    9   13 1
    25   10   11 1
    26   11   12 1
    27   13   17 1
    28   13   14 2
    29   14   15 1
    30   14   32 1
    31   15   16 1
    32   15   33 1
    33   15   34 1
    34   16   35 1
    35   16   36 1
    36   16   42 1
    37   17   37 1
    38   17   38 1
    39   17   42 1
    40   18   39 1
    41   18   40 1
    42   18   41 1
    43   18   42 1
    44   42   43 1
@<TRIPOS>MOLECULE
ZINC03820029
   64    68     0     0     0
SMALL
USER_CHARGES
8-(3-amino-1-piperidyl)-7-but-2-ynyl-3-methyl-1-[(4-methylquinazolin-2-yl)methyl]purine-2,6-dione
@<TRIPOS>ATOM
      1 C1         -0.0127    1.0858    0.0080 C.3       1 <0>        -0.0547
      2 C2         -0.7017    1.5605    1.2191 C.1       1 <0>        -0.1093
      3 C3         -1.2512    1.9391    2.1850 C.1       1 <0>        -0.2443
      4 C4         -1.9402    2.4139    3.3961 C.3       1 <0>         0.2271
      5 N1         -1.9601    3.8787    3.4041 N.pl3     1 <0>        -0.4059
      6 C5         -2.9417    4.6969    2.8612 C.2       1 <0>        -0.1370
      7 C6         -2.5399    6.0057    3.1060 C.2       1 <0>         0.3423
      8 N2         -1.3789    5.9543    3.7608 N.2       1 <0>        -0.5198
      9 C7         -1.0240    4.6995    3.9498 C.2       1 <0>         0.4549
     10 N3          0.1178    4.2847    4.5959 N.pl3     1 <0>        -0.4398
     11 C8          0.9191    3.4048    3.7356 C.3       1 <0>         0.0235
     12 C9          2.1011    2.8484    4.5327 C.3       1 <0>        -0.1114
     13 C10         2.9571    4.0100    5.0448 C.3       1 <0>        -0.1448
     14 C11         2.0873    4.9373    5.8982 C.3       1 <0>         0.0301
     15 H1          1.7155    4.3920    6.7657 H         1 <0>         0.1541
     16 C12         0.9057    5.4331    5.0615 C.3       1 <0>         0.0479
     17 N4         -3.3446    7.0444    2.6659 N.am      1 <0>        -0.5131
     18 C13        -4.4924    6.7787    2.0142 C.2       1 <0>         0.7040
     19 O1         -5.1866    7.7022    1.6350 O.2       1 <0>        -0.5019
     20 N5         -4.8900    5.5175    1.7729 N.am      1 <0>        -0.5442
     21 C14        -4.1478    4.4657    2.1765 C.2       1 <0>         0.5885
     22 O2         -4.5195    3.3271    1.9512 O.2       1 <0>        -0.4841
     23 C15        -6.1480    5.2816    1.0600 C.3       1 <0>         0.1896
     24 C16        -5.8811    5.2174   -0.4218 C.ar      1 <0>         0.2963
     25 N6         -5.9440    6.3380   -1.1262 N.ar      1 <0>        -0.5026
     26 C17        -5.7160    6.3521   -2.4241 C.ar      1 <0>         0.2233
     27 C18        -5.4111    5.1360   -3.0616 C.ar      1 <0>        -0.1583
     28 C19        -5.1609    5.0581   -4.4396 C.ar      1 <0>        -0.0791
     29 C20        -4.8711    3.8513   -5.0011 C.ar      1 <0>        -0.1146
     30 C21        -4.8197    2.6940   -4.2265 C.ar      1 <0>        -0.0798
     31 C22        -5.0578    2.7337   -2.8859 C.ar      1 <0>        -0.0982
     32 C23        -5.3594    3.9583   -2.2721 C.ar      1 <0>         0.1567
     33 N7         -5.6020    4.0541   -0.9589 N.ar      1 <0>        -0.4786
     34 C24        -5.7858    7.6381   -3.2067 C.3       1 <0>        -0.1125
     35 C25        -2.9459    8.4328    2.9096 C.3       1 <0>         0.0911
     36 H2          0.0021   -0.0041    0.0020 H         1 <0>         0.0937
     37 H3          1.0099    1.4631    0.0003 H         1 <0>         0.0854
     38 H4         -0.5399    1.4469   -0.8751 H         1 <0>         0.0889
     39 H5         -2.9628    2.0366    3.4038 H         1 <0>         0.1333
     40 H6         -1.4130    2.0528    4.2791 H         1 <0>         0.1247
     41 H7          0.2997    2.5808    3.3816 H         1 <0>         0.1115
     42 H8          1.2912    3.9719    2.8823 H         1 <0>         0.0627
     43 H9          2.7044    2.2077    3.8895 H         1 <0>         0.1024
     44 H10         1.7301    2.2693    5.3783 H         1 <0>         0.0919
     45 H11         3.3607    4.5659    4.1985 H         1 <0>         0.0891
     46 H12         3.7766    3.6211    5.6492 H         1 <0>         0.0996
     47 H13         1.2779    5.9907    4.2020 H         1 <0>         0.0802
     48 H14         0.2765    6.0823    5.6705 H         1 <0>         0.1180
     49 H15         3.6738    5.7832    6.9010 H         1 <0>         0.4437
     50 H16         3.1904    6.6426    5.5618 H         1 <0>         0.4364
     51 H17        -6.5825    4.3388    1.3921 H         1 <0>         0.1290
     52 H18        -6.8423    6.0954    1.2692 H         1 <0>         0.1312
     53 H19        -5.1974    5.9479   -5.0505 H         1 <0>         0.1398
     54 H20        -4.6787    3.7904   -6.0621 H         1 <0>         0.1356
     55 H21        -4.5877    1.7500   -4.6969 H         1 <0>         0.1371
     56 H22        -5.0142    1.8280   -2.2992 H         1 <0>         0.1407
     57 H23        -6.8028    7.7883   -3.5689 H         1 <0>         0.0950
     58 H24        -5.5026    8.4709   -2.5630 H         1 <0>         0.0902
     59 H25        -5.1024    7.5852   -4.0542 H         1 <0>         0.0843
     60 H26        -2.3420    8.7892    2.0750 H         1 <0>         0.0714
     61 H27        -3.8358    9.0549    3.0059 H         1 <0>         0.0980
     62 H28        -2.3631    8.4875    3.8291 H         1 <0>         0.0878
     63 N8          2.8697    6.0973    6.3602 N.4       1 <0>        -0.6414
     64 H29         2.2771    6.6893    6.9539 H         1 <0>         0.4443
@<TRIPOS>BOND
     1    1    2 1
     2    1   36 1
     3    1   37 1
     4    1   38 1
     5    2    3 3
     6    3    4 1
     7    4    5 1
     8    4   39 1
     9    4   40 1
    10    5    9 1
    11    5    6 1
    12    6   21 1
    13    6    7 2
    14    7    8 1
    15    7   17 1
    16    8    9 2
    17    9   10 1
    18   10   16 1
    19   10   11 1
    20   11   12 1
    21   11   41 1
    22   11   42 1
    23   12   13 1
    24   12   43 1
    25   12   44 1
    26   13   14 1
    27   13   45 1
    28   13   46 1
    29   14   15 1
    30   14   16 1
    31   14   63 1
    32   16   47 1
    33   16   48 1
    34   17   18 am
    35   17   35 1
    36   18   19 2
    37   18   20 am
    38   20   21 am
    39   20   23 1
    40   21   22 2
    41   23   24 1
    42   23   51 1
    43   23   52 1
    44   24   33 ar
    45   24   25 ar
    46   25   26 ar
    47   26   27 ar
    48   26   34 1
    49   27   32 ar
    50   27   28 ar
    51   28   29 ar
    52   28   53 1
    53   29   30 ar
    54   29   54 1
    55   30   31 ar
    56   30   55 1
    57   31   32 ar
    58   31   56 1
    59   32   33 ar
    60   34   57 1
    61   34   58 1
    62   34   59 1
    63   35   60 1
    64   35   61 1
    65   35   62 1
    66   49   63 1
    67   50   63 1
    68   63   64 1
@<TRIPOS>MOLECULE
ZINC03820029
   65    69     0     0     0
SMALL
USER_CHARGES
8-(3-amino-1-piperidyl)-7-but-2-ynyl-3-methyl-1-[(4-methylquinazolin-2-yl)methyl]purine-2,6-dione
@<TRIPOS>ATOM
      1 C1          0.6350   -2.8855    0.3054 C.3       1 <0>        -0.0693
      2 C2          0.4451   -1.4289    0.2109 C.1       1 <0>        -0.0559
      3 C3          0.2937   -0.2671    0.1356 C.1       1 <0>        -0.2834
      4 C4          0.1039    1.1896    0.0412 C.3       1 <0>         0.2298
      5 N1          1.4105    1.8515    0.0135 N.pl3     1 <0>        -0.3169
      6 C5          2.1885    2.1025   -1.1088 C.2       1 <0>        -0.0575
      7 C6          3.3348    2.7457   -0.6547 C.2       1 <0>         0.3696
      8 C7          2.0930    2.3441    1.0809 C.cat     1 <0>         0.4943
      9 N2          1.6636    2.3021    2.3875 N.pl3     1 <0>        -0.4831
     10 C8          1.4867    3.6564    2.9270 C.3       1 <0>         0.0318
     11 C9          0.8724    3.5733    4.3262 C.3       1 <0>        -0.1310
     12 C10         1.7953    2.7577    5.2359 C.3       1 <0>        -0.1539
     13 C11         2.0018    1.3682    4.6266 C.3       1 <0>         0.0477
     14 H1          2.6918    0.7968    5.2476 H         1 <0>         0.1665
     15 C12         2.5834    1.5153    3.2187 C.3       1 <0>         0.0152
     16 N3          4.3007    3.1181   -1.5760 N.am      1 <0>        -0.5114
     17 C13         4.1209    2.8567   -2.8844 C.2       1 <0>         0.7014
     18 O1          4.9786    3.1904   -3.6792 O.2       1 <0>        -0.4485
     19 N4          3.0167    2.2356   -3.3337 N.am      1 <0>        -0.5347
     20 C14         2.0426    1.8491   -2.4842 C.2       1 <0>         0.5806
     21 O2          1.0465    1.2866   -2.9044 O.2       1 <0>        -0.4361
     22 C15         2.8692    1.9738   -4.7676 C.3       1 <0>         0.1873
     23 C16         3.4594    0.6266   -5.0956 C.ar      1 <0>         0.2826
     24 N5          4.7384    0.5609   -5.4363 N.ar      1 <0>        -0.5090
     25 C17         5.3173   -0.5860   -5.7295 C.ar      1 <0>         0.2311
     26 C18         4.5396   -1.7570   -5.6852 C.ar      1 <0>        -0.1542
     27 C19         5.0729   -3.0188   -5.9869 C.ar      1 <0>        -0.0790
     28 C20         4.2702   -4.1178   -5.9263 C.ar      1 <0>        -0.1080
     29 C21         2.9281   -4.0063   -5.5686 C.ar      1 <0>        -0.0736
     30 C22         2.3780   -2.7966   -5.2693 C.ar      1 <0>        -0.1015
     31 C23         3.1731   -1.6424   -5.3213 C.ar      1 <0>         0.1553
     32 N6          2.6838   -0.4291   -5.0367 N.ar      1 <0>        -0.4798
     33 C24         6.7750   -0.6408   -6.1082 C.3       1 <0>        -0.1164
     34 C25         5.5182    3.7971   -1.1258 C.3       1 <0>         0.0617
     35 H2         -0.3372   -3.3780    0.3260 H         1 <0>         0.0969
     36 H3          1.2010   -3.2349   -0.5581 H         1 <0>         0.0935
     37 H4          1.1816   -3.1223    1.2182 H         1 <0>         0.1048
     38 H5         -0.4428    1.4263   -0.8716 H         1 <0>         0.1556
     39 H6         -0.4621    1.5389    0.9047 H         1 <0>         0.1454
     40 H7          2.4550    4.1537    2.9845 H         1 <0>         0.0794
     41 H8          0.8251    4.2244    2.2730 H         1 <0>         0.1184
     42 H9         -0.1021    3.0884    4.2676 H         1 <0>         0.0830
     43 H10         0.7552    4.5777    4.7331 H         1 <0>         0.1213
     44 H11         1.3408    2.6593    6.2218 H         1 <0>         0.1126
     45 H12         2.7572    3.2622    5.3270 H         1 <0>         0.1205
     46 H13         2.7183    0.5281    2.7766 H         1 <0>         0.1233
     47 H14         3.5465    2.0227    3.2750 H         1 <0>         0.1091
     48 H15         0.3081    0.5587    5.4719 H         1 <0>         0.4478
     49 H16         0.0763    1.1453    3.9331 H         1 <0>         0.4375
     50 H17         1.8116    1.9811   -5.0313 H         1 <0>         0.1385
     51 H18         3.3901    2.7462   -5.3334 H         1 <0>         0.1406
     52 H19         6.1118   -3.1184   -6.2648 H         1 <0>         0.1432
     53 H20         4.6801   -5.0896   -6.1585 H         1 <0>         0.1400
     54 H21         2.3138   -4.8936   -5.5283 H         1 <0>         0.1405
     55 H22         1.3361   -2.7267   -4.9937 H         1 <0>         0.1414
     56 H23         6.8746   -0.5241   -7.1873 H         1 <0>         0.0995
     57 H24         7.3116    0.1633   -5.6047 H         1 <0>         0.0907
     58 H25         7.1929   -1.6012   -5.8064 H         1 <0>         0.0874
     59 H26         6.2837    3.0560   -0.8959 H         1 <0>         0.0970
     60 H27         5.8780    4.4585   -1.9141 H         1 <0>         0.1266
     61 H28         5.2989    4.3822   -0.2326 H         1 <0>         0.0884
     62 N7          0.7201    0.6458    4.5444 N.4       1 <0>        -0.6459
     63 H29         0.8855   -0.2925    4.1618 H         1 <0>         0.4432
     64 N8          3.2335    2.8662    0.6717 N.pl3     1 <0>        -0.5100
     65 H30         3.9371    3.2997    1.2810 H         1 <0>         0.4777
@<TRIPOS>BOND
     1    1    2 1
     2    1   35 1
     3    1   36 1
     4    1   37 1
     5    2    3 3
     6    3    4 1
     7    4    5 1
     8    4   38 1
     9    4   39 1
    10    5    8 1
    11    5    6 1
    12    6   20 1
    13    6    7 2
    14    7   16 1
    15    7   64 1
    16    8    9 1
    17    8   64 2
    18    9   15 1
    19    9   10 1
    20   10   11 1
    21   10   40 1
    22   10   41 1
    23   11   12 1
    24   11   42 1
    25   11   43 1
    26   12   13 1
    27   12   44 1
    28   12   45 1
    29   13   14 1
    30   13   15 1
    31   13   62 1
    32   15   46 1
    33   15   47 1
    34   16   17 am
    35   16   34 1
    36   17   18 2
    37   17   19 am
    38   19   20 am
    39   19   22 1
    40   20   21 2
    41   22   23 1
    42   22   50 1
    43   22   51 1
    44   23   32 ar
    45   23   24 ar
    46   24   25 ar
    47   25   26 ar
    48   25   33 1
    49   26   31 ar
    50   26   27 ar
    51   27   28 ar
    52   27   52 1
    53   28   29 ar
    54   28   53 1
    55   29   30 ar
    56   29   54 1
    57   30   31 ar
    58   30   55 1
    59   31   32 ar
    60   33   56 1
    61   33   57 1
    62   33   58 1
    63   34   59 1
    64   34   60 1
    65   34   61 1
    66   48   62 1
    67   49   62 1
    68   62   63 1
    69   64   65 1
@<TRIPOS>MOLECULE
ZINC01547932
   33    33     0     0     0
SMALL
USER_CHARGES

@<TRIPOS>ATOM
      1 C1         -0.0178    1.4648    0.0101 C.3       1 <0>        -0.0459
      2 N1          0.0021   -0.0041    0.0020 N.4       1 <0>        -0.2730
      3 C2          0.7126   -0.4907    1.1921 C.3       1 <0>        -0.0460
      4 C3         -1.3761   -0.5125    0.0124 C.3       1 <0>        -0.0446
      5 C4          0.6897   -0.4778   -1.2066 C.3       1 <0>         0.1335
      6 C5          2.0706    0.0317   -1.2170 C.1       1 <0>        -0.2619
      7 C6          3.1720    0.4380   -1.2254 C.1       1 <0>        -0.0715
      8 C7          4.5530    0.9475   -1.2358 C.3       1 <0>         0.2174
      9 N2          5.2387    0.4751   -2.4411 N.am      1 <0>        -0.6239
     10 C8          5.9904   -0.7825   -2.5271 C.3       1 <0>         0.0986
     11 C9          6.1482   -1.0660   -4.0374 C.3       1 <0>        -0.1329
     12 C10         6.0500    0.3559   -4.6370 C.3       1 <0>        -0.1565
     13 C11         5.2554    1.1349   -3.6121 C.2       1 <0>         0.5206
     14 O1          4.7144    2.2010   -3.8165 O.2       1 <0>        -0.5253
     15 H1          1.0047    1.8421    0.0024 H         1 <0>         0.1193
     16 H2         -0.5450    1.8259   -0.8730 H         1 <0>         0.1219
     17 H3         -0.5280    1.8163    0.9069 H         1 <0>         0.1248
     18 H4          0.2024   -0.1392    2.0889 H         1 <0>         0.1245
     19 H5          0.7273   -1.5806    1.1861 H         1 <0>         0.1234
     20 H6          1.7352   -0.1134    1.1844 H         1 <0>         0.1187
     21 H7         -1.9033   -0.1515   -0.8706 H         1 <0>         0.1240
     22 H8         -1.3613   -1.6024    0.0064 H         1 <0>         0.1246
     23 H9         -1.8863   -0.1610    0.9092 H         1 <0>         0.1263
     24 H10         0.7044   -1.5677   -1.2126 H         1 <0>         0.1474
     25 H11         0.1625   -0.1167   -2.0897 H         1 <0>         0.1460
     26 H12         4.5382    2.0374   -1.2298 H         1 <0>         0.1219
     27 H13         5.0802    0.5865   -0.3528 H         1 <0>         0.1228
     28 H14         6.9689   -0.6697   -2.0602 H         1 <0>         0.0835
     29 H15         5.4339   -1.5881   -2.0482 H         1 <0>         0.0804
     30 H16         7.1191   -1.5132   -4.2510 H         1 <0>         0.0993
     31 H17         5.3398   -1.6998   -4.4019 H         1 <0>         0.0827
     32 H18         7.0434    0.7864   -4.7628 H         1 <0>         0.1133
     33 H19         5.5200    0.3326   -5.5892 H         1 <0>         0.1066
@<TRIPOS>BOND
     1    1    2 1
     2    1   15 1
     3    1   16 1
     4    1   17 1
     5    2    3 1
     6    2    4 1
     7    2    5 1
     8    3   18 1
     9    3   19 1
    10    3   20 1
    11    4   21 1
    12    4   22 1
    13    4   23 1
    14    5    6 1
    15    5   24 1
    16    5   25 1
    17    6    7 3
    18    7    8 1
    19    8    9 1
    20    8   26 1
    21    8   27 1
    22    9   13 am
    23    9   10 1
    24   10   11 1
    25   10   28 1
    26   10   29 1
    27   11   12 1
    28   11   30 1
    29   11   31 1
    30   12   13 1
    31   12   32 1
    32   12   33 1
    33   13   14 2
@<TRIPOS>MOLECULE
ZINC12405177
   82    83     0     0     0
SMALL
USER_CHARGES
3-[4-[(E)-2-[4-(dibutylamino)phenyl]vinyl]pyridin-1-ium-1-yl]propyl-triethyl-ammonium
@<TRIPOS>ATOM
      1 C1         -5.9186    2.3509   13.1615 C.3       1 <0>        -0.1542
      2 C2         -6.5274    3.3040   12.1311 C.3       1 <0>        -0.1231
      3 C3         -5.4187    4.1492   11.5007 C.3       1 <0>        -0.1384
      4 C4         -6.0275    5.1024   10.4702 C.3       1 <0>         0.1116
      5 N1         -4.9659    5.9117    9.8666 N.pl3     1 <0>        -0.6057
      6 C5         -4.5904    7.1937   10.4680 C.3       1 <0>         0.1110
      7 C6         -5.4380    8.3114    9.8570 C.3       1 <0>        -0.1378
      8 C7         -5.0459    9.6502   10.4852 C.3       1 <0>        -0.1235
      9 C8         -5.8934   10.7679    9.8742 C.3       1 <0>        -0.1539
     10 C9         -4.3130    5.4618    8.7198 C.ar      1 <0>         0.2660
     11 C10        -3.3052    6.2318    8.1481 C.ar      1 <0>        -0.2085
     12 C11        -2.6577    5.7907    7.0156 C.ar      1 <0>        -0.0210
     13 C12        -3.0147    4.5673    6.4400 C.ar      1 <0>        -0.1888
     14 C13        -4.0322    3.7989    7.0144 C.ar      1 <0>        -0.0256
     15 C14        -4.6714    4.2444    8.1499 C.ar      1 <0>        -0.2089
     16 C15        -2.3250    4.0921    5.2287 C.2       1 <0>         0.0554
     17 C16        -2.6694    2.9163    4.6771 C.2       1 <0>        -0.2361
     18 C17        -1.9797    2.4411    3.4655 C.ar      1 <0>         0.1125
     19 C18        -2.3231    1.2174    2.8735 C.ar      1 <0>        -0.1365
     20 C19        -1.6514    0.8123    1.7401 C.ar      1 <0>         0.1224
     21 N2         -0.6984    1.5583    1.2133 N.ar      1 <0>        -0.3723
     22 C20        -0.3398    2.7138    1.7408 C.ar      1 <0>         0.1270
     23 C21        -0.9614    3.1997    2.8712 C.ar      1 <0>        -0.1524
     24 C22        -0.0127    1.0858    0.0080 C.3       1 <0>         0.0621
     25 C23        -0.7527    1.5927   -1.2315 C.3       1 <0>        -0.1760
     26 C24        -0.0366    1.0992   -2.4903 C.3       1 <0>        -0.0145
     27 N3         -0.7471    1.5859   -3.6804 N.4       1 <0>        -0.2648
     28 C25        -0.7670    3.0547   -3.6723 C.3       1 <0>        -0.0213
     29 C26         0.6684    3.5843   -3.6832 C.3       1 <0>        -0.1898
     30 C27        -0.0595    1.1121   -4.8890 C.3       1 <0>        -0.0191
     31 C28        -0.7995    1.6189   -6.1286 C.3       1 <0>        -0.1903
     32 C29        -2.1252    1.0774   -3.6700 C.3       1 <0>        -0.0213
     33 C30        -2.1045   -0.4524   -3.6784 C.3       1 <0>        -0.1898
     34 H1         -6.7084    1.7488   13.6106 H         1 <0>         0.0587
     35 H2         -5.1979    1.6970   12.6704 H         1 <0>         0.0531
     36 H3         -5.4158    2.9279   13.9376 H         1 <0>         0.0556
     37 H4         -7.2481    3.9579   12.6222 H         1 <0>         0.0656
     38 H5         -7.0302    2.7270   11.3550 H         1 <0>         0.0626
     39 H6         -4.6980    3.4954   11.0096 H         1 <0>         0.0652
     40 H7         -4.9159    4.7262   12.2768 H         1 <0>         0.0673
     41 H8         -6.7482    5.7562   10.9613 H         1 <0>         0.0836
     42 H9         -6.5303    4.5254    9.6941 H         1 <0>         0.0802
     43 H10        -4.7618    7.1544   11.5437 H         1 <0>         0.0838
     44 H11        -3.5359    7.3905   10.2750 H         1 <0>         0.0810
     45 H12        -5.2667    8.3506    8.7813 H         1 <0>         0.0651
     46 H13        -6.4926    8.1145   10.0500 H         1 <0>         0.0668
     47 H14        -5.2172    9.6110   11.5609 H         1 <0>         0.0657
     48 H15        -3.9913    9.8471   10.2922 H         1 <0>         0.0633
     49 H16        -5.6141   11.7218   10.3217 H         1 <0>         0.0588
     50 H17        -5.7221   10.8072    8.7985 H         1 <0>         0.0530
     51 H18        -6.9480   10.5711   10.0672 H         1 <0>         0.0552
     52 H19        -3.0301    7.1766    8.5932 H         1 <0>         0.1337
     53 H20        -1.8754    6.3890    6.5724 H         1 <0>         0.1289
     54 H21        -4.3137    2.8556    6.5702 H         1 <0>         0.1270
     55 H22        -5.4547    3.6498    8.5962 H         1 <0>         0.1328
     56 H23        -1.5425    4.6887    4.7837 H         1 <0>         0.1270
     57 H24        -3.4520    2.3197    5.1221 H         1 <0>         0.1467
     58 H25        -3.1015    0.6016    3.2992 H         1 <0>         0.1832
     59 H26        -1.9082   -0.1289    1.2767 H         1 <0>         0.1996
     60 H27         0.4486    3.2886    1.2779 H         1 <0>         0.1994
     61 H28        -0.6657    4.1482    3.2947 H         1 <0>         0.1801
     62 H29         0.0021   -0.0041    0.0020 H         1 <0>         0.1334
     63 H30         1.0099    1.4631    0.0003 H         1 <0>         0.1331
     64 H31        -1.7753    1.2154   -1.2238 H         1 <0>         0.1054
     65 H32        -0.7675    2.6825   -1.2255 H         1 <0>         0.1052
     66 H33         0.9860    1.4765   -2.4981 H         1 <0>         0.1398
     67 H34        -0.0218    0.0093   -2.4963 H         1 <0>         0.1399
     68 H35        -1.2942    3.4158   -4.5554 H         1 <0>         0.1364
     69 H36        -1.2772    3.4062   -2.7756 H         1 <0>         0.1242
     70 H37         1.1956    3.2232   -2.8002 H         1 <0>         0.0766
     71 H38         1.1786    3.2328   -4.5800 H         1 <0>         0.0866
     72 H39         0.6536    4.6742   -3.6772 H         1 <0>         0.1087
     73 H40         0.9631    1.4894   -4.8968 H         1 <0>         0.1330
     74 H41        -0.0447    0.0222   -4.8950 H         1 <0>         0.1330
     75 H42        -0.8142    2.7088   -6.1226 H         1 <0>         0.0823
     76 H43        -0.2893    1.2674   -7.0254 H         1 <0>         0.1101
     77 H44        -1.8221    1.2417   -6.1208 H         1 <0>         0.0824
     78 H45        -2.6354    1.4289   -2.7732 H         1 <0>         0.1243
     79 H46        -2.6524    1.4385   -4.5531 H         1 <0>         0.1364
     80 H47        -1.5943   -0.8040   -4.5752 H         1 <0>         0.0866
     81 H48        -1.5773   -0.8135   -2.7954 H         1 <0>         0.0767
     82 H49        -3.1271   -0.8297   -3.6707 H         1 <0>         0.1088
@<TRIPOS>BOND
     1    1    2 1
     2    1   34 1
     3    1   35 1
     4    1   36 1
     5    2    3 1
     6    2   37 1
     7    2   38 1
     8    3    4 1
     9    3   39 1
    10    3   40 1
    11    4    5 1
    12    4   41 1
    13    4   42 1
    14    5    6 1
    15    5   10 1
    16    6    7 1
    17    6   43 1
    18    6   44 1
    19    7    8 1
    20    7   45 1
    21    7   46 1
    22    8    9 1
    23    8   47 1
    24    8   48 1
    25    9   49 1
    26    9   50 1
    27    9   51 1
    28   10   15 ar
    29   10   11 ar
    30   11   12 ar
    31   11   52 1
    32   12   13 ar
    33   12   53 1
    34   13   14 ar
    35   13   16 1
    36   14   15 ar
    37   14   54 1
    38   15   55 1
    39   16   17 2
    40   16   56 1
    41   17   18 1
    42   17   57 1
    43   18   23 ar
    44   18   19 ar
    45   19   20 ar
    46   19   58 1
    47   20   21 ar
    48   20   59 1
    49   21   22 ar
    50   21   24 1
    51   22   23 ar
    52   22   60 1
    53   23   61 1
    54   24   25 1
    55   24   62 1
    56   24   63 1
    57   25   26 1
    58   25   64 1
    59   25   65 1
    60   26   27 1
    61   26   66 1
    62   26   67 1
    63   27   28 1
    64   27   30 1
    65   27   32 1
    66   28   29 1
    67   28   68 1
    68   28   69 1
    69   29   70 1
    70   29   71 1
    71   29   72 1
    72   30   31 1
    73   30   73 1
    74   30   74 1
    75   31   75 1
    76   31   76 1
    77   31   77 1
    78   32   33 1
    79   32   78 1
    80   32   79 1
    81   33   80 1
    82   33   81 1
    83   33   82 1
@<TRIPOS>MOLECULE
ZINC02565899
   70    71     0     0     0
SMALL
USER_CHARGES
3-[4-[(E)-2-(4-diethylaminophenyl)vinyl]pyridin-1-ium-1-yl]propyl-triethyl-ammonium
@<TRIPOS>ATOM
      1 C1         -5.4187    4.1492   11.5007 C.3       1 <0>        -0.1744
      2 C2         -6.0275    5.1024   10.4702 C.3       1 <0>         0.1077
      3 N1         -4.9659    5.9117    9.8666 N.pl3     1 <0>        -0.6071
      4 C3         -4.5904    7.1937   10.4680 C.3       1 <0>         0.1072
      5 C4         -5.4380    8.3114    9.8570 C.3       1 <0>        -0.1740
      6 C5         -4.3130    5.4618    8.7198 C.ar      1 <0>         0.2654
      7 C6         -3.3052    6.2318    8.1481 C.ar      1 <0>        -0.2092
      8 C7         -2.6577    5.7907    7.0156 C.ar      1 <0>        -0.0209
      9 C8         -3.0147    4.5673    6.4400 C.ar      1 <0>        -0.1891
     10 C9         -4.0322    3.7989    7.0144 C.ar      1 <0>        -0.0255
     11 C10        -4.6714    4.2444    8.1499 C.ar      1 <0>        -0.2096
     12 C11        -2.3250    4.0921    5.2287 C.2       1 <0>         0.0554
     13 C12        -2.6694    2.9163    4.6771 C.2       1 <0>        -0.2360
     14 C13        -1.9797    2.4411    3.4655 C.ar      1 <0>         0.1124
     15 C14        -2.3231    1.2174    2.8735 C.ar      1 <0>        -0.1365
     16 C15        -1.6514    0.8123    1.7401 C.ar      1 <0>         0.1224
     17 N2         -0.6984    1.5583    1.2133 N.ar      1 <0>        -0.3723
     18 C16        -0.3398    2.7138    1.7408 C.ar      1 <0>         0.1270
     19 C17        -0.9614    3.1997    2.8712 C.ar      1 <0>        -0.1524
     20 C18        -0.0127    1.0858    0.0080 C.3       1 <0>         0.0622
     21 C19        -0.7527    1.5927   -1.2315 C.3       1 <0>        -0.1760
     22 C20        -0.0366    1.0992   -2.4903 C.3       1 <0>        -0.0145
     23 N3         -0.7471    1.5859   -3.6804 N.4       1 <0>        -0.2648
     24 C21        -0.0595    1.1121   -4.8890 C.3       1 <0>        -0.0191
     25 C22        -0.7995    1.6190   -6.1286 C.3       1 <0>        -0.1903
     26 C23        -2.1252    1.0774   -3.6700 C.3       1 <0>        -0.0213
     27 C24        -2.1045   -0.4524   -3.6784 C.3       1 <0>        -0.1898
     28 C25        -0.7670    3.0547   -3.6723 C.3       1 <0>        -0.0213
     29 C26         0.6684    3.5843   -3.6832 C.3       1 <0>        -0.1897
     30 H1         -4.9159    4.7262   12.2768 H         1 <0>         0.0609
     31 H2         -6.2085    3.5471   11.9498 H         1 <0>         0.0722
     32 H3         -4.6980    3.4954   11.0096 H         1 <0>         0.0582
     33 H4         -6.7482    5.7562   10.9613 H         1 <0>         0.0840
     34 H5         -6.5303    4.5254    9.6941 H         1 <0>         0.0802
     35 H6         -4.7618    7.1544   11.5437 H         1 <0>         0.0841
     36 H7         -3.5359    7.3905   10.2750 H         1 <0>         0.0810
     37 H8         -6.4926    8.1145   10.0500 H         1 <0>         0.0604
     38 H9         -5.1586    9.2652   10.3045 H         1 <0>         0.0725
     39 H10        -5.2667    8.3506    8.7813 H         1 <0>         0.0581
     40 H11        -3.0301    7.1766    8.5932 H         1 <0>         0.1339
     41 H12        -1.8754    6.3890    6.5724 H         1 <0>         0.1293
     42 H13        -4.3137    2.8556    6.5702 H         1 <0>         0.1274
     43 H14        -5.4547    3.6498    8.5962 H         1 <0>         0.1330
     44 H15        -1.5425    4.6887    4.7837 H         1 <0>         0.1271
     45 H16        -3.4520    2.3197    5.1221 H         1 <0>         0.1468
     46 H17        -3.1015    0.6016    3.2992 H         1 <0>         0.1832
     47 H18        -1.9082   -0.1289    1.2767 H         1 <0>         0.1997
     48 H19         0.4486    3.2886    1.2779 H         1 <0>         0.1994
     49 H20        -0.6657    4.1482    3.2947 H         1 <0>         0.1801
     50 H21         0.0021   -0.0041    0.0020 H         1 <0>         0.1334
     51 H22         1.0099    1.4631    0.0003 H         1 <0>         0.1331
     52 H23        -1.7753    1.2154   -1.2238 H         1 <0>         0.1054
     53 H24        -0.7675    2.6825   -1.2255 H         1 <0>         0.1052
     54 H25         0.9860    1.4765   -2.4981 H         1 <0>         0.1398
     55 H26        -0.0218    0.0093   -2.4963 H         1 <0>         0.1399
     56 H27         0.9631    1.4894   -4.8968 H         1 <0>         0.1329
     57 H28        -0.0447    0.0222   -4.8950 H         1 <0>         0.1330
     58 H29        -0.8142    2.7088   -6.1226 H         1 <0>         0.0823
     59 H30        -0.2893    1.2674   -7.0254 H         1 <0>         0.1100
     60 H31        -1.8220    1.2417   -6.1208 H         1 <0>         0.0824
     61 H32        -2.6354    1.4289   -2.7732 H         1 <0>         0.1243
     62 H33        -2.6524    1.4385   -4.5531 H         1 <0>         0.1364
     63 H34        -1.5943   -0.8040   -4.5752 H         1 <0>         0.0866
     64 H35        -1.5773   -0.8135   -2.7954 H         1 <0>         0.0766
     65 H36        -3.1271   -0.8297   -3.6707 H         1 <0>         0.1088
     66 H37        -1.2942    3.4158   -4.5554 H         1 <0>         0.1364
     67 H38        -1.2772    3.4062   -2.7756 H         1 <0>         0.1242
     68 H39         0.6536    4.6742   -3.6772 H         1 <0>         0.1087
     69 H40         1.1956    3.2232   -2.8002 H         1 <0>         0.0766
     70 H41         1.1786    3.2328   -4.5800 H         1 <0>         0.0866
@<TRIPOS>BOND
     1    1    2 1
     2    1   30 1
     3    1   31 1
     4    1   32 1
     5    2    3 1
     6    2   33 1
     7    2   34 1
     8    3    4 1
     9    3    6 1
    10    4    5 1
    11    4   35 1
    12    4   36 1
    13    5   37 1
    14    5   38 1
    15    5   39 1
    16    6   11 ar
    17    6    7 ar
    18    7    8 ar
    19    7   40 1
    20    8    9 ar
    21    8   41 1
    22    9   10 ar
    23    9   12 1
    24   10   11 ar
    25   10   42 1
    26   11   43 1
    27   12   13 2
    28   12   44 1
    29   13   14 1
    30   13   45 1
    31   14   19 ar
    32   14   15 ar
    33   15   16 ar
    34   15   46 1
    35   16   17 ar
    36   16   47 1
    37   17   18 ar
    38   17   20 1
    39   18   19 ar
    40   18   48 1
    41   19   49 1
    42   20   21 1
    43   20   50 1
    44   20   51 1
    45   21   22 1
    46   21   52 1
    47   21   53 1
    48   22   23 1
    49   22   54 1
    50   22   55 1
    51   23   24 1
    52   23   26 1
    53   23   28 1
    54   24   25 1
    55   24   56 1
    56   24   57 1
    57   25   58 1
    58   25   59 1
    59   25   60 1
    60   26   27 1
    61   26   61 1
    62   26   62 1
    63   27   63 1
    64   27   64 1
    65   27   65 1
    66   28   29 1
    67   28   66 1
    68   28   67 1
    69   29   68 1
    70   29   69 1
    71   29   70 1
@<TRIPOS>MOLECULE
ZINC29043612
   58    63     0     0     0
SMALL
USER_CHARGES

@<TRIPOS>ATOM
      1 C1         -0.1366    1.3388   -0.0536 C.ar      1 <0>        -0.1378
      2 C2          1.0247    2.0914   -0.0750 C.ar      1 <0>        -0.0810
      3 C3          2.2588    1.4700   -0.0708 C.ar      1 <0>        -0.1324
      4 C4          2.3392    0.0853   -0.0447 C.ar      1 <0>         0.1841
      5 C5          1.1661   -0.6778   -0.0226 C.ar      1 <0>        -0.0570
      6 C6         -0.0719   -0.0398   -0.0275 C.ar      1 <0>        -0.0827
      7 C7          1.2410   -2.1587    0.0050 C.2       1 <0>         0.1062
      8 C8          0.1898   -3.0105   -0.0755 C.2       1 <0>        -0.0523
      9 N1          0.6924   -4.3058   -0.0129 N.pl3     1 <0>        -0.4290
     10 C9          0.2083   -5.5959   -0.0372 C.2       1 <0>         0.0409
     11 C10         1.0350   -6.6367    0.0503 C.2       1 <0>        -0.1436
     12 S1          2.6258   -5.8351    0.1790 S.3       1 <0>         0.1629
     13 C11         2.0497   -4.1548    0.1045 C.2       1 <0>         0.1936
     14 N2          2.3679   -2.8932    0.1087 N.2       1 <0>        -0.4419
     15 C12        -1.2747   -5.8320   -0.1640 C.3       1 <0>         0.1146
     16 N3         -1.8957   -5.7702    1.1659 N.3       1 <0>        -0.5342
     17 C13        -1.8095   -4.4137    1.7249 C.3       1 <0>         0.0131
     18 C14        -2.4126   -4.4056    3.1313 C.3       1 <0>        -0.0013
     19 N4         -3.8147   -4.8383    3.0655 N.4       1 <0>        -0.5082
     20 C15        -3.8828   -6.2037    2.5282 C.3       1 <0>        -0.0022
     21 C16        -3.2919   -6.2268    1.1169 C.3       1 <0>         0.0236
     22 N5          3.5861   -0.5449   -0.0409 N.am      1 <0>        -0.6396
     23 C17         4.6678    0.1044    0.4331 C.2       1 <0>         0.5778
     24 O1          4.5428    1.1977    0.9486 O.2       1 <0>        -0.5033
     25 C18         6.0097   -0.5150    0.3257 C.ar      1 <0>         0.0504
     26 C19         7.1339    0.1644    0.8271 C.ar      1 <0>         0.1300
     27 N6          8.3299   -0.3694    0.7409 N.ar      1 <0>        -0.4196
     28 C20         8.4827   -1.5703    0.1712 C.ar      1 <0>         0.0996
     29 C21         9.7515   -2.1655    0.0662 C.ar      1 <0>        -0.0884
     30 C22         9.8777   -3.3881   -0.5177 C.ar      1 <0>        -0.0822
     31 C23         8.7648   -4.0646   -1.0167 C.ar      1 <0>        -0.0965
     32 C24         7.5206   -3.5218   -0.9342 C.ar      1 <0>        -0.0765
     33 C25         7.3488   -2.2586   -0.3361 C.ar      1 <0>         0.0762
     34 N7          6.1401   -1.7044   -0.2360 N.ar      1 <0>        -0.3854
     35 H1         -1.0972    1.8323   -0.0529 H         1 <0>         0.1293
     36 H2          0.9661    3.1696   -0.0954 H         1 <0>         0.1331
     37 H3          3.1615    2.0627   -0.0883 H         1 <0>         0.1529
     38 H4         -0.9807   -0.6232   -0.0108 H         1 <0>         0.1216
     39 H5         -0.8497   -2.7335   -0.1706 H         1 <0>         0.1787
     40 H6          0.8033   -7.6916    0.0451 H         1 <0>         0.2202
     41 H7         -1.7111   -5.0658   -0.8047 H         1 <0>         0.0626
     42 H8         -1.4500   -6.8147   -0.6016 H         1 <0>         0.1198
     43 H9         -0.7648   -4.1069    1.7755 H         1 <0>         0.1232
     44 H10        -2.3616   -3.7222    1.0884 H         1 <0>         0.0636
     45 H11        -1.8518   -5.0869    3.7711 H         1 <0>         0.1410
     46 H12        -2.3626   -3.3972    3.5423 H         1 <0>         0.1410
     47 H13        -4.2157   -4.8210    3.9912 H         1 <0>         0.4364
     48 H14        -3.3144   -6.8758    3.1711 H         1 <0>         0.1413
     49 H15        -4.9227   -6.5285    2.4921 H         1 <0>         0.1419
     50 H16        -3.8684   -5.5652    0.4703 H         1 <0>         0.0647
     51 H17        -3.3287   -7.2428    0.7237 H         1 <0>         0.1286
     52 H18         3.6732   -1.4497   -0.3794 H         1 <0>         0.4339
     53 H19         7.0124    1.1340    1.2869 H         1 <0>         0.1891
     54 H20        10.6232   -1.6541    0.4471 H         1 <0>         0.1464
     55 H21        10.8548   -3.8415   -0.5962 H         1 <0>         0.1425
     56 H22         8.8930   -5.0338   -1.4758 H         1 <0>         0.1415
     57 H23         6.6682   -4.0570   -1.3257 H         1 <0>         0.1424
     58 H24        -4.3312   -4.2143    2.4639 H         1 <0>         0.4264
@<TRIPOS>BOND
     1    1    6 ar
     2    1    2 ar
     3    1   35 1
     4    2    3 ar
     5    2   36 1
     6    3    4 ar
     7    3   37 1
     8    4    5 ar
     9    4   22 1
    10    5    6 ar
    11    5    7 1
    12    6   38 1
    13    7   14 1
    14    7    8 2
    15    8    9 1
    16    8   39 1
    17    9   13 1
    18    9   10 1
    19   10   11 2
    20   10   15 1
    21   11   12 1
    22   11   40 1
    23   12   13 1
    24   13   14 2
    25   15   16 1
    26   15   41 1
    27   15   42 1
    28   16   21 1
    29   16   17 1
    30   17   18 1
    31   17   43 1
    32   17   44 1
    33   18   19 1
    34   18   45 1
    35   18   46 1
    36   19   20 1
    37   19   47 1
    38   19   58 1
    39   20   21 1
    40   20   48 1
    41   20   49 1
    42   21   50 1
    43   21   51 1
    44   22   23 am
    45   22   52 1
    46   23   24 2
    47   23   25 1
    48   25   34 ar
    49   25   26 ar
    50   26   27 ar
    51   26   53 1
    52   27   28 ar
    53   28   33 ar
    54   28   29 ar
    55   29   30 ar
    56   29   54 1
    57   30   31 ar
    58   30   55 1
    59   31   32 ar
    60   31   56 1
    61   32   33 ar
    62   32   57 1
    63   33   34 ar
@<TRIPOS>MOLECULE
ZINC02003680
   52    53     0     0     0
SMALL
USER_CHARGES

@<TRIPOS>ATOM
      1 C1         -2.8165    1.1642    1.4065 C.3       1 <0>        -0.1875
      2 C2         -2.7146   -0.3619    1.3665 C.3       1 <0>        -0.0188
      3 N1         -2.0186   -0.7743    0.1404 N.4       1 <0>        -0.3886
      4 C3         -0.6312   -0.2930    0.1794 C.3       1 <0>        -0.0160
      5 C4          0.0456   -0.5785   -1.1627 C.3       1 <0>        -0.1890
      6 C5         -2.0259   -2.2400    0.0425 C.3       1 <0>        -0.0058
      7 C6         -3.4631   -2.7318   -0.1398 C.3       1 <0>         0.0280
      8 O1         -3.9776   -2.2496   -1.3827 O.3       1 <0>        -0.3604
      9 C7         -5.2664   -2.5112   -1.6514 C.2       1 <0>         0.4820
     10 O2         -5.9601   -3.0473   -0.8200 O.2       1 <0>        -0.4701
     11 C8         -5.8482   -2.1362   -2.9900 C.3       1 <0>         0.0449
     12 C9         -5.1392   -2.9244   -4.0932 C.3       1 <0>        -0.1469
     13 C10        -7.3197   -2.4610   -3.0070 C.ar      1 <0>        -0.0913
     14 C11        -8.2400   -1.4815   -3.3303 C.ar      1 <0>        -0.1015
     15 C12        -9.5898   -1.7795   -3.3459 C.ar      1 <0>        -0.1207
     16 C13       -10.0192   -3.0570   -3.0386 C.ar      1 <0>        -0.1045
     17 C14        -9.0988   -4.0367   -2.7162 C.ar      1 <0>        -0.1195
     18 C15        -7.7487   -3.7398   -2.7048 C.ar      1 <0>        -0.0838
     19 C16        -5.6569   -0.6600   -3.2251 C.ar      1 <0>        -0.0827
     20 C17        -6.0947    0.2524   -2.2834 C.ar      1 <0>        -0.1162
     21 C18        -5.9192    1.6065   -2.4990 C.ar      1 <0>        -0.1175
     22 C19        -5.3056    2.0482   -3.6562 C.ar      1 <0>        -0.1106
     23 C20        -4.8669    1.1359   -4.5976 C.ar      1 <0>        -0.1125
     24 C21        -5.0386   -0.2184   -4.3799 C.ar      1 <0>        -0.1044
     25 H1         -3.3330    1.4702    2.3163 H         1 <0>         0.1073
     26 H2         -1.8156    1.5956    1.3942 H         1 <0>         0.0821
     27 H3         -3.3736    1.5140    0.5373 H         1 <0>         0.0808
     28 H4         -2.1575   -0.7117    2.2357 H         1 <0>         0.1327
     29 H5         -3.7155   -0.7933    1.3788 H         1 <0>         0.1272
     30 H6         -0.6242    0.7804    0.3688 H         1 <0>         0.1340
     31 H7         -0.0910   -0.8059    0.9751 H         1 <0>         0.1306
     32 H8         -0.0023   -1.6468   -1.3738 H         1 <0>         0.0799
     33 H9         -0.4668   -0.0288   -1.9522 H         1 <0>         0.0819
     34 H10         1.0881   -0.2633   -1.1183 H         1 <0>         0.1072
     35 H11        -1.4246   -2.5500   -0.8121 H         1 <0>         0.1454
     36 H12        -1.6086   -2.6671    0.9544 H         1 <0>         0.1511
     37 H13        -3.4770   -3.8217   -0.1392 H         1 <0>         0.1151
     38 H14        -4.0808   -2.3601    0.6778 H         1 <0>         0.0934
     39 H15        -5.2776   -3.9921   -3.9231 H         1 <0>         0.0716
     40 H16        -5.5600   -2.6531   -5.0614 H         1 <0>         0.0870
     41 H17        -4.0749   -2.6894   -4.0809 H         1 <0>         0.0764
     42 H18        -7.9046   -0.4834   -3.5704 H         1 <0>         0.1271
     43 H19       -10.3089   -1.0141   -3.5978 H         1 <0>         0.1267
     44 H20       -11.0738   -3.2896   -3.0501 H         1 <0>         0.1270
     45 H21        -9.4343   -5.0347   -2.4758 H         1 <0>         0.1268
     46 H22        -7.0294   -4.5062   -2.4565 H         1 <0>         0.1182
     47 H23        -6.5742   -0.0928   -1.3793 H         1 <0>         0.1182
     48 H24        -6.2619    2.3193   -1.7636 H         1 <0>         0.1264
     49 H25        -5.1691    3.1062   -3.8250 H         1 <0>         0.1276
     50 H26        -4.3878    1.4810   -5.5018 H         1 <0>         0.1297
     51 H27        -4.6926   -0.9314   -5.1137 H         1 <0>         0.1336
     52 H28        -2.4884   -0.3813   -0.6614 H         1 <0>         0.4285
@<TRIPOS>BOND
     1    1    2 1
     2    1   25 1
     3    1   26 1
     4    1   27 1
     5    2    3 1
     6    2   28 1
     7    2   29 1
     8    3    4 1
     9    3    6 1
    10    3   52 1
    11    4    5 1
    12    4   30 1
    13    4   31 1
    14    5   32 1
    15    5   33 1
    16    5   34 1
    17    6    7 1
    18    6   35 1
    19    6   36 1
    20    7    8 1
    21    7   37 1
    22    7   38 1
    23    8    9 1
    24    9   10 2
    25    9   11 1
    26   11   12 1
    27   11   13 1
    28   11   19 1
    29   12   39 1
    30   12   40 1
    31   12   41 1
    32   13   18 ar
    33   13   14 ar
    34   14   15 ar
    35   14   42 1
    36   15   16 ar
    37   15   43 1
    38   16   17 ar
    39   16   44 1
    40   17   18 ar
    41   17   45 1
    42   18   46 1
    43   19   24 ar
    44   19   20 ar
    45   20   21 ar
    46   20   47 1
    47   21   22 ar
    48   21   48 1
    49   22   23 ar
    50   22   49 1
    51   23   24 ar
    52   23   50 1
    53   24   51 1
@<TRIPOS>MOLECULE
ZINC03921860
  108   109     0     0     0
SMALL
USER_CHARGES

@<TRIPOS>ATOM
      1 C1         -0.0173    1.4248    0.0099 C.3       1 <0>         0.0218
      2 O1          0.0021   -0.0041    0.0020 O.3       1 <0>        -0.3317
      3 C2          0.6258   -0.6184    1.0415 C.ar      1 <0>         0.1495
      4 C3          1.2023    0.1385    2.0514 C.ar      1 <0>        -0.2024
      5 C4          1.8353   -0.4882    3.1070 C.ar      1 <0>        -0.0386
      6 C5          1.8947   -1.8689    3.1579 C.ar      1 <0>        -0.1481
      7 C6          1.3214   -2.6252    2.1527 C.ar      1 <0>        -0.0531
      8 C7          0.6822   -2.0032    1.0975 C.ar      1 <0>        -0.2056
      9 C8          0.0521   -2.8284    0.0053 C.3       1 <0>         0.0590
     10 N1          0.9527   -2.8756   -1.1542 N.4       1 <0>        -0.5088
     11 C9          0.3385   -3.6800   -2.2189 C.3       1 <0>        -0.0101
     12 C10         1.2765   -3.7292   -3.4267 C.3       1 <0>        -0.1515
     13 C11         0.6368   -4.5670   -4.5356 C.3       1 <0>        -0.1189
     14 C12         1.5748   -4.6161   -5.7433 C.3       1 <0>        -0.1195
     15 C13         0.9351   -5.4540   -6.8522 C.3       1 <0>        -0.1520
     16 C14         1.8732   -5.5031   -8.0599 C.3       1 <0>        -0.0104
     17 N2          1.2589   -6.3075   -9.1246 N.4       1 <0>        -0.5109
     18 C15         2.1596   -6.3547  -10.2841 C.3       1 <0>        -0.0102
     19 C16         1.5199   -7.1926  -11.3930 C.3       1 <0>        -0.1514
     20 C17         2.4579   -7.2417  -12.6007 C.3       1 <0>        -0.1193
     21 C18         1.8182   -8.0795  -13.7096 C.3       1 <0>        -0.1229
     22 C19         2.7562   -8.1286  -14.9174 C.3       1 <0>        -0.1229
     23 C20         2.1165   -8.9665  -16.0263 C.3       1 <0>        -0.1193
     24 C21         3.0545   -9.0156  -17.2340 C.3       1 <0>        -0.1514
     25 C22         2.4148   -9.8535  -18.3429 C.3       1 <0>        -0.0102
     26 N3          3.3155   -9.9006  -19.5024 N.4       1 <0>        -0.5109
     27 C23         2.7012  -10.7051  -20.5671 C.3       1 <0>        -0.0104
     28 C24         3.6393  -10.7542  -21.7748 C.3       1 <0>        -0.1520
     29 C25         2.9995  -11.5920  -22.8837 C.3       1 <0>        -0.1195
     30 C26         3.9376  -11.6411  -24.0914 C.3       1 <0>        -0.1189
     31 C27         3.2979  -12.4790  -25.2004 C.3       1 <0>        -0.1516
     32 C28         4.2359  -12.5281  -26.4081 C.3       1 <0>        -0.0100
     33 N4          3.6217  -13.3325  -27.4728 N.4       1 <0>        -0.5088
     34 C29         4.5223  -13.3797  -28.6323 C.3       1 <0>         0.0590
     35 C30         3.8922  -14.2050  -29.7245 C.ar      1 <0>        -0.2056
     36 C31         4.2759  -15.5198  -29.9064 C.ar      1 <0>        -0.0530
     37 C32         3.6986  -16.2772  -30.9085 C.ar      1 <0>        -0.1481
     38 C33         2.7357  -15.7214  -31.7310 C.ar      1 <0>        -0.0386
     39 C34         2.3484  -14.4076  -31.5529 C.ar      1 <0>        -0.2024
     40 C35         2.9225  -13.6469  -30.5445 C.ar      1 <0>         0.1495
     41 O2          2.5391  -12.3557  -30.3637 O.3       1 <0>        -0.3317
     42 C36         1.5355  -11.8475  -31.2450 C.3       1 <0>         0.0219
     43 H1          1.0053    1.8021    0.0021 H         1 <0>         0.0655
     44 H2         -0.5445    1.7859   -0.8732 H         1 <0>         0.1108
     45 H3         -0.5275    1.7763    0.9067 H         1 <0>         0.0688
     46 H4          1.1565    1.2168    2.0119 H         1 <0>         0.1425
     47 H5          2.2845    0.1005    3.8932 H         1 <0>         0.1419
     48 H6          2.3900   -2.3570    3.9842 H         1 <0>         0.1408
     49 H7          1.3695   -3.7034    2.1946 H         1 <0>         0.1397
     50 H8         -0.1239   -3.8404    0.3701 H         1 <0>         0.1375
     51 H9         -0.8960   -2.3784   -0.2891 H         1 <0>         0.1383
     52 H10         1.1156   -1.9389   -1.4919 H         1 <0>         0.4288
     53 H11         0.1625   -4.6920   -1.8542 H         1 <0>         0.1322
     54 H12        -0.6096   -3.2300   -2.5134 H         1 <0>         0.1321
     55 H13         1.4525   -2.7172   -3.7914 H         1 <0>         0.0890
     56 H14         2.2246   -4.1792   -3.1322 H         1 <0>         0.0893
     57 H15         0.4608   -5.5790   -4.1708 H         1 <0>         0.0792
     58 H16        -0.3113   -4.1169   -4.8300 H         1 <0>         0.0791
     59 H17         1.7508   -3.6042   -6.1081 H         1 <0>         0.0789
     60 H18         2.5229   -5.0662   -5.4489 H         1 <0>         0.0790
     61 H19         0.7592   -6.4659   -6.4874 H         1 <0>         0.0903
     62 H20        -0.0130   -5.0039   -7.1466 H         1 <0>         0.0902
     63 H21         2.0491   -4.4911   -8.4247 H         1 <0>         0.1327
     64 H22         2.8212   -5.9532   -7.7655 H         1 <0>         0.1328
     65 H23         1.0961   -7.2443   -8.7869 H         1 <0>         0.4293
     66 H24         2.3355   -5.3428  -10.6489 H         1 <0>         0.1323
     67 H25         3.1077   -6.8048   -9.9897 H         1 <0>         0.1324
     68 H26         1.3439   -8.2045  -11.0282 H         1 <0>         0.0885
     69 H27         0.5718   -6.7425  -11.6874 H         1 <0>         0.0884
     70 H28         2.6339   -6.2297  -12.9655 H         1 <0>         0.0754
     71 H29         3.4060   -7.6918  -12.3063 H         1 <0>         0.0755
     72 H30         1.6422   -9.0915  -13.3449 H         1 <0>         0.0693
     73 H31         0.8701   -7.6294  -14.0041 H         1 <0>         0.0692
     74 H32         2.9322   -7.1167  -15.2821 H         1 <0>         0.0692
     75 H33         3.7043   -8.5787  -14.6229 H         1 <0>         0.0692
     76 H34         1.9405   -9.9784  -15.6615 H         1 <0>         0.0755
     77 H35         1.1684   -8.5164  -16.3207 H         1 <0>         0.0754
     78 H36         3.2305   -8.0037  -17.5988 H         1 <0>         0.0884
     79 H37         4.0026   -9.4657  -16.9396 H         1 <0>         0.0885
     80 H38         2.2389  -10.8654  -17.9781 H         1 <0>         0.1324
     81 H39         1.4667   -9.4034  -18.6373 H         1 <0>         0.1324
     82 H40         3.4783   -8.9639  -19.8401 H         1 <0>         0.4293
     83 H41         2.5253  -11.7170  -20.2023 H         1 <0>         0.1328
     84 H42         1.7531  -10.2550  -20.8615 H         1 <0>         0.1327
     85 H43         3.8152   -9.7422  -22.1396 H         1 <0>         0.0902
     86 H44         4.5874  -11.2043  -21.4804 H         1 <0>         0.0903
     87 H45         2.8236  -12.6040  -22.5189 H         1 <0>         0.0790
     88 H46         2.0515  -11.1419  -23.1781 H         1 <0>         0.0789
     89 H47         4.1135  -10.6292  -24.4562 H         1 <0>         0.0791
     90 H48         4.8857  -12.0912  -23.7970 H         1 <0>         0.0792
     91 H49         3.1219  -13.4909  -24.8356 H         1 <0>         0.0894
     92 H50         2.3498  -12.0289  -25.4948 H         1 <0>         0.0890
     93 H51         4.4119  -11.5162  -26.7729 H         1 <0>         0.1321
     94 H52         5.1840  -12.9782  -26.1137 H         1 <0>         0.1322
     95 H53         3.4588  -14.2693  -27.1351 H         1 <0>         0.4262
     96 H54         4.6983  -12.3678  -28.9971 H         1 <0>         0.1382
     97 H55         5.4704  -13.8298  -28.3379 H         1 <0>         0.1375
     98 H56         5.0276  -15.9561  -29.2654 H         1 <0>         0.1397
     99 H57         4.0003  -17.3045  -31.0496 H         1 <0>         0.1408
    100 H58         2.2865  -16.3151  -32.5134 H         1 <0>         0.1418
    101 H59         1.5964  -13.9741  -32.1955 H         1 <0>         0.1425
    102 H60         0.6267  -12.4402  -31.1410 H         1 <0>         0.0655
    103 H61         1.3227  -10.8087  -30.9927 H         1 <0>         0.1108
    104 H62         1.8917  -11.9060  -32.2735 H         1 <0>         0.0688
    105 H63         0.3813   -5.8909   -9.3971 H         1 <0>         0.4293
    106 H64         4.1931  -10.3172  -19.2299 H         1 <0>         0.4293
    107 H65         1.8303   -3.2922   -0.8817 H         1 <0>         0.4262
    108 H66         2.7441  -12.9159  -27.7453 H         1 <0>         0.4288
@<TRIPOS>BOND
     1    1    2 1
     2    1   43 1
     3    1   44 1
     4    1   45 1
     5    2    3 1
     6    3    8 ar
     7    3    4 ar
     8    4    5 ar
     9    4   46 1
    10    5    6 ar
    11    5   47 1
    12    6    7 ar
    13    6   48 1
    14    7    8 ar
    15    7   49 1
    16    8    9 1
    17    9   10 1
    18    9   50 1
    19    9   51 1
    20   10   11 1
    21   10   52 1
    22   10  107 1
    23   11   12 1
    24   11   53 1
    25   11   54 1
    26   12   13 1
    27   12   55 1
    28   12   56 1
    29   13   14 1
    30   13   57 1
    31   13   58 1
    32   14   15 1
    33   14   59 1
    34   14   60 1
    35   15   16 1
    36   15   61 1
    37   15   62 1
    38   16   17 1
    39   16   63 1
    40   16   64 1
    41   17   18 1
    42   17   65 1
    43   17  105 1
    44   18   19 1
    45   18   66 1
    46   18   67 1
    47   19   20 1
    48   19   68 1
    49   19   69 1
    50   20   21 1
    51   20   70 1
    52   20   71 1
    53   21   22 1
    54   21   72 1
    55   21   73 1
    56   22   23 1
    57   22   74 1
    58   22   75 1
    59   23   24 1
    60   23   76 1
    61   23   77 1
    62   24   25 1
    63   24   78 1
    64   24   79 1
    65   25   26 1
    66   25   80 1
    67   25   81 1
    68   26   27 1
    69   26   82 1
    70   26  106 1
    71   27   28 1
    72   27   83 1
    73   27   84 1
    74   28   29 1
    75   28   85 1
    76   28   86 1
    77   29   30 1
    78   29   87 1
    79   29   88 1
    80   30   31 1
    81   30   89 1
    82   30   90 1
    83   31   32 1
    84   31   91 1
    85   31   92 1
    86   32   33 1
    87   32   93 1
    88   32   94 1
    89   33   34 1
    90   33   95 1
    91   33  108 1
    92   34   35 1
    93   34   96 1
    94   34   97 1
    95   35   40 ar
    96   35   36 ar
    97   36   37 ar
    98   36   98 1
    99   37   38 ar
   100   37   99 1
   101   38   39 ar
   102   38  100 1
   103   39   40 ar
   104   39  101 1
   105   40   41 1
   106   41   42 1
   107   42  102 1
   108   42  103 1
   109   42  104 1
@<TRIPOS>MOLECULE
ZINC22442744
   74    77     0     0     0
SMALL
USER_CHARGES

@<TRIPOS>ATOM
      1 C1         -4.2653   -3.3860    5.7216 C.3       1 <0>        -0.1556
      2 C2         -4.6396   -2.5913    4.4689 C.3       1 <0>        -0.1498
      3 C3         -3.6967   -2.9688    3.3247 C.3       1 <0>        -0.0180
      4 N1         -4.0561   -2.2058    2.1220 N.4       1 <0>        -0.3845
      5 C4         -3.8229   -0.7753    2.3618 C.3       1 <0>        -0.0148
      6 C5         -4.3249    0.0313    1.1625 C.3       1 <0>        -0.1506
      7 C6         -4.2014    1.5259    1.4654 C.3       1 <0>        -0.1556
      8 C7         -3.2302   -2.6539    0.9928 C.3       1 <0>        -0.0178
      9 C8         -3.5705   -4.1074    0.6573 C.3       1 <0>         0.0646
     10 H1         -3.4185   -4.7289    1.5398 H         1 <0>         0.0656
     11 C9         -5.0324   -4.1997    0.2143 C.3       1 <0>        -0.1270
     12 C10        -5.3627   -5.6524   -0.1395 C.3       1 <0>        -0.1213
     13 C11        -4.4088   -6.1316   -1.2372 C.3       1 <0>        -0.1225
     14 C12        -2.9650   -5.9834   -0.7521 C.3       1 <0>         0.0485
     15 N2         -2.6986   -4.5762   -0.4273 N.3       1 <0>        -0.5173
     16 C13        -1.2834   -4.3727   -0.0904 C.3       1 <0>         0.0350
     17 C14        -0.4136   -4.7537   -1.2902 C.3       1 <0>         0.1371
     18 N3          0.9978   -4.5507   -0.9542 N.am      1 <0>        -0.7334
     19 C15         1.9532   -4.8228   -1.8650 C.2       1 <0>         0.7231
     20 O1          1.6437   -5.2367   -2.9655 O.2       1 <0>        -0.5503
     21 N4          3.2517   -4.6360   -1.5560 N.am      1 <0>        -0.5224
     22 C16         4.2476   -4.9086   -2.4918 C.ar      1 <0>         0.1837
     23 C17         4.3823   -6.1888   -3.0098 C.ar      1 <0>        -0.1028
     24 C18         5.3928   -6.4697   -3.9079 C.ar      1 <0>        -0.0748
     25 C19         6.2786   -5.4778   -4.2954 C.ar      1 <0>        -0.1179
     26 C20         6.1502   -4.1979   -3.8016 C.ar      1 <0>        -0.0474
     27 C21         5.1205   -3.8931   -2.9059 C.ar      1 <0>        -0.1422
     28 C22         4.9327   -2.5100   -2.4526 C.2       1 <0>         0.5718
     29 O2          5.1384   -1.6292   -3.2650 O.2       1 <0>        -0.5115
     30 N5          4.5599   -2.1344   -1.2385 N.am      1 <0>        -0.6542
     31 C23         4.2985   -2.9602   -0.1486 C.ar      1 <0>         0.1131
     32 C24         3.6190   -4.1607   -0.2943 C.ar      1 <0>         0.3091
     33 N6          3.3197   -4.8858    0.7748 N.ar      1 <0>        -0.4714
     34 C25         3.6850   -4.5229    1.9889 C.ar      1 <0>         0.1088
     35 C26         4.4020   -3.3618    2.1963 C.ar      1 <0>        -0.1389
     36 C27         4.7162   -2.5682    1.1194 C.ar      1 <0>        -0.0827
     37 H2         -4.9370   -3.1171    6.5367 H         1 <0>         0.0784
     38 H3         -4.3535   -4.4526    5.5150 H         1 <0>         0.0667
     39 H4         -3.2386   -3.1546    6.0054 H         1 <0>         0.0667
     40 H5         -5.6662   -2.8227    4.1851 H         1 <0>         0.0862
     41 H6         -4.5514   -1.5247    4.6755 H         1 <0>         0.0870
     42 H7         -2.6700   -2.7374    3.6085 H         1 <0>         0.1296
     43 H8         -3.7849   -4.0354    3.1181 H         1 <0>         0.1302
     44 H9         -4.3593   -0.4651    3.2585 H         1 <0>         0.1344
     45 H10        -2.7559   -0.5988    2.4974 H         1 <0>         0.1293
     46 H11        -3.7264   -0.2122    0.2847 H         1 <0>         0.0873
     47 H12        -5.3691   -0.2154    0.9702 H         1 <0>         0.0857
     48 H13        -4.5591    2.1005    0.6111 H         1 <0>         0.0781
     49 H14        -4.8000    1.7694    2.3433 H         1 <0>         0.0669
     50 H15        -3.1573    1.7726    1.6578 H         1 <0>         0.0666
     51 H16        -3.4288   -2.0248    0.1252 H         1 <0>         0.1444
     52 H17        -2.1764   -2.5802    1.2615 H         1 <0>         0.1308
     53 H18        -5.6801   -3.8663    1.0251 H         1 <0>         0.0614
     54 H19        -5.1882   -3.5677   -0.6601 H         1 <0>         0.0903
     55 H20        -5.2444   -6.2786    0.7448 H         1 <0>         0.0649
     56 H21        -6.3905   -5.7156   -0.4970 H         1 <0>         0.0786
     57 H22        -4.6110   -7.1786   -1.4634 H         1 <0>         0.0802
     58 H23        -4.5548   -5.5301   -2.1344 H         1 <0>         0.0794
     59 H24        -2.8159   -6.5960    0.1371 H         1 <0>         0.0448
     60 H25        -2.2828   -6.3104   -1.5368 H         1 <0>         0.0954
     61 H26        -1.1168   -3.3252    0.1610 H         1 <0>         0.0804
     62 H27        -1.0194   -4.9976    0.7627 H         1 <0>         0.0510
     63 H28        -0.5802   -5.8011   -1.5416 H         1 <0>         0.0769
     64 H29        -0.6776   -4.1288   -2.1433 H         1 <0>         0.0826
     65 H30         1.2447   -4.2204   -0.0762 H         1 <0>         0.3975
     66 H31         3.6959   -6.9668   -2.7097 H         1 <0>         0.1352
     67 H32         5.4926   -7.4670   -4.3103 H         1 <0>         0.1404
     68 H33         7.0745   -5.7090   -4.9879 H         1 <0>         0.1415
     69 H34         6.8450   -3.4295   -4.1069 H         1 <0>         0.1426
     70 H35         4.4576   -1.1808   -1.0930 H         1 <0>         0.4140
     71 H36         3.4198   -5.1429    2.8326 H         1 <0>         0.1714
     72 H37         4.7141   -3.0829    3.1919 H         1 <0>         0.1533
     73 H38         5.2726   -1.6531    1.2585 H         1 <0>         0.1529
     74 H39        -5.0303   -2.3563    1.9068 H         1 <0>         0.4213
@<TRIPOS>BOND
     1    1    2 1
     2    1   37 1
     3    1   38 1
     4    1   39 1
     5    2    3 1
     6    2   40 1
     7    2   41 1
     8    3    4 1
     9    3   42 1
    10    3   43 1
    11    4    5 1
    12    4    8 1
    13    4   74 1
    14    5    6 1
    15    5   44 1
    16    5   45 1
    17    6    7 1
    18    6   46 1
    19    6   47 1
    20    7   48 1
    21    7   49 1
    22    7   50 1
    23    8    9 1
    24    8   51 1
    25    8   52 1
    26    9   10 1
    27    9   15 1
    28    9   11 1
    29   11   12 1
    30   11   53 1
    31   11   54 1
    32   12   13 1
    33   12   55 1
    34   12   56 1
    35   13   14 1
    36   13   57 1
    37   13   58 1
    38   14   15 1
    39   14   59 1
    40   14   60 1
    41   15   16 1
    42   16   17 1
    43   16   61 1
    44   16   62 1
    45   17   18 1
    46   17   63 1
    47   17   64 1
    48   18   19 am
    49   18   65 1
    50   19   20 2
    51   19   21 am
    52   21   32 1
    53   21   22 1
    54   22   27 ar
    55   22   23 ar
    56   23   24 ar
    57   23   66 1
    58   24   25 ar
    59   24   67 1
    60   25   26 ar
    61   25   68 1
    62   26   27 ar
    63   26   69 1
    64   27   28 1
    65   28   29 2
    66   28   30 am
    67   30   31 1
    68   30   70 1
    69   31   36 ar
    70   31   32 ar
    71   32   33 ar
    72   33   34 ar
    73   34   35 ar
    74   34   71 1
    75   35   36 ar
    76   35   72 1
    77   36   73 1
@<TRIPOS>MOLECULE
ZINC22442744
   74    77     0     0     0
SMALL
USER_CHARGES

@<TRIPOS>ATOM
      1 C1          1.3911   -1.9860   -4.5949 C.3       1 <0>        -0.1563
      2 C2          1.0439   -1.6112   -3.1527 C.3       1 <0>        -0.1234
      3 C3          0.2116   -2.7292   -2.5215 C.3       1 <0>         0.0395
      4 N1         -0.1389   -2.3605   -1.1435 N.3       1 <0>        -0.5498
      5 C4         -1.2363   -3.1959   -0.6379 C.3       1 <0>         0.0404
      6 C5         -2.5109   -2.8977   -1.4299 C.3       1 <0>        -0.1214
      7 C6         -3.6539   -3.7678   -0.9033 C.3       1 <0>        -0.1561
      8 C7          1.0337   -2.4417   -0.2623 C.3       1 <0>         0.0177
      9 C8          0.7453   -1.6935    1.0407 C.3       1 <0>         0.0365
     10 H1         -0.2102   -2.0261    1.4463 H         1 <0>         0.1373
     11 C9          1.8567   -1.9838    2.0516 C.3       1 <0>        -0.1395
     12 C10         1.5636   -1.2331    3.3538 C.3       1 <0>        -0.1361
     13 C11         1.4308    0.2621    3.0508 C.3       1 <0>        -0.1455
     14 C12         0.3352    0.4692    2.0029 C.3       1 <0>        -0.0169
     15 N2          0.6873   -0.2513    0.7735 N.4       1 <0>        -0.3676
     16 C13        -0.3275    0.0142   -0.2550 C.3       1 <0>        -0.0439
     17 C14        -0.3604    1.5122   -0.5643 C.3       1 <0>         0.1137
     18 N3         -1.2796    1.7610   -1.6775 N.am      1 <0>        -0.7280
     19 C15        -1.3968    3.0019   -2.1903 C.2       1 <0>         0.7271
     20 O1         -0.7397    3.9148   -1.7289 O.2       1 <0>        -0.5509
     21 N4         -2.2425    3.2307   -3.2145 N.am      1 <0>        -0.5169
     22 C16        -2.3675    4.5085   -3.7563 C.ar      1 <0>         0.1799
     23 C17        -2.7841    5.5638   -2.9575 C.ar      1 <0>        -0.1026
     24 C18        -2.9456    6.8226   -3.5017 C.ar      1 <0>        -0.0751
     25 C19        -2.6956    7.0393   -4.8469 C.ar      1 <0>        -0.1158
     26 C20        -2.2674    6.0055   -5.6509 C.ar      1 <0>        -0.0470
     27 C21        -2.0809    4.7294   -5.1105 C.ar      1 <0>        -0.1399
     28 C22        -1.5394    3.6534   -5.9489 C.2       1 <0>         0.5706
     29 O2         -0.6874    3.9602   -6.7600 O.2       1 <0>        -0.5100
     30 N5         -1.8952    2.3785   -5.9021 N.am      1 <0>        -0.6541
     31 C23        -2.8616    1.8073   -5.0788 C.ar      1 <0>         0.1158
     32 C24        -3.0026    2.1890   -3.7526 C.ar      1 <0>         0.3023
     33 N6         -3.8817    1.5708   -2.9759 N.ar      1 <0>        -0.4709
     34 C25        -4.6692    0.6174   -3.4344 C.ar      1 <0>         0.1109
     35 C26        -4.6091    0.2223   -4.7555 C.ar      1 <0>        -0.1344
     36 C27        -3.6982    0.8210   -5.5920 C.ar      1 <0>        -0.0818
     37 H2          2.0349   -2.8655   -4.5968 H         1 <0>         0.0592
     38 H3          0.4753   -2.2048   -5.1440 H         1 <0>         0.0594
     39 H4          1.9105   -1.1545   -5.0713 H         1 <0>         0.0627
     40 H5          1.9622   -1.4752   -2.5815 H         1 <0>         0.0599
     41 H6          0.4711   -0.6839   -3.1461 H         1 <0>         0.0657
     42 H7         -0.6996   -2.8755   -3.1015 H         1 <0>         0.0926
     43 H8          0.7900   -3.6531   -2.5145 H         1 <0>         0.0529
     44 H9         -0.9749   -4.2478   -0.7528 H         1 <0>         0.0531
     45 H10        -1.4040   -2.9764    0.4166 H         1 <0>         0.0759
     46 H11        -2.7724   -1.8458   -1.3149 H         1 <0>         0.0677
     47 H12        -2.3433   -3.1172   -2.4843 H         1 <0>         0.0687
     48 H13        -4.5620   -3.5554   -1.4675 H         1 <0>         0.0642
     49 H14        -3.3925   -4.8197   -1.0182 H         1 <0>         0.0573
     50 H15        -3.8216   -3.5483    0.1512 H         1 <0>         0.0557
     51 H16         1.2500   -3.4869   -0.0409 H         1 <0>         0.0903
     52 H17         1.8928   -1.9900   -0.7582 H         1 <0>         0.1017
     53 H18         1.8975   -3.0548    2.2501 H         1 <0>         0.1112
     54 H19         2.8127   -1.6513    1.6470 H         1 <0>         0.0899
     55 H20         0.6330   -1.6016    3.7855 H         1 <0>         0.0816
     56 H21         2.3809   -1.3912    4.0575 H         1 <0>         0.0960
     57 H22         1.1672    0.7964    3.9635 H         1 <0>         0.1129
     58 H23         2.3779    0.6412    2.6670 H         1 <0>         0.0885
     59 H24        -0.6115    0.0900    2.3878 H         1 <0>         0.1287
     60 H25         0.2378    1.5328    1.7850 H         1 <0>         0.1329
     61 H26        -0.0797   -0.5386   -1.1612 H         1 <0>         0.1840
     62 H27        -1.3049   -0.3033    0.1084 H         1 <0>         0.1296
     63 H28        -0.7001    2.0576    0.3162 H         1 <0>         0.0839
     64 H29         0.6398    1.8490   -0.8367 H         1 <0>         0.0854
     65 H30        -1.8039    1.0326   -2.0456 H         1 <0>         0.4064
     66 H31        -2.9826    5.4004   -1.9086 H         1 <0>         0.1347
     67 H32        -3.2679    7.6416   -2.8759 H         1 <0>         0.1409
     68 H33        -2.8373    8.0237   -5.2677 H         1 <0>         0.1423
     69 H34        -2.0754    6.1810   -6.6991 H         1 <0>         0.1434
     70 H35        -1.4322    1.7777   -6.5068 H         1 <0>         0.4147
     71 H36        -5.3711    0.1394   -2.7670 H         1 <0>         0.1723
     72 H37        -5.2718   -0.5454   -5.1269 H         1 <0>         0.1542
     73 H38        -3.6305    0.5249   -6.6284 H         1 <0>         0.1534
     74 H39         1.5872    0.0653    0.4448 H         1 <0>         0.4186
@<TRIPOS>BOND
     1    1    2 1
     2    1   37 1
     3    1   38 1
     4    1   39 1
     5    2    3 1
     6    2   40 1
     7    2   41 1
     8    3    4 1
     9    3   42 1
    10    3   43 1
    11    4    5 1
    12    4    8 1
    13    5    6 1
    14    5   44 1
    15    5   45 1
    16    6    7 1
    17    6   46 1
    18    6   47 1
    19    7   48 1
    20    7   49 1
    21    7   50 1
    22    8    9 1
    23    8   51 1
    24    8   52 1
    25    9   10 1
    26    9   15 1
    27    9   11 1
    28   11   12 1
    29   11   53 1
    30   11   54 1
    31   12   13 1
    32   12   55 1
    33   12   56 1
    34   13   14 1
    35   13   57 1
    36   13   58 1
    37   14   15 1
    38   14   59 1
    39   14   60 1
    40   15   16 1
    41   15   74 1
    42   16   17 1
    43   16   61 1
    44   16   62 1
    45   17   18 1
    46   17   63 1
    47   17   64 1
    48   18   19 am
    49   18   65 1
    50   19   20 2
    51   19   21 am
    52   21   32 1
    53   21   22 1
    54   22   27 ar
    55   22   23 ar
    56   23   24 ar
    57   23   66 1
    58   24   25 ar
    59   24   67 1
    60   25   26 ar
    61   25   68 1
    62   26   27 ar
    63   26   69 1
    64   27   28 1
    65   28   29 2
    66   28   30 am
    67   30   31 1
    68   30   70 1
    69   31   36 ar
    70   31   32 ar
    71   32   33 ar
    72   33   34 ar
    73   34   35 ar
    74   34   71 1
    75   35   36 ar
    76   35   72 1
    77   36   73 1
@<TRIPOS>MOLECULE
ZINC22454208
   74    77     0     0     0
SMALL
USER_CHARGES

@<TRIPOS>ATOM
      1 C1         -2.9141   -2.9579    4.7383 C.3       1 <0>        -0.1521
      2 C2         -3.6539   -2.3620    3.5389 C.3       1 <0>        -0.1460
      3 C3         -2.8861   -2.6833    2.2551 C.3       1 <0>        -0.0537
      4 N1         -3.5963   -2.1112    1.1036 N.4       1 <0>        -0.3766
      5 C4         -3.6605   -0.6503    1.2442 C.3       1 <0>        -0.0200
      6 C5         -4.4950   -0.0643    0.1036 C.3       1 <0>        -0.1495
      7 C6         -4.6738    1.4393    0.3228 C.3       1 <0>        -0.1558
      8 C7         -2.8802   -2.4531   -0.1327 C.3       1 <0>        -0.0118
      9 C8         -2.9744   -3.9606   -0.3763 C.3       1 <0>         0.0566
     10 H1         -2.5203   -4.2022   -1.3373 H         1 <0>         0.0955
     11 C9         -4.4449   -4.3846   -0.3863 C.3       1 <0>        -0.1254
     12 C10        -4.5335   -5.8967   -0.6104 C.3       1 <0>        -0.1226
     13 C11        -3.7463   -6.6147    0.4894 C.3       1 <0>        -0.1226
     14 C12        -2.2961   -6.1261    0.4739 C.3       1 <0>         0.0433
     15 N2         -2.2653   -4.6744    0.6932 N.3       1 <0>        -0.5319
     16 C13        -0.8842   -4.1910    0.8229 C.3       1 <0>         0.0199
     17 C14        -0.2292   -4.8399    2.0439 C.3       1 <0>         0.1352
     18 N3          1.1023   -4.2640    2.2477 N.am      1 <0>        -0.7344
     19 C15         1.9092   -4.7554    3.2090 C.2       1 <0>         0.7239
     20 O1          1.5320   -5.6766    3.9070 O.2       1 <0>        -0.5504
     21 N4          3.1341   -4.2255    3.3964 N.am      1 <0>        -0.5207
     22 C16         3.9790   -4.7293    4.3835 C.ar      1 <0>         0.1824
     23 C17         3.5833   -4.7084    5.7133 C.ar      1 <0>        -0.1027
     24 C18         4.4349   -5.1718    6.6966 C.ar      1 <0>        -0.0756
     25 C19         5.6885   -5.6574    6.3629 C.ar      1 <0>        -0.1171
     26 C20         6.0914   -5.6985    5.0459 C.ar      1 <0>        -0.0469
     27 C21         5.2331   -5.2506    4.0370 C.ar      1 <0>        -0.1409
     28 C22         5.6304   -5.3794    2.6300 C.2       1 <0>         0.5706
     29 O2          6.2557   -6.3752    2.3210 O.2       1 <0>        -0.5098
     30 N5          5.3696   -4.5088    1.6665 N.am      1 <0>        -0.6546
     31 C23         4.6979   -3.2959    1.7916 C.ar      1 <0>         0.1155
     32 C24         3.5781   -3.1666    2.6001 C.ar      1 <0>         0.3065
     33 N6          2.9174   -2.0175    2.6368 N.ar      1 <0>        -0.4731
     34 C25         3.3144   -0.9619    1.9530 C.ar      1 <0>         0.1067
     35 C26         4.4462   -1.0124    1.1647 C.ar      1 <0>        -0.1365
     36 C27         5.1505   -2.1892    1.0800 C.ar      1 <0>        -0.0817
     37 H2         -3.4611   -2.7290    5.6529 H         1 <0>         0.0735
     38 H3         -2.8410   -4.0389    4.6196 H         1 <0>         0.0675
     39 H4         -1.9132   -2.5302    4.7969 H         1 <0>         0.0637
     40 H5         -4.6548   -2.7897    3.4803 H         1 <0>         0.0810
     41 H6         -3.7271   -1.2810    3.6576 H         1 <0>         0.0772
     42 H7         -1.8852   -2.2556    2.3137 H         1 <0>         0.1169
     43 H8         -2.8129   -3.7643    2.1364 H         1 <0>         0.1876
     44 H9         -4.1215   -0.3972    2.1989 H         1 <0>         0.1329
     45 H10        -2.6526   -0.2371    1.2066 H         1 <0>         0.1265
     46 H11        -3.9851   -0.2351   -0.8445 H         1 <0>         0.0846
     47 H12        -5.4720   -0.5471    0.0829 H         1 <0>         0.0841
     48 H13        -5.3406    1.8410   -0.4401 H         1 <0>         0.0765
     49 H14        -5.1031    1.6141    1.3093 H         1 <0>         0.0667
     50 H15        -3.7048    1.9341    0.2555 H         1 <0>         0.0666
     51 H16        -3.3286   -1.9207   -0.9714 H         1 <0>         0.1387
     52 H17        -1.8332   -2.1651   -0.0375 H         1 <0>         0.1303
     53 H18        -4.9032   -4.1309    0.5696 H         1 <0>         0.0660
     54 H19        -4.9676   -3.8663   -1.1901 H         1 <0>         0.0867
     55 H20        -5.5770   -6.2096   -0.5749 H         1 <0>         0.0792
     56 H21        -4.1102   -6.1462   -1.5834 H         1 <0>         0.0709
     57 H22        -4.1937   -6.3961    1.4590 H         1 <0>         0.0755
     58 H23        -3.7700   -7.6898    0.3111 H         1 <0>         0.0819
     59 H24        -1.7364   -6.6249    1.2651 H         1 <0>         0.0947
     60 H25        -1.8452   -6.3574   -0.4911 H         1 <0>         0.0525
     61 H26        -0.3218   -4.4531   -0.0733 H         1 <0>         0.0614
     62 H27        -0.8883   -3.1079    0.9455 H         1 <0>         0.0827
     63 H28        -0.8431   -4.6569    2.9258 H         1 <0>         0.0799
     64 H29        -0.1394   -5.9138    1.8803 H         1 <0>         0.0799
     65 H30         1.4033   -3.5290    1.6908 H         1 <0>         0.3989
     66 H31         2.6079   -4.3289    5.9797 H         1 <0>         0.1343
     67 H32         4.1220   -5.1558    7.7302 H         1 <0>         0.1403
     68 H33         6.3538   -6.0053    7.1393 H         1 <0>         0.1418
     69 H34         7.0706   -6.0773    4.7927 H         1 <0>         0.1430
     70 H35         5.6801   -4.7416    0.7775 H         1 <0>         0.4152
     71 H36         2.7463   -0.0453    2.0110 H         1 <0>         0.1707
     72 H37         4.7750   -0.1372    0.6240 H         1 <0>         0.1539
     73 H38         6.0366   -2.2531    0.4659 H         1 <0>         0.1537
     74 H39        -4.5320   -2.4868    1.0650 H         1 <0>         0.4191
@<TRIPOS>BOND
     1    1    2 1
     2    1   37 1
     3    1   38 1
     4    1   39 1
     5    2    3 1
     6    2   40 1
     7    2   41 1
     8    3    4 1
     9    3   42 1
    10    3   43 1
    11    4    5 1
    12    4    8 1
    13    4   74 1
    14    5    6 1
    15    5   44 1
    16    5   45 1
    17    6    7 1
    18    6   46 1
    19    6   47 1
    20    7   48 1
    21    7   49 1
    22    7   50 1
    23    8    9 1
    24    8   51 1
    25    8   52 1
    26    9   10 1
    27    9   15 1
    28    9   11 1
    29   11   12 1
    30   11   53 1
    31   11   54 1
    32   12   13 1
    33   12   55 1
    34   12   56 1
    35   13   14 1
    36   13   57 1
    37   13   58 1
    38   14   15 1
    39   14   59 1
    40   14   60 1
    41   15   16 1
    42   16   17 1
    43   16   61 1
    44   16   62 1
    45   17   18 1
    46   17   63 1
    47   17   64 1
    48   18   19 am
    49   18   65 1
    50   19   20 2
    51   19   21 am
    52   21   32 1
    53   21   22 1
    54   22   27 ar
    55   22   23 ar
    56   23   24 ar
    57   23   66 1
    58   24   25 ar
    59   24   67 1
    60   25   26 ar
    61   25   68 1
    62   26   27 ar
    63   26   69 1
    64   27   28 1
    65   28   29 2
    66   28   30 am
    67   30   31 1
    68   30   70 1
    69   31   36 ar
    70   31   32 ar
    71   32   33 ar
    72   33   34 ar
    73   34   35 ar
    74   34   71 1
    75   35   36 ar
    76   35   72 1
    77   36   73 1
@<TRIPOS>MOLECULE
ZINC22454208
   74    77     0     0     0
SMALL
USER_CHARGES

@<TRIPOS>ATOM
      1 C1          4.7470   -5.4297   -1.6683 C.3       1 <0>        -0.1573
      2 C2          3.8920   -4.6084   -0.7012 C.3       1 <0>        -0.1181
      3 C3          3.6791   -3.2057   -1.2738 C.3       1 <0>         0.0485
      4 N1          2.8672   -2.4137   -0.3402 N.3       1 <0>        -0.5271
      5 C4          2.9669   -0.9794   -0.6419 C.3       1 <0>         0.0476
      6 C5          4.3959   -0.5008   -0.3780 C.3       1 <0>        -0.1229
      7 C6          4.4997    0.9930   -0.6923 C.3       1 <0>        -0.1552
      8 C7          1.4671   -2.8581   -0.3523 C.3       1 <0>         0.0261
      9 C8          0.7462   -2.3061    0.8791 C.3       1 <0>         0.0298
     10 H1          0.8226   -1.2189    0.8874 H         1 <0>         0.1360
     11 C9          1.3938   -2.8719    2.1448 C.3       1 <0>        -0.1274
     12 C10         0.6692   -2.3165    3.3744 C.3       1 <0>        -0.1390
     13 C11        -0.8190   -2.6650    3.2784 C.3       1 <0>        -0.1452
     14 C12        -1.3846   -2.1069    1.9707 C.3       1 <0>        -0.0127
     15 N2         -0.6681   -2.6963    0.8332 N.4       1 <0>        -0.3742
     16 C13        -1.2660   -2.2180   -0.4205 C.3       1 <0>        -0.0308
     17 C14        -2.6952   -2.7509   -0.5398 C.3       1 <0>         0.1165
     18 N3         -3.2915   -2.2739   -1.7900 N.am      1 <0>        -0.7332
     19 C15        -4.5543   -2.6200   -2.1095 C.2       1 <0>         0.7283
     20 O1         -5.1986   -3.3281   -1.3601 O.2       1 <0>        -0.5480
     21 N4         -5.1028   -2.1812   -3.2597 N.am      1 <0>        -0.5158
     22 C16        -6.4096   -2.5280   -3.5974 C.ar      1 <0>         0.1780
     23 C17        -6.7574   -3.8631   -3.7458 C.ar      1 <0>        -0.1022
     24 C18        -8.0420   -4.2068   -4.1181 C.ar      1 <0>        -0.0748
     25 C19        -8.9895   -3.2228   -4.3479 C.ar      1 <0>        -0.1148
     26 C20        -8.6645   -1.8930   -4.1910 C.ar      1 <0>        -0.0466
     27 C21        -7.3733   -1.5298   -3.7960 C.ar      1 <0>        -0.1393
     28 C22        -7.0567   -0.1192   -3.5432 C.2       1 <0>         0.5701
     29 O2         -7.9246    0.5584   -3.0277 O.2       1 <0>        -0.5088
     30 N5         -5.9113    0.4826   -3.8262 N.am      1 <0>        -0.6548
     31 C23        -4.7958   -0.0828   -4.4376 C.ar      1 <0>         0.1166
     32 C24        -4.3717   -1.3669   -4.1286 C.ar      1 <0>         0.2991
     33 N6         -3.2614   -1.8461   -4.6726 N.ar      1 <0>        -0.4734
     34 C25        -2.5541   -1.1514   -5.5424 C.ar      1 <0>         0.1094
     35 C26        -2.9470    0.1150   -5.9255 C.ar      1 <0>        -0.1334
     36 C27        -4.0801    0.6602   -5.3713 C.ar      1 <0>        -0.0813
     37 H2          4.2391   -5.5030   -2.6299 H         1 <0>         0.0543
     38 H3          5.7124   -4.9421   -1.8036 H         1 <0>         0.0592
     39 H4          4.8987   -6.4290   -1.2603 H         1 <0>         0.0619
     40 H5          2.9265   -5.0960   -0.5659 H         1 <0>         0.0559
     41 H6          4.3999   -4.5350    0.2604 H         1 <0>         0.0740
     42 H7          4.6449   -2.7211   -1.4167 H         1 <0>         0.0910
     43 H8          3.1639   -3.2786   -2.2316 H         1 <0>         0.0422
     44 H9          2.7144   -0.8099   -1.6887 H         1 <0>         0.0421
     45 H10         2.2752   -0.4257   -0.0071 H         1 <0>         0.0715
     46 H11         4.6484   -0.6703    0.6687 H         1 <0>         0.0737
     47 H12         5.0876   -1.0546   -1.0129 H         1 <0>         0.0679
     48 H13         5.5178    1.3339   -0.5043 H         1 <0>         0.0637
     49 H14         4.2472    1.1624   -1.7390 H         1 <0>         0.0547
     50 H15         3.8080    1.5467   -0.0574 H         1 <0>         0.0544
     51 H16         0.9774   -2.4919   -1.2546 H         1 <0>         0.0578
     52 H17         1.4316   -3.9474   -0.3362 H         1 <0>         0.1003
     53 H18         1.3177   -3.9592    2.1378 H         1 <0>         0.0856
     54 H19         2.4434   -2.5801    2.1783 H         1 <0>         0.1242
     55 H20         1.0900   -2.7602    4.2767 H         1 <0>         0.0955
     56 H21         0.7885   -1.2337    3.4095 H         1 <0>         0.0800
     57 H22        -0.9410   -3.7480    3.2948 H         1 <0>         0.0894
     58 H23        -1.3509   -2.2252    4.1220 H         1 <0>         0.1133
     59 H24        -2.4440   -2.3530    1.8992 H         1 <0>         0.1339
     60 H25        -1.2623   -1.0239    1.9553 H         1 <0>         0.1298
     61 H26        -1.2832   -1.1281   -0.4222 H         1 <0>         0.1357
     62 H27        -0.6741   -2.5733   -1.2641 H         1 <0>         0.1409
     63 H28        -2.6780   -3.8407   -0.5381 H         1 <0>         0.0934
     64 H29        -3.2870   -2.3955    0.3038 H         1 <0>         0.0916
     65 H30        -2.7774   -1.7089   -2.3880 H         1 <0>         0.4056
     66 H31        -6.0223   -4.6345   -3.5702 H         1 <0>         0.1348
     67 H32        -8.3091   -5.2472   -4.2303 H         1 <0>         0.1415
     68 H33        -9.9882   -3.4994   -4.6519 H         1 <0>         0.1430
     69 H34        -9.4077   -1.1308   -4.3729 H         1 <0>         0.1440
     70 H35        -5.8422    1.4185   -3.5806 H         1 <0>         0.4155
     71 H36        -1.6554   -1.5796   -5.9611 H         1 <0>         0.1733
     72 H37        -2.3725    0.6685   -6.6535 H         1 <0>         0.1557
     73 H38        -4.4040    1.6513   -5.6529 H         1 <0>         0.1550
     74 H39        -0.7401   -3.7018    0.8756 H         1 <0>         0.4238
@<TRIPOS>BOND
     1    1    2 1
     2    1   37 1
     3    1   38 1
     4    1   39 1
     5    2    3 1
     6    2   40 1
     7    2   41 1
     8    3    4 1
     9    3   42 1
    10    3   43 1
    11    4    5 1
    12    4    8 1
    13    5    6 1
    14    5   44 1
    15    5   45 1
    16    6    7 1
    17    6   46 1
    18    6   47 1
    19    7   48 1
    20    7   49 1
    21    7   50 1
    22    8    9 1
    23    8   51 1
    24    8   52 1
    25    9   10 1
    26    9   15 1
    27    9   11 1
    28   11   12 1
    29   11   53 1
    30   11   54 1
    31   12   13 1
    32   12   55 1
    33   12   56 1
    34   13   14 1
    35   13   57 1
    36   13   58 1
    37   14   15 1
    38   14   59 1
    39   14   60 1
    40   15   16 1
    41   15   74 1
    42   16   17 1
    43   16   61 1
    44   16   62 1
    45   17   18 1
    46   17   63 1
    47   17   64 1
    48   18   19 am
    49   18   65 1
    50   19   20 2
    51   19   21 am
    52   21   32 1
    53   21   22 1
    54   22   27 ar
    55   22   23 ar
    56   23   24 ar
    57   23   66 1
    58   24   25 ar
    59   24   67 1
    60   25   26 ar
    61   25   68 1
    62   26   27 ar
    63   26   69 1
    64   27   28 1
    65   28   29 2
    66   28   30 am
    67   30   31 1
    68   30   70 1
    69   31   36 ar
    70   31   32 ar
    71   32   33 ar
    72   33   34 ar
    73   34   35 ar
    74   34   71 1
    75   35   36 ar
    76   35   72 1
    77   36   73 1
@<TRIPOS>MOLECULE
ZINC06031666
   31    33     0     0     0
SMALL
USER_CHARGES
methylBLAH
@<TRIPOS>ATOM
      1 C1         -2.9968    2.4667    1.5287 C.3       1 <0>        -0.1580
      2 C2         -2.1298    1.5079    0.7102 C.3       1 <0>         0.2232
      3 H1         -2.5011    0.4882    0.8115 H         1 <0>         0.0910
      4 O1         -0.7517    1.5833    1.1517 O.3       1 <0>        -0.3620
      5 C3         -0.0127    1.0858    0.0080 C.3       1 <0>         0.0233
      6 C4         -0.8202    1.6269   -1.1852 C.3       1 <0>         0.0685
      7 O2         -2.1308    1.8997   -0.6749 O.3       1 <0>        -0.3578
      8 C5         -0.1768    2.9016   -1.7237 C.3       1 <0>        -0.0035
      9 C6         -1.0465    2.4431   -3.9385 C.3       1 <0>        -0.0011
     10 C7         -1.7086    1.1491   -3.4572 C.3       1 <0>        -0.1331
     11 C8         -0.8864    0.5758   -2.2939 C.3       1 <0>        -0.1032
     12 C9          0.5386    0.3074   -2.7981 C.3       1 <0>        -0.1386
     13 C10         1.1400    1.6216   -3.3037 C.3       1 <0>        -0.0049
     14 H2         -4.0192    2.4440    1.1514 H         1 <0>         0.0860
     15 H3         -2.9887    2.1607    2.5748 H         1 <0>         0.0880
     16 H4         -2.6002    3.4784    1.4429 H         1 <0>         0.0729
     17 H5          0.0021   -0.0041    0.0020 H         1 <0>         0.0935
     18 H6          1.0018    1.4845    0.0005 H         1 <0>         0.1140
     19 H7         -0.8759    3.7322   -1.6266 H         1 <0>         0.1433
     20 H8          0.7305    3.1186   -1.1598 H         1 <0>         0.1395
     21 H9         -0.7733    2.3421   -4.9889 H         1 <0>         0.1310
     22 H10        -1.7443    3.2725   -3.8235 H         1 <0>         0.1295
     23 H11        -1.7381    0.4280   -4.2740 H         1 <0>         0.1036
     24 H12        -2.7231    1.3595   -3.1187 H         1 <0>         0.1069
     25 H13        -1.3479   -0.3382   -1.9202 H         1 <0>         0.1226
     26 H14         1.1472   -0.0827   -1.9823 H         1 <0>         0.1026
     27 H15         0.5076   -0.4171   -3.6119 H         1 <0>         0.1106
     28 H16         1.3990    1.5206   -4.3577 H         1 <0>         0.1337
     29 H17         2.0371    1.8548   -2.7302 H         1 <0>         0.1303
     30 N1          0.1720    2.7279   -3.1516 N.4       1 <0>        -0.3888
     31 H18         0.5985    3.5950   -3.4988 H         1 <0>         0.4370
@<TRIPOS>BOND
     1    1    2 1
     2    1   14 1
     3    1   15 1
     4    1   16 1
     5    2    3 1
     6    2    7 1
     7    2    4 1
     8    4    5 1
     9    5    6 1
    10    5   17 1
    11    5   18 1
    12    6   11 1
    13    6    7 1
    14    6    8 1
    15    8   19 1
    16    8   20 1
    17    8   30 1
    18    9   10 1
    19    9   21 1
    20    9   22 1
    21    9   30 1
    22   10   11 1
    23   10   23 1
    24   10   24 1
    25   11   12 1
    26   11   25 1
    27   12   13 1
    28   12   26 1
    29   12   27 1
    30   13   28 1
    31   13   29 1
    32   13   30 1
    33   30   31 1
@<TRIPOS>MOLECULE
ZINC06031671
   31    33     0     0     0
SMALL
USER_CHARGES
methylBLAH
@<TRIPOS>ATOM
      1 C1         -5.5234   -0.5509   -1.2620 C.3       1 <0>        -0.1549
      2 C2         -4.6965    0.1933   -0.2116 C.3       1 <0>         0.2200
      3 H1         -4.6943   -0.3576    0.7289 H         1 <0>         0.0847
      4 O1         -5.2173    1.5259   -0.0129 O.3       1 <0>        -0.3613
      5 C3         -4.1108    2.2715    0.5405 C.3       1 <0>         0.0266
      6 C4         -2.8588    1.5068    0.0854 C.3       1 <0>         0.0638
      7 O2         -3.3441    0.3930   -0.6812 O.3       1 <0>        -0.3501
      8 C5         -2.0655    1.0170    1.2921 C.3       1 <0>        -0.0166
      9 C6         -0.0127    1.0858    0.0080 C.3       1 <0>        -0.0014
     10 C7         -0.7523    1.5926   -1.2333 C.3       1 <0>        -0.1341
     11 C8         -1.9761    2.4034   -0.7833 C.3       1 <0>        -0.0911
     12 C9         -1.4840    3.5795    0.0723 C.3       1 <0>        -0.1406
     13 C10        -0.7146    3.0272    1.2753 C.3       1 <0>        -0.0046
     14 H2         -5.5040    0.0042   -2.1998 H         1 <0>         0.0778
     15 H3         -5.1026   -1.5441   -1.4189 H         1 <0>         0.0854
     16 H4         -6.5528   -0.6430   -0.9155 H         1 <0>         0.0891
     17 H5         -4.1707    2.2886    1.6287 H         1 <0>         0.0846
     18 H6         -4.0998    3.2874    0.1456 H         1 <0>         0.1136
     19 H7         -2.0267   -0.0723    1.2859 H         1 <0>         0.1420
     20 H8         -2.5454    1.3615    2.2081 H         1 <0>         0.1385
     21 H9          0.0021   -0.0041    0.0020 H         1 <0>         0.1293
     22 H10         1.0100    1.4627    0.0003 H         1 <0>         0.1317
     23 H11        -0.0887    2.2278   -1.8200 H         1 <0>         0.1044
     24 H12        -1.0752    0.7449   -1.8377 H         1 <0>         0.1074
     25 H13        -2.5249    2.7711   -1.6503 H         1 <0>         0.1267
     26 H14        -0.8262    4.2136   -0.5221 H         1 <0>         0.1118
     27 H15        -2.3379    4.1619    0.4184 H         1 <0>         0.1037
     28 H16         0.3086    3.4023    1.2552 H         1 <0>         0.1342
     29 H17        -1.2011    3.3489    2.1962 H         1 <0>         0.1304
     30 N1         -0.6858    1.5496    1.2397 N.4       1 <0>        -0.3874
     31 H18        -0.1640    1.2063    2.0546 H         1 <0>         0.4366
@<TRIPOS>BOND
     1    1    2 1
     2    1   14 1
     3    1   15 1
     4    1   16 1
     5    2    3 1
     6    2    7 1
     7    2    4 1
     8    4    5 1
     9    5    6 1
    10    5   17 1
    11    5   18 1
    12    6   11 1
    13    6    7 1
    14    6    8 1
    15    8   19 1
    16    8   20 1
    17    8   30 1
    18    9   10 1
    19    9   21 1
    20    9   22 1
    21    9   30 1
    22   10   11 1
    23   10   23 1
    24   10   24 1
    25   11   12 1
    26   11   25 1
    27   12   13 1
    28   12   26 1
    29   12   27 1
    30   13   28 1
    31   13   29 1
    32   13   30 1
    33   30   31 1
@<TRIPOS>MOLECULE
ZINC13741670
   25    26     0     0     0
SMALL
USER_CHARGES
3-methoxy-5,6,7,8-tetrahydro-4H-isoxazolo[4,5-c]azepine
@<TRIPOS>ATOM
      1 C1         -0.0127    1.0858    0.0080 C.3       1 <0>         0.0270
      2 O1         -0.6816    1.5467    1.1837 O.3       1 <0>        -0.2823
      3 C2         -0.1496    1.1826    2.3779 C.2       1 <0>         0.2476
      4 C3         -0.6281    1.5128    3.6572 C.2       1 <0>        -0.2937
      5 C4          0.2280    0.9198    4.5094 C.2       1 <0>         0.0375
      6 O2          1.1401    0.2962    3.7655 O.3       1 <0>         0.1301
      7 N1          0.9163    0.4437    2.5796 N.2       1 <0>        -0.3916
      8 C5          0.1106    0.9910    6.0200 C.3       1 <0>        -0.0583
      9 C6         -1.2121    0.2962    6.3916 C.3       1 <0>        -0.1352
     10 C7         -2.3851    1.2116    6.1408 C.3       1 <0>        -0.0189
     11 C8         -1.8209    2.3494    4.0646 C.3       1 <0>         0.1013
     12 H1          0.0021   -0.0041    0.0020 H         1 <0>         0.0673
     13 H2          1.0099    1.4631    0.0003 H         1 <0>         0.0683
     14 H3         -0.5399    1.4469   -0.8751 H         1 <0>         0.1176
     15 H4          0.9485    0.4712    6.4845 H         1 <0>         0.1209
     16 H5          0.0895    2.0315    6.3441 H         1 <0>         0.1184
     17 H6         -1.3253   -0.6055    5.7898 H         1 <0>         0.0924
     18 H7         -1.1900    0.0231    7.4466 H         1 <0>         0.1317
     19 H8         -3.2507    0.7961    6.6567 H         1 <0>         0.1330
     20 H9         -2.1600    2.1768    6.5945 H         1 <0>         0.1309
     21 H10        -1.5042    3.1481    4.7354 H         1 <0>         0.1470
     22 H11        -2.2993    2.7715    3.1808 H         1 <0>         0.1476
     23 N2         -2.7764    1.4358    4.7536 N.4       1 <0>        -0.5152
     24 H12        -3.7137    1.8544    4.7338 H         1 <0>         0.4428
     25 H13        -2.7933    0.5351    4.2609 H         1 <0>         0.4337
@<TRIPOS>BOND
     1    1    2 1
     2    1   12 1
     3    1   13 1
     4    1   14 1
     5    2    3 1
     6    3    7 2
     7    3    4 1
     8    4   11 1
     9    4    5 2
    10    5    6 1
    11    5    8 1
    12    6    7 1
    13    8    9 1
    14    8   15 1
    15    8   16 1
    16    9   10 1
    17    9   17 1
    18    9   18 1
    19   10   19 1
    20   10   20 1
    21   10   23 1
    22   11   21 1
    23   11   22 1
    24   11   23 1
    25   23   24 1
    26   23   25 1
@<TRIPOS>MOLECULE
ZINC03781952
   75    78     0     0     0
SMALL
USER_CHARGES

@<TRIPOS>ATOM
      1 C1         -0.0187    1.5258    0.0104 C.3       1 <0>        -0.1407
      2 C2          0.0021   -0.0041    0.0020 C.3       1 <0>        -0.0385
      3 C3          0.7421   -0.5109    1.2415 C.3       1 <0>        -0.1408
      4 C4         -1.4333   -0.5336    0.0129 C.3       1 <0>        -0.1494
      5 C5          0.7074   -0.4901   -1.2379 C.ar      1 <0>        -0.0242
      6 C6          0.0318   -1.2851   -2.1472 C.ar      1 <0>        -0.1330
      7 C7          0.6704   -1.7342   -3.2838 C.ar      1 <0>        -0.0521
      8 C8          2.0042   -1.3838   -3.5167 C.ar      1 <0>        -0.1900
      9 C9          2.6798   -0.5797   -2.5932 C.ar      1 <0>        -0.0705
     10 C10         2.0257   -0.1343   -1.4640 C.ar      1 <0>        -0.1293
     11 C11         2.6933   -1.8592   -4.7271 C.2       1 <0>         0.4019
     12 O1          2.1046   -2.5566   -5.5255 O.2       1 <0>        -0.4523
     13 C12         4.1305   -1.4793   -4.9741 C.3       1 <0>        -0.1645
     14 C13         4.6026   -2.0988   -6.2911 C.3       1 <0>        -0.1428
     15 C14         6.0618   -1.7131   -6.5419 C.3       1 <0>        -0.0098
     16 N1          6.5150   -2.3078   -7.8064 N.4       1 <0>        -0.3848
     17 C15         5.7542   -1.7268   -8.9191 C.3       1 <0>        -0.0081
     18 C16         6.1653   -2.4008  -10.2299 C.3       1 <0>        -0.1447
     19 C17         7.6627   -2.1804  -10.4632 C.3       1 <0>         0.0798
     20 C18         8.4419   -2.7237   -9.2620 C.3       1 <0>        -0.1729
     21 C19         7.9464   -2.0378   -7.9870 C.3       1 <0>        -0.0020
     22 O2          8.0684   -2.8698  -11.6473 O.3       1 <0>        -0.3517
     23 C20         9.1590   -2.2528  -12.3343 C.3       1 <0>         0.1820
     24 C21         9.9653   -3.3078  -13.0469 C.ar      1 <0>        -0.0932
     25 C22         9.3246   -4.3510  -13.6889 C.ar      1 <0>        -0.0892
     26 C23        10.0641   -5.3188  -14.3426 C.ar      1 <0>        -0.1204
     27 C24        11.4443   -5.2432  -14.3547 C.ar      1 <0>        -0.1095
     28 C25        12.0850   -4.1995  -13.7134 C.ar      1 <0>        -0.1178
     29 C26        11.3453   -3.2294  -13.0634 C.ar      1 <0>        -0.1086
     30 C27         8.6252   -1.2645  -13.3391 C.ar      1 <0>        -0.1192
     31 C28         7.4409   -1.5250  -14.0028 C.ar      1 <0>        -0.0948
     32 C29         6.9513   -0.6186  -14.9244 C.ar      1 <0>        -0.1204
     33 C30         7.6457    0.5486  -15.1820 C.ar      1 <0>        -0.1107
     34 C31         8.8295    0.8095  -14.5177 C.ar      1 <0>        -0.1173
     35 C32         9.3169   -0.0949  -13.5929 C.ar      1 <0>        -0.1097
     36 H1          1.0039    1.9031    0.0027 H         1 <0>         0.0582
     37 H2         -0.5459    1.8868   -0.8726 H         1 <0>         0.0580
     38 H3         -0.5289    1.8773    0.9072 H         1 <0>         0.0652
     39 H4          0.2319   -0.1594    2.1383 H         1 <0>         0.0652
     40 H5          0.7568   -1.6008    1.2356 H         1 <0>         0.0581
     41 H6          1.7647   -0.1336    1.2338 H         1 <0>         0.0583
     42 H7         -1.9605   -0.1726   -0.8702 H         1 <0>         0.0608
     43 H8         -1.4185   -1.6235    0.0069 H         1 <0>         0.0608
     44 H9         -1.9435   -0.1821    0.9097 H         1 <0>         0.0648
     45 H10        -0.9981   -1.5548   -1.9660 H         1 <0>         0.1374
     46 H11         0.1421   -2.3551   -3.9922 H         1 <0>         0.1339
     47 H12         3.7100   -0.3052   -2.7660 H         1 <0>         0.1290
     48 H13         2.5448    0.4903   -0.7521 H         1 <0>         0.1310
     49 H14         4.2147   -0.3941   -5.0323 H         1 <0>         0.1108
     50 H15         4.7496   -1.8484   -4.1565 H         1 <0>         0.1112
     51 H16         4.5185   -3.1840   -6.2329 H         1 <0>         0.0947
     52 H17         3.9835   -1.7296   -7.1087 H         1 <0>         0.0945
     53 H18         6.1459   -0.6279   -6.6001 H         1 <0>         0.1318
     54 H19         6.6809   -2.0822   -5.7243 H         1 <0>         0.1338
     55 H20         4.6886   -1.8817   -8.7500 H         1 <0>         0.1392
     56 H21         5.9600   -0.6582   -8.9805 H         1 <0>         0.1309
     57 H22         5.9598   -3.4696  -10.1697 H         1 <0>         0.0986
     58 H23         5.6006   -1.9668  -11.0551 H         1 <0>         0.1191
     59 H24         7.8612   -1.1144  -10.5745 H         1 <0>         0.0798
     60 H25         8.2836   -3.7992   -9.1817 H         1 <0>         0.0990
     61 H26         9.5044   -2.5205   -9.3953 H         1 <0>         0.1130
     62 H27         8.1054   -0.9625   -8.0683 H         1 <0>         0.1296
     63 H28         8.4993   -2.4221   -7.1299 H         1 <0>         0.1347
     64 H29         9.7938   -1.7338  -11.6162 H         1 <0>         0.0781
     65 H30         8.2462   -4.4101  -13.6795 H         1 <0>         0.1238
     66 H31         9.5636   -6.1342  -14.8436 H         1 <0>         0.1255
     67 H32        12.0222   -5.9997  -14.8648 H         1 <0>         0.1260
     68 H33        13.1634   -4.1406  -13.7226 H         1 <0>         0.1268
     69 H34        11.8457   -2.4119  -12.5656 H         1 <0>         0.1207
     70 H35         6.8984   -2.4369  -13.8015 H         1 <0>         0.1247
     71 H36         6.0264   -0.8224  -15.4435 H         1 <0>         0.1249
     72 H37         7.2635    1.2565  -15.9026 H         1 <0>         0.1255
     73 H38         9.3722    1.7213  -14.7192 H         1 <0>         0.1260
     74 H39        10.2399    0.1106  -13.0711 H         1 <0>         0.1206
     75 H40         6.3624   -3.3049   -7.7817 H         1 <0>         0.4252
@<TRIPOS>BOND
     1    1    2 1
     2    1   36 1
     3    1   37 1
     4    1   38 1
     5    2    3 1
     6    2    4 1
     7    2    5 1
     8    3   39 1
     9    3   40 1
    10    3   41 1
    11    4   42 1
    12    4   43 1
    13    4   44 1
    14    5   10 ar
    15    5    6 ar
    16    6    7 ar
    17    6   45 1
    18    7    8 ar
    19    7   46 1
    20    8    9 ar
    21    8   11 1
    22    9   10 ar
    23    9   47 1
    24   10   48 1
    25   11   12 2
    26   11   13 1
    27   13   14 1
    28   13   49 1
    29   13   50 1
    30   14   15 1
    31   14   51 1
    32   14   52 1
    33   15   16 1
    34   15   53 1
    35   15   54 1
    36   16   21 1
    37   16   17 1
    38   16   75 1
    39   17   18 1
    40   17   55 1
    41   17   56 1
    42   18   19 1
    43   18   57 1
    44   18   58 1
    45   19   20 1
    46   19   22 1
    47   19   59 1
    48   20   21 1
    49   20   60 1
    50   20   61 1
    51   21   62 1
    52   21   63 1
    53   22   23 1
    54   23   24 1
    55   23   30 1
    56   23   64 1
    57   24   29 ar
    58   24   25 ar
    59   25   26 ar
    60   25   65 1
    61   26   27 ar
    62   26   66 1
    63   27   28 ar
    64   27   67 1
    65   28   29 ar
    66   28   68 1
    67   29   69 1
    68   30   35 ar
    69   30   31 ar
    70   31   32 ar
    71   31   70 1
    72   32   33 ar
    73   32   71 1
    74   33   34 ar
    75   33   72 1
    76   34   35 ar
    77   34   73 1
    78   35   74 1
@<TRIPOS>MOLECULE
ZINC13775874
   43    46     0     0     0
SMALL
USER_CHARGES
6-(4-methylpiperazin-1-yl)-11H-benzo[b][1,4]benzodiazepin-8-ol
@<TRIPOS>ATOM
      1 C1          6.4674    1.1035   -4.6799 C.3       1 <0>         0.0225
      2 N1          6.0757    1.0859   -3.2642 N.3       1 <0>        -0.5422
      3 C2          6.1352    2.4344   -2.6846 C.3       1 <0>         0.0393
      4 C3          5.8977    2.3481   -1.1732 C.3       1 <0>         0.1257
      5 N2          4.6384    1.6254   -0.9386 N.pl3     1 <0>        -0.5968
      6 C4          4.4514    0.3222   -1.5945 C.3       1 <0>         0.1104
      7 C5          4.7434    0.4910   -3.0940 C.3       1 <0>         0.0397
      8 C6          3.6631    2.1519   -0.1225 C.2       1 <0>         0.5007
      9 N3          3.8467    3.3511    0.3026 N.2       1 <0>        -0.5950
     10 C7          3.0468    4.0749    1.1349 C.ar      1 <0>         0.1398
     11 C8          3.6385    4.9011    2.0943 C.ar      1 <0>        -0.1100
     12 C9          2.8535    5.7100    2.8924 C.ar      1 <0>        -0.1139
     13 C10         1.4788    5.7070    2.7488 C.ar      1 <0>        -0.1280
     14 C11         0.8794    4.8796    1.8142 C.ar      1 <0>        -0.1200
     15 C12         1.6541    4.0534    1.0170 C.ar      1 <0>         0.1190
     16 N4          1.0246    3.1957    0.1011 N.pl3     1 <0>        -0.7379
     17 C13         1.2161    1.8154    0.2319 C.ar      1 <0>         0.1793
     18 C14         2.5133    1.2878    0.1795 C.ar      1 <0>        -0.1023
     19 C15         2.7040   -0.0799    0.3846 C.ar      1 <0>        -0.1175
     20 C16         1.6148   -0.9040    0.6117 C.ar      1 <0>         0.1369
     21 C17         0.3317   -0.3765    0.6363 C.ar      1 <0>        -0.1732
     22 C18         0.1338    0.9796    0.4473 C.ar      1 <0>        -0.1041
     23 O1          1.8034   -2.2360    0.8111 O.3       1 <0>        -0.5087
     24 H1          7.4665    1.5530   -4.7783 H         1 <0>         0.0714
     25 H2          5.7403    1.6965   -5.2541 H         1 <0>         0.0253
     26 H3          6.4886    0.0742   -5.0673 H         1 <0>         0.0712
     27 H4          7.1256    2.8728   -2.8769 H         1 <0>         0.0875
     28 H5          5.3596    3.0653   -3.1434 H         1 <0>         0.0374
     29 H6          6.7328    1.8099   -0.7010 H         1 <0>         0.0707
     30 H7          5.8317    3.3629   -0.7539 H         1 <0>         0.1064
     31 H8          5.1432   -0.4118   -1.1556 H         1 <0>         0.0781
     32 H9          3.4154   -0.0169   -1.4476 H         1 <0>         0.1000
     33 H10         3.9871    1.1504   -3.5449 H         1 <0>         0.0378
     34 H11         4.7147   -0.4914   -3.5880 H         1 <0>         0.0887
     35 H12         4.7120    4.9071    2.2118 H         1 <0>         0.1254
     36 H13         3.3156    6.3471    3.6320 H         1 <0>         0.1242
     37 H14         0.8710    6.3511    3.3670 H         1 <0>         0.1226
     38 H15        -0.1953    4.8783    1.7068 H         1 <0>         0.1210
     39 H16         0.3955    3.6121   -0.6995 H         1 <0>         0.4257
     40 H17         3.7009   -0.4950    0.3664 H         1 <0>         0.1395
     41 H18        -0.5146   -1.0263    0.8038 H         1 <0>         0.1342
     42 H19        -0.8667    1.3860    0.4633 H         1 <0>         0.1330
     43 H20         0.9397   -2.8928    0.9917 H         1 <0>         0.4362
@<TRIPOS>BOND
     1    1    2 1
     2    1   24 1
     3    1   25 1
     4    1   26 1
     5    2    7 1
     6    2    3 1
     7    3    4 1
     8    3   27 1
     9    3   28 1
    10    4    5 1
    11    4   29 1
    12    4   30 1
    13    5    6 1
    14    5    8 1
    15    6    7 1
    16    6   31 1
    17    6   32 1
    18    7   33 1
    19    7   34 1
    20    8   18 1
    21    8    9 2
    22    9   10 1
    23   10   15 ar
    24   10   11 ar
    25   11   12 ar
    26   11   35 1
    27   12   13 ar
    28   12   36 1
    29   13   14 ar
    30   13   37 1
    31   14   15 ar
    32   14   38 1
    33   15   16 1
    34   16   17 1
    35   16   39 1
    36   17   22 ar
    37   17   18 ar
    38   18   19 ar
    39   19   20 ar
    40   19   40 1
    41   20   21 ar
    42   20   23 1
    43   21   22 ar
    44   21   41 1
    45   22   42 1
    46   23   43 1
@<TRIPOS>MOLECULE
ZINC00007360
   49    52     0     0     0
SMALL
USER_CHARGES

@<TRIPOS>ATOM
      1 C1         -0.0178    1.4648    0.0101 C.3       1 <0>        -0.0434
      2 N1          0.0021   -0.0041    0.0020 N.4       1 <0>        -0.3971
      3 C2         -1.3736   -0.5473    0.1574 C.3       1 <0>         0.0374
      4 H1         -2.0955   -0.0286   -0.4735 H         1 <0>         0.1528
      5 C3         -1.6823   -0.3750    1.6625 C.3       1 <0>        -0.1440
      6 C4         -0.3012   -0.3601    2.3500 C.3       1 <0>        -0.1455
      7 C5          0.7165   -0.5247    1.1979 C.3       1 <0>         0.0392
      8 H2          1.6459    0.0118    1.3892 H         1 <0>         0.1564
      9 C6          0.9375   -2.0297    0.9772 C.3       1 <0>        -0.1422
     10 C7         -0.4245   -2.7273    0.9179 C.3       1 <0>         0.0777
     11 C8         -1.3075   -2.0510   -0.1543 C.3       1 <0>        -0.1686
     12 O1         -0.2397   -4.1026    0.5766 O.3       1 <0>        -0.3532
     13 C9         -1.2328   -4.9747    1.1199 C.3       1 <0>         0.1859
     14 C10        -1.4248   -6.1524    0.1994 C.ar      1 <0>        -0.1075
     15 C11        -0.3305   -6.7414   -0.4061 C.ar      1 <0>        -0.0593
     16 C12        -0.5053   -7.8217   -1.2501 C.ar      1 <0>        -0.1549
     17 C13        -1.7772   -8.3141   -1.4891 C.ar      1 <0>         0.1125
     18 C14        -2.8725   -7.7233   -0.8821 C.ar      1 <0>        -0.1521
     19 C15        -2.6946   -6.6464   -0.0344 C.ar      1 <0>        -0.0770
     20 F1         -1.9493   -9.3698   -2.3143 F         1 <0>        -0.1331
     21 C16        -0.7862   -5.4630    2.4738 C.ar      1 <0>        -0.1344
     22 C17         0.5548   -5.6957    2.7163 C.ar      1 <0>        -0.0651
     23 C18         0.9656   -6.1430    3.9577 C.ar      1 <0>        -0.1547
     24 C19         0.0336   -6.3582    4.9587 C.ar      1 <0>         0.1114
     25 C20        -1.3092   -6.1249    4.7146 C.ar      1 <0>        -0.1517
     26 C21        -1.7171   -5.6725    3.4741 C.ar      1 <0>        -0.0782
     27 F2          0.4339   -6.7960    6.1725 F         1 <0>        -0.1332
     28 H3          1.0047    1.8421    0.0024 H         1 <0>         0.1229
     29 H4         -0.5450    1.8259   -0.8730 H         1 <0>         0.1227
     30 H5         -0.5280    1.8163    0.9069 H         1 <0>         0.1211
     31 H6         -2.2034    0.5662    1.8375 H         1 <0>         0.1016
     32 H7         -2.2779   -1.2126    2.0258 H         1 <0>         0.1111
     33 H8         -0.1432    0.5886    2.8631 H         1 <0>         0.1017
     34 H9         -0.2177   -1.1902    3.0515 H         1 <0>         0.1128
     35 H10         1.4693   -2.1869    0.0388 H         1 <0>         0.0996
     36 H11         1.5211   -2.4379    1.8024 H         1 <0>         0.1193
     37 H12        -0.9099   -2.6582    1.8914 H         1 <0>         0.0873
     38 H13        -2.3108   -2.4756   -0.1193 H         1 <0>         0.1128
     39 H14        -0.8806   -2.1999   -1.1461 H         1 <0>         0.1006
     40 H15        -2.1744   -4.4351    1.2207 H         1 <0>         0.0831
     41 H16         0.6614   -6.3570   -0.2198 H         1 <0>         0.1352
     42 H17         0.3497   -8.2815   -1.7233 H         1 <0>         0.1398
     43 H18        -3.8650   -8.1063   -1.0681 H         1 <0>         0.1412
     44 H19        -3.5484   -6.1883    0.4427 H         1 <0>         0.1331
     45 H20         1.2816   -5.5281    1.9353 H         1 <0>         0.1362
     46 H21         2.0132   -6.3250    4.1468 H         1 <0>         0.1393
     47 H22        -2.0372   -6.2927    5.4946 H         1 <0>         0.1405
     48 H23        -2.7639   -5.4862    3.2849 H         1 <0>         0.1330
     49 H24         0.4289   -0.3487   -0.8448 H         1 <0>         0.4271
@<TRIPOS>BOND
     1    1    2 1
     2    1   28 1
     3    1   29 1
     4    1   30 1
     5    2    7 1
     6    2    3 1
     7    2   49 1
     8    3    4 1
     9    3   11 1
    10    3    5 1
    11    5    6 1
    12    5   31 1
    13    5   32 1
    14    6    7 1
    15    6   33 1
    16    6   34 1
    17    7    8 1
    18    7    9 1
    19    9   10 1
    20    9   35 1
    21    9   36 1
    22   10   11 1
    23   10   12 1
    24   10   37 1
    25   11   38 1
    26   11   39 1
    27   12   13 1
    28   13   14 1
    29   13   21 1
    30   13   40 1
    31   14   19 ar
    32   14   15 ar
    33   15   16 ar
    34   15   41 1
    35   16   17 ar
    36   16   42 1
    37   17   18 ar
    38   17   20 1
    39   18   19 ar
    40   18   43 1
    41   19   44 1
    42   21   26 ar
    43   21   22 ar
    44   22   23 ar
    45   22   45 1
    46   23   24 ar
    47   23   46 1
    48   24   25 ar
    49   24   27 1
    50   25   26 ar
    51   25   47 1
    52   26   48 1
