@<TRIPOS>MOLECULE
ZINC13726469
   47    48     0     0     0
SMALL
USER_CHARGES
N-[2-[[5-(dimethylaminomethyl)-2-furyl]methylsulfanyl]ethyl]-5-fluoro-2,4-dinitro-aniline
@<TRIPOS>ATOM
      1 C1          0.3964   -2.5473    2.0415 C.3       1 <0>        -0.0442
      2 C2          2.3123   -3.8709    1.3780 C.3       1 <0>        -0.0432
      3 C3          1.5421   -2.0623   -0.0357 C.3       1 <0>         0.0937
      4 C4          1.1337   -0.6117   -0.0240 C.2       1 <0>        -0.0990
      5 C5          1.9708    0.4412   -0.0279 C.2       1 <0>        -0.1368
      6 C6          1.1666    1.6039   -0.0128 C.2       1 <0>        -0.1843
      7 C7         -0.1138    1.1920   -0.0005 C.2       1 <0>         0.0480
      8 O1         -0.1277   -0.1510   -0.0073 O.3       1 <0>        -0.1607
      9 C8         -1.3271    2.0858    0.0123 C.3       1 <0>        -0.0255
     10 S1         -1.8257    2.4527   -1.6928 S.3       1 <0>        -0.2019
     11 C9         -3.2783    3.5229   -1.5046 C.3       1 <0>        -0.1131
     12 C10        -3.8073    3.9123   -2.8864 C.3       1 <0>         0.1183
     13 N1         -4.9804    4.7765   -2.7344 N.pl3     1 <0>        -0.6929
     14 C11        -5.6408    5.2628   -3.8650 C.ar      1 <0>         0.3466
     15 C12        -5.1192    5.0272   -5.1305 C.ar      1 <0>        -0.2413
     16 C13        -5.7758    5.5102   -6.2477 C.ar      1 <0>         0.2699
     17 C14        -6.9521    6.2279   -6.1042 C.ar      1 <0>        -0.1438
     18 C15        -7.4719    6.4634   -4.8452 C.ar      1 <0>         0.0912
     19 C16        -6.8235    5.9780   -3.7262 C.ar      1 <0>        -0.1371
     20 N2         -7.3855    6.2252   -2.3793 N.pl3     1 <0>         0.0499
     21 O2         -8.4745    6.7580   -2.2622 O.2       1 <0>        -0.1166
     22 O3         -6.7590    5.8957   -1.3881 O.3       1 <0>        -0.1902
     23 N3         -7.6533    6.7440   -7.3013 N.pl3     1 <0>         0.0353
     24 O4         -8.6875    7.3752   -7.1764 O.2       1 <0>        -0.1416
     25 O5         -7.1961    6.5376   -8.4112 O.3       1 <0>        -0.1374
     26 F1         -5.2703    5.2817   -7.4796 F         1 <0>        -0.0792
     27 H1         -0.2956   -3.2053    1.5160 H         1 <0>         0.1254
     28 H2          0.5347   -2.9055    3.0616 H         1 <0>         0.1254
     29 H3         -0.0096   -1.5360    2.0635 H         1 <0>         0.1172
     30 H4          3.2990   -3.8218    0.9175 H         1 <0>         0.1247
     31 H5          2.4099   -4.2010    2.4122 H         1 <0>         0.1263
     32 H6          1.6896   -4.5768    0.8284 H         1 <0>         0.1258
     33 H7          0.7782   -2.6507   -0.5442 H         1 <0>         0.1466
     34 H8          2.4915   -2.1683   -0.5606 H         1 <0>         0.1574
     35 H9          3.0502    0.4053   -0.0408 H         1 <0>         0.1659
     36 H10         1.5138    2.6266   -0.0113 H         1 <0>         0.1671
     37 H11        -2.1439    1.5823    0.5293 H         1 <0>         0.1099
     38 H12        -1.0881    3.0153    0.5289 H         1 <0>         0.1250
     39 H13        -4.0541    2.9892   -0.9557 H         1 <0>         0.1004
     40 H14        -2.9983    4.4222   -0.9561 H         1 <0>         0.1020
     41 H15        -3.0315    4.4460   -3.4354 H         1 <0>         0.0916
     42 H16        -4.0873    3.0129   -3.4350 H         1 <0>         0.0908
     43 H17        -5.2985    5.0111   -1.8486 H         1 <0>         0.4289
     44 H18        -4.2020    4.4679   -5.2419 H         1 <0>         0.1792
     45 H19        -8.3890    7.0232   -4.7366 H         1 <0>         0.1940
     46 N4          1.7073   -2.5224    1.3592 N.4       1 <0>        -0.4001
     47 H20         2.3284   -1.8713    1.8537 H         1 <0>         0.4326
@<TRIPOS>BOND
     1    1   27 1
     2    1   28 1
     3    1   29 1
     4    1   46 1
     5    2   30 1
     6    2   31 1
     7    2   32 1
     8    2   46 1
     9    3    4 1
    10    3   33 1
    11    3   34 1
    12    3   46 1
    13    4    8 1
    14    4    5 2
    15    5    6 1
    16    5   35 1
    17    6    7 2
    18    6   36 1
    19    7    8 1
    20    7    9 1
    21    9   10 1
    22    9   37 1
    23    9   38 1
    24   10   11 1
    25   11   12 1
    26   11   39 1
    27   11   40 1
    28   12   13 1
    29   12   41 1
    30   12   42 1
    31   13   14 1
    32   13   43 1
    33   14   19 ar
    34   14   15 ar
    35   15   16 ar
    36   15   44 1
    37   16   17 ar
    38   16   26 1
    39   17   18 ar
    40   17   23 1
    41   18   19 ar
    42   18   45 1
    43   19   20 1
    44   20   21 2
    45   20   22 1
    46   23   24 2
    47   23   25 1
    48   46   47 1
@<TRIPOS>MOLECULE
ZINC05160057
   40    41     0     0     0
SMALL
USER_CHARGES
1-[2-(3-pyrrolidin-1-ylprop-1-ynyl)-1-piperidyl]ethanone
@<TRIPOS>ATOM
      1 C1          7.8536    1.1026    2.1619 C.3       1 <0>        -0.1818
      2 C2          7.1213    2.1564    1.3718 C.2       1 <0>         0.5181
      3 O1          7.3539    2.2993    0.1901 O.2       1 <0>        -0.5360
      4 N1          6.2079    2.9401    1.9784 N.am      1 <0>        -0.6121
      5 C3          5.8368    2.7092    3.3812 C.3       1 <0>         0.0993
      6 C4          6.0130    4.0169    4.1594 C.3       1 <0>        -0.1407
      7 C5          5.2137    5.1265    3.4723 C.3       1 <0>        -0.1226
      8 C6          5.7438    5.3346    2.0518 C.3       1 <0>        -0.1261
      9 C7          5.5646    4.0418    1.2497 C.3       1 <0>         0.2329
     10 H1          6.0271    4.1532    0.2689 H         1 <0>         0.1337
     11 C8          4.1297    3.7558    1.0889 C.1       1 <0>        -0.0464
     12 C9          2.9852    3.5276    0.9607 C.1       1 <0>        -0.2749
     13 C10         1.5503    3.2415    0.7999 C.3       1 <0>         0.1452
     14 C11        -0.0278    1.5530    0.0507 C.3       1 <0>        -0.0091
     15 C12        -0.0119    0.0132    0.0482 C.3       1 <0>        -0.1466
     16 C13         1.4845   -0.3751    0.0574 C.3       1 <0>        -0.1468
     17 C14         2.1679    0.8926    0.6287 C.3       1 <0>        -0.0049
     18 H2          7.4475    1.0584    3.1725 H         1 <0>         0.0859
     19 H3          7.7296    0.1339    1.6778 H         1 <0>         0.0993
     20 H4          8.9135    1.3532    2.2069 H         1 <0>         0.1040
     21 H5          6.4811    1.9405    3.8078 H         1 <0>         0.1023
     22 H6          4.7965    2.3887    3.4360 H         1 <0>         0.0663
     23 H7          7.0684    4.2885    4.1804 H         1 <0>         0.0765
     24 H8          5.6507    3.8857    5.1791 H         1 <0>         0.0833
     25 H9          5.3175    6.0524    4.0379 H         1 <0>         0.0779
     26 H10         4.1621    4.8430    3.4295 H         1 <0>         0.0614
     27 H11         6.8018    5.5937    2.0926 H         1 <0>         0.0893
     28 H12         5.1897    6.1408    1.5711 H         1 <0>         0.0848
     29 H13         1.0726    4.0657    0.2702 H         1 <0>         0.1504
     30 H14         1.0907    3.1255    1.7814 H         1 <0>         0.1444
     31 H15        -0.5472    1.9204   -0.8343 H         1 <0>         0.1365
     32 H16        -0.5207    1.9178    0.9519 H         1 <0>         0.1335
     33 H17        -0.5080   -0.3717    0.9391 H         1 <0>         0.1040
     34 H18        -0.4979   -0.3687   -0.8496 H         1 <0>         0.1061
     35 H19         1.6566   -1.2325    0.7080 H         1 <0>         0.1158
     36 H20         1.8359   -0.5802   -0.9538 H         1 <0>         0.0982
     37 H21         2.0949    0.9121    1.7160 H         1 <0>         0.1315
     38 H22         3.2101    0.9431    0.3134 H         1 <0>         0.1315
     39 N2          1.3778    1.9738    0.0285 N.4       1 <0>        -0.3970
     40 H23         1.6796    2.1261   -0.9410 H         1 <0>         0.4329
@<TRIPOS>BOND
     1    1    2 1
     2    1   18 1
     3    1   19 1
     4    1   20 1
     5    2    3 2
     6    2    4 am
     7    4    9 1
     8    4    5 1
     9    5    6 1
    10    5   21 1
    11    5   22 1
    12    6    7 1
    13    6   23 1
    14    6   24 1
    15    7    8 1
    16    7   25 1
    17    7   26 1
    18    8    9 1
    19    8   27 1
    20    8   28 1
    21    9   10 1
    22    9   11 1
    23   11   12 3
    24   12   13 1
    25   13   29 1
    26   13   30 1
    27   13   39 1
    28   14   15 1
    29   14   31 1
    30   14   32 1
    31   14   39 1
    32   15   16 1
    33   15   33 1
    34   15   34 1
    35   16   17 1
    36   16   35 1
    37   16   36 1
    38   17   37 1
    39   17   38 1
    40   17   39 1
    41   39   40 1
@<TRIPOS>MOLECULE
ZINC05160067
   40    41     0     0     0
SMALL
USER_CHARGES
1-[2-(3-pyrrolidin-1-ylprop-1-ynyl)-1-piperidyl]ethanone
@<TRIPOS>ATOM
      1 C1         -4.6353    2.4818   -1.2400 C.3       1 <0>        -0.1852
      2 C2         -4.0129    2.0178    0.0517 C.2       1 <0>         0.5251
      3 O1         -4.5822    2.2149    1.1043 O.2       1 <0>        -0.5553
      4 N1         -2.8236    1.3839    0.0372 N.am      1 <0>        -0.6089
      5 C3         -2.1802    1.0285   -1.2350 C.3       1 <0>         0.0978
      6 C4         -0.7561    1.5929   -1.2419 C.3       1 <0>        -0.1410
      7 C5         -0.0098    1.0987   -0.0005 C.3       1 <0>        -0.1231
      8 C6         -0.7222    1.5998    1.2579 C.3       1 <0>        -0.1268
      9 C7         -2.1457    1.0355    1.2932 C.3       1 <0>         0.2445
     10 H1         -2.1065   -0.0487    1.3988 H         1 <0>         0.1072
     11 C8         -2.8815    1.6156    2.4285 C.1       1 <0>        -0.0380
     12 C9         -3.4684    2.0782    3.3340 C.1       1 <0>        -0.2555
     13 C10        -4.2042    2.6583    4.4692 C.3       1 <0>         0.1520
     14 C11        -2.0858    2.6746    5.6694 C.3       1 <0>         0.0005
     15 C12        -1.6801    2.7397    7.1632 C.3       1 <0>        -0.1474
     16 C13        -2.9315    3.3501    7.8351 C.3       1 <0>        -0.1456
     17 C14        -4.0902    3.0644    6.8619 C.3       1 <0>        -0.0105
     18 H2         -4.0304    2.1377   -2.0789 H         1 <0>         0.0882
     19 H3         -5.6419    2.0726   -1.3259 H         1 <0>         0.0988
     20 H4         -4.6837    3.5707   -1.2495 H         1 <0>         0.0999
     21 H5         -2.7465    1.4556   -2.0627 H         1 <0>         0.1025
     22 H6         -2.1440   -0.0560   -1.3382 H         1 <0>         0.0809
     23 H7         -0.7964    2.6821   -1.2326 H         1 <0>         0.0716
     24 H8         -0.2353    1.2553   -2.1379 H         1 <0>         0.0875
     25 H9          0.0086    0.0089    0.0022 H         1 <0>         0.0724
     26 H10         1.0115    1.4791   -0.0154 H         1 <0>         0.0796
     27 H11        -0.1773    1.2671    2.1413 H         1 <0>         0.0856
     28 H12        -0.7628    2.6890    1.2436 H         1 <0>         0.0747
     29 H13        -4.2379    3.7427    4.3644 H         1 <0>         0.1381
     30 H14        -5.2199    2.2629    4.4840 H         1 <0>         0.1433
     31 H15        -1.5130    1.9076    5.1482 H         1 <0>         0.1332
     32 H16        -1.9538    3.6457    5.1922 H         1 <0>         0.1288
     33 H17        -0.8142    3.3876    7.2999 H         1 <0>         0.1139
     34 H18        -1.4814    1.7413    7.5528 H         1 <0>         0.0965
     35 H19        -2.8041    4.4246    7.9666 H         1 <0>         0.1029
     36 H20        -3.1172    2.8700    8.7959 H         1 <0>         0.1042
     37 H21        -4.5183    4.0025    6.5086 H         1 <0>         0.1316
     38 H22        -4.8550    2.4684    7.3599 H         1 <0>         0.1336
     39 N2         -3.5103    2.3145    5.7468 N.4       1 <0>        -0.3937
     40 H23        -3.6045    1.3069    5.9204 H         1 <0>         0.4358
@<TRIPOS>BOND
     1    1    2 1
     2    1   18 1
     3    1   19 1
     4    1   20 1
     5    2    3 2
     6    2    4 am
     7    4    9 1
     8    4    5 1
     9    5    6 1
    10    5   21 1
    11    5   22 1
    12    6    7 1
    13    6   23 1
    14    6   24 1
    15    7    8 1
    16    7   25 1
    17    7   26 1
    18    8    9 1
    19    8   27 1
    20    8   28 1
    21    9   10 1
    22    9   11 1
    23   11   12 3
    24   12   13 1
    25   13   29 1
    26   13   30 1
    27   13   39 1
    28   14   15 1
    29   14   31 1
    30   14   32 1
    31   14   39 1
    32   15   16 1
    33   15   33 1
    34   15   34 1
    35   16   17 1
    36   16   35 1
    37   16   36 1
    38   17   37 1
    39   17   38 1
    40   17   39 1
    41   39   40 1
@<TRIPOS>MOLECULE
ZINC01530613
   58    59     0     0     0
SMALL
USER_CHARGES

@<TRIPOS>ATOM
      1 C1          0.1106    1.0426   -2.4306 C.3       1 <0>        -0.1879
      2 C2          0.1015   -0.4827   -2.5492 C.3       1 <0>        -0.0193
      3 N1          0.9690   -1.0596   -1.5136 N.4       1 <0>        -0.3890
      4 C3          0.4078   -0.7696   -0.1874 C.3       1 <0>        -0.0167
      5 C4          1.3816   -1.2438    0.8933 C.3       1 <0>        -0.1894
      6 C5          1.0553   -2.5140   -1.7015 C.3       1 <0>        -0.0071
      7 C6          1.7598   -2.8163   -3.0256 C.3       1 <0>         0.0189
      8 O1          3.1110   -2.3557   -2.9622 O.3       1 <0>        -0.3537
      9 C7          3.8432   -2.4589   -4.0825 C.2       1 <0>         0.4794
     10 O2          3.3281   -2.8367   -5.1082 O.2       1 <0>        -0.4725
     11 C8          5.3075   -2.1037   -4.0610 C.3       1 <0>        -0.0362
     12 C9          5.4707   -0.6376   -3.6550 C.3       1 <0>        -0.1161
     13 C10         4.8738   -0.4246   -2.2625 C.3       1 <0>        -0.1234
     14 C11         5.6004   -1.3169   -1.2542 C.3       1 <0>        -0.1202
     15 C12         5.4371   -2.7830   -1.6602 C.3       1 <0>        -0.1311
     16 C13         6.0341   -2.9960   -3.0527 C.3       1 <0>        -0.1160
     17 C14         5.9045   -2.3167   -5.4536 C.3       1 <0>        -0.0689
     18 C15         5.7413   -3.7828   -5.8596 C.3       1 <0>        -0.1291
     19 C16         6.3382   -3.9958   -7.2522 C.3       1 <0>        -0.1181
     20 C17         5.6117   -3.1034   -8.2605 C.3       1 <0>        -0.1200
     21 C18         5.7749   -1.6373   -7.8544 C.3       1 <0>        -0.1180
     22 C19         5.1779   -1.4243   -6.4619 C.3       1 <0>        -0.1282
     23 H1         -0.2565    1.3327   -1.4461 H         1 <0>         0.0823
     24 H2          1.1279    1.4112   -2.5621 H         1 <0>         0.0802
     25 H3         -0.5332    1.4707   -3.1990 H         1 <0>         0.1078
     26 H4         -0.9159   -0.8513   -2.4177 H         1 <0>         0.1329
     27 H5          0.4686   -0.7728   -3.5337 H         1 <0>         0.1281
     28 H6          0.2485    0.3040   -0.0871 H         1 <0>         0.1341
     29 H7         -0.5430   -1.2903   -0.0734 H         1 <0>         0.1310
     30 H8          2.3170   -0.6908    0.8074 H         1 <0>         0.0819
     31 H9          0.9456   -1.0697    1.8770 H         1 <0>         0.1075
     32 H10         1.5759   -2.3087    0.7653 H         1 <0>         0.0803
     33 H11         1.6213   -2.9535   -0.8802 H         1 <0>         0.1447
     34 H12         0.0514   -2.9383   -1.7189 H         1 <0>         0.1500
     35 H13         1.7504   -3.8914   -3.2050 H         1 <0>         0.1138
     36 H14         1.2403   -2.3079   -3.8379 H         1 <0>         0.0925
     37 H15         6.5299   -0.3806   -3.6395 H         1 <0>         0.0889
     38 H16         4.9531   -0.0018   -4.3733 H         1 <0>         0.0739
     39 H17         4.9901    0.6199   -1.9732 H         1 <0>         0.0695
     40 H18         3.8146   -0.6815   -2.2780 H         1 <0>         0.0584
     41 H19         6.6595   -1.0600   -1.2386 H         1 <0>         0.0690
     42 H20         5.1751   -1.1652   -0.2621 H         1 <0>         0.0622
     43 H21         5.9548   -3.4188   -0.9419 H         1 <0>         0.0693
     44 H22         4.3780   -3.0400   -1.6757 H         1 <0>         0.0763
     45 H23         5.9178   -4.0405   -3.3420 H         1 <0>         0.0749
     46 H24         7.0933   -2.7391   -3.0372 H         1 <0>         0.0867
     47 H25         6.9636   -2.0597   -5.4381 H         1 <0>         0.0877
     48 H26         6.2589   -4.4185   -5.1413 H         1 <0>         0.0602
     49 H27         4.6821   -4.0397   -5.8752 H         1 <0>         0.0819
     50 H28         7.3974   -3.7388   -7.2366 H         1 <0>         0.0614
     51 H29         6.2219   -5.0403   -7.5414 H         1 <0>         0.0629
     52 H30         6.0369   -3.2552   -9.2525 H         1 <0>         0.0622
     53 H31         4.5525   -3.3604   -8.2760 H         1 <0>         0.0617
     54 H32         6.8340   -1.3804   -7.8389 H         1 <0>         0.0613
     55 H33         5.2573   -1.0016   -8.5728 H         1 <0>         0.0622
     56 H34         4.1188   -1.6813   -6.4774 H         1 <0>         0.0822
     57 H35         5.2942   -0.3798   -6.1726 H         1 <0>         0.0584
     58 H36         1.8911   -0.6561   -1.5842 H         1 <0>         0.4246
@<TRIPOS>BOND
     1    1    2 1
     2    1   23 1
     3    1   24 1
     4    1   25 1
     5    2    3 1
     6    2   26 1
     7    2   27 1
     8    3    4 1
     9    3    6 1
    10    3   58 1
    11    4    5 1
    12    4   28 1
    13    4   29 1
    14    5   30 1
    15    5   31 1
    16    5   32 1
    17    6    7 1
    18    6   33 1
    19    6   34 1
    20    7    8 1
    21    7   35 1
    22    7   36 1
    23    8    9 1
    24    9   10 2
    25    9   11 1
    26   11   16 1
    27   11   12 1
    28   11   17 1
    29   12   13 1
    30   12   37 1
    31   12   38 1
    32   13   14 1
    33   13   39 1
    34   13   40 1
    35   14   15 1
    36   14   41 1
    37   14   42 1
    38   15   16 1
    39   15   43 1
    40   15   44 1
    41   16   45 1
    42   16   46 1
    43   17   22 1
    44   17   18 1
    45   17   47 1
    46   18   19 1
    47   18   48 1
    48   18   49 1
    49   19   20 1
    50   19   50 1
    51   19   51 1
    52   20   21 1
    53   20   52 1
    54   20   53 1
    55   21   22 1
    56   21   54 1
    57   21   55 1
    58   22   56 1
    59   22   57 1
@<TRIPOS>MOLECULE
ZINC11616188
   54    58     0     0     0
SMALL
USER_CHARGES
[(3R)-quinuclidin-3-yl] (1R)-1-phenyl-3,4-dihydro-1H-isoquinoline-2-carboxylate
@<TRIPOS>ATOM
      1 C1          6.0497    1.4844    2.8274 C.ar      1 <0>        -0.1142
      2 C2          6.2524    1.7300    1.4822 C.ar      1 <0>        -0.1136
      3 C3          5.4896    1.0708    0.5366 C.ar      1 <0>        -0.1050
      4 C4          4.5243    0.1654    0.9360 C.ar      1 <0>        -0.0583
      5 C5          4.3180   -0.0764    2.2813 C.ar      1 <0>        -0.0763
      6 C6          5.0838    0.5797    3.2269 C.ar      1 <0>        -0.1193
      7 C7          3.6927   -0.5534   -0.0949 C.3       1 <0>         0.2460
      8 H1          3.9318   -0.1677   -1.0860 H         1 <0>         0.0987
      9 C8          2.2299   -0.3259    0.1928 C.ar      1 <0>        -0.0967
     10 C9          1.8114    0.9765    0.4296 C.ar      1 <0>        -0.0982
     11 C10         0.4835    1.2498    0.6853 C.ar      1 <0>        -0.1144
     12 C11        -0.4370    0.2183    0.7055 C.ar      1 <0>        -0.1080
     13 C12        -0.0217   -1.0763    0.4745 C.ar      1 <0>        -0.1193
     14 C13         1.3161   -1.3552    0.2215 C.ar      1 <0>        -0.0744
     15 C14         1.7002   -2.7951    0.0046 C.3       1 <0>        -0.0958
     16 C15         3.0432   -2.8972   -0.7167 C.3       1 <0>         0.1103
     17 N1          3.9882   -1.9893   -0.0456 N.am      1 <0>        -0.5843
     18 C16         5.0806   -2.4588    0.5890 C.2       1 <0>         0.6458
     19 O1          5.8045   -1.6958    1.1975 O.2       1 <0>        -0.5314
     20 O2          5.3697   -3.7731    0.5486 O.3       1 <0>        -0.3586
     21 C17         6.5618   -4.2078    1.2546 C.3       1 <0>         0.1017
     22 H2          7.2998   -3.4056    1.2536 H         1 <0>         0.1241
     23 C18         6.1999   -4.5703    2.6978 C.3       1 <0>        -0.0188
     24 C19         7.9704   -6.2214    2.7855 C.3       1 <0>        -0.0045
     25 C20         8.3830   -5.9051    1.3452 C.3       1 <0>        -0.1339
     26 C21         7.1448   -5.4472    0.5642 C.3       1 <0>        -0.0975
     27 C22         6.0982   -6.5678    0.6055 C.3       1 <0>        -0.1347
     28 C23         5.7495   -6.8654    2.0665 C.3       1 <0>        -0.0015
     29 H3          6.6461    1.9989    3.5662 H         1 <0>         0.1186
     30 H4          7.0070    2.4368    1.1701 H         1 <0>         0.1208
     31 H5          5.6480    1.2627   -0.5144 H         1 <0>         0.1171
     32 H6          3.5609   -0.7804    2.5936 H         1 <0>         0.1038
     33 H7          4.9256    0.3875    4.2778 H         1 <0>         0.1146
     34 H8          2.5308    1.7819    0.4136 H         1 <0>         0.1255
     35 H9          0.1643    2.2651    0.8686 H         1 <0>         0.1284
     36 H10        -1.4793    0.4265    0.8971 H         1 <0>         0.1272
     37 H11        -0.7423   -1.8806    0.4907 H         1 <0>         0.1244
     38 H12         1.7729   -3.2960    0.9700 H         1 <0>         0.0773
     39 H13         0.9329   -3.2843   -0.5954 H         1 <0>         0.0935
     40 H14         2.9252   -2.6017   -1.7592 H         1 <0>         0.0852
     41 H15         3.4143   -3.9207   -0.6635 H         1 <0>         0.0974
     42 H16         6.7657   -3.9400    3.3839 H         1 <0>         0.1413
     43 H17         5.1329   -4.4131    2.8556 H         1 <0>         0.1346
     44 H18         8.5235   -5.5798    3.4714 H         1 <0>         0.1310
     45 H19         8.1910   -7.2658    3.0060 H         1 <0>         0.1332
     46 H20         8.7984   -6.7989    0.8796 H         1 <0>         0.1115
     47 H21         9.1302   -5.1115    1.3432 H         1 <0>         0.1051
     48 H22         7.4037   -5.2139   -0.4686 H         1 <0>         0.1253
     49 H23         6.5045   -7.4643    0.1371 H         1 <0>         0.1040
     50 H24         5.2011   -6.2521    0.0729 H         1 <0>         0.1062
     51 H25         5.9883   -7.9045    2.2931 H         1 <0>         0.1310
     52 H26         4.6856   -6.6929    2.2293 H         1 <0>         0.1277
     53 N2          6.5225   -5.9874    2.9708 N.4       1 <0>        -0.3889
     54 H27         6.2712   -6.2052    3.9422 H         1 <0>         0.4361
@<TRIPOS>BOND
     1    1    6 ar
     2    1    2 ar
     3    1   29 1
     4    2    3 ar
     5    2   30 1
     6    3    4 ar
     7    3   31 1
     8    4    5 ar
     9    4    7 1
    10    5    6 ar
    11    5   32 1
    12    6   33 1
    13    7    8 1
    14    7   17 1
    15    7    9 1
    16    9   14 ar
    17    9   10 ar
    18   10   11 ar
    19   10   34 1
    20   11   12 ar
    21   11   35 1
    22   12   13 ar
    23   12   36 1
    24   13   14 ar
    25   13   37 1
    26   14   15 1
    27   15   16 1
    28   15   38 1
    29   15   39 1
    30   16   17 1
    31   16   40 1
    32   16   41 1
    33   17   18 am
    34   18   19 2
    35   18   20 1
    36   20   21 1
    37   21   22 1
    38   21   26 1
    39   21   23 1
    40   23   42 1
    41   23   43 1
    42   23   53 1
    43   24   25 1
    44   24   44 1
    45   24   45 1
    46   24   53 1
    47   25   26 1
    48   25   46 1
    49   25   47 1
    50   26   27 1
    51   26   48 1
    52   27   28 1
    53   27   49 1
    54   27   50 1
    55   28   51 1
    56   28   52 1
    57   28   53 1
    58   53   54 1
@<TRIPOS>MOLECULE
ZINC00968360
   49    52     0     0     0
SMALL
USER_CHARGES

@<TRIPOS>ATOM
      1 C1          3.3904   -1.0686    1.3596 C.3       1 <0>        -0.0414
      2 N1          2.2270   -1.8016    0.8426 N.4       1 <0>        -0.3966
      3 C2          1.0087   -0.9500    0.8889 C.3       1 <0>         0.0345
      4 H1          1.1973    0.0598    0.5245 H         1 <0>         0.1466
      5 C3          0.5905   -0.9658    2.3773 C.3       1 <0>        -0.1338
      6 C4          1.1707   -2.2813    2.9369 C.3       1 <0>        -0.1396
      7 C5          1.8867   -2.9409    1.7358 C.3       1 <0>         0.0374
      8 H2          2.7689   -3.5040    2.0404 H         1 <0>         0.1457
      9 C6          0.8579   -3.8095    0.9944 C.3       1 <0>        -0.1626
     10 C7         -0.4211   -2.9937    0.7855 C.3       1 <0>         0.0760
     11 C8         -0.0791   -1.6663    0.0728 C.3       1 <0>        -0.1379
     12 O1         -1.0224   -2.7199    2.0525 O.3       1 <0>        -0.3507
     13 C9         -2.0131   -3.6726    2.4437 C.3       1 <0>         0.1708
     14 C10        -2.1179   -3.6999    3.9468 C.ar      1 <0>        -0.0904
     15 C11        -2.0585   -2.5205    4.6654 C.ar      1 <0>        -0.0943
     16 C12        -2.1546   -2.5456    6.0442 C.ar      1 <0>        -0.1204
     17 C13        -2.3105   -3.7501    6.7043 C.ar      1 <0>        -0.1092
     18 C14        -2.3708   -4.9294    5.9857 C.ar      1 <0>        -0.1151
     19 C15        -2.2790   -4.9039    4.6066 C.ar      1 <0>        -0.1074
     20 C16        -3.3444   -3.2836    1.8544 C.ar      1 <0>        -0.1188
     21 C17        -3.6951   -1.9499    1.7593 C.ar      1 <0>        -0.0957
     22 C18        -4.9163   -1.5931    1.2187 C.ar      1 <0>        -0.1207
     23 C19        -5.7867   -2.5701    0.7728 C.ar      1 <0>        -0.1099
     24 C20        -5.4356   -3.9038    0.8670 C.ar      1 <0>        -0.1159
     25 C21        -4.2126   -4.2604    1.4036 C.ar      1 <0>        -0.1088
     26 H3          4.2470   -1.7403    1.4169 H         1 <0>         0.1198
     27 H4          3.6232   -0.2391    0.6920 H         1 <0>         0.1202
     28 H5          3.1643   -0.6826    2.3536 H         1 <0>         0.1206
     29 H6          1.0175   -0.1101    2.9003 H         1 <0>         0.0864
     30 H7         -0.4958   -0.9622    2.4661 H         1 <0>         0.1317
     31 H8          1.8830   -2.0725    3.7351 H         1 <0>         0.0829
     32 H9          0.3696   -2.9246    3.3009 H         1 <0>         0.1348
     33 H10         1.2621   -4.1087    0.0273 H         1 <0>         0.0958
     34 H11         0.6329   -4.6956    1.5879 H         1 <0>         0.1134
     35 H12        -1.1176   -3.5627    0.1698 H         1 <0>         0.0934
     36 H13        -0.9701   -1.0404    0.0234 H         1 <0>         0.1187
     37 H14         0.2889   -1.8607   -0.9346 H         1 <0>         0.0996
     38 H15        -1.7300   -4.6608    2.0812 H         1 <0>         0.0802
     39 H16        -1.9366   -1.5795    4.1496 H         1 <0>         0.1222
     40 H17        -2.1075   -1.6242    6.6056 H         1 <0>         0.1245
     41 H18        -2.3849   -3.7697    7.7816 H         1 <0>         0.1256
     42 H19        -2.4923   -5.8705    6.5015 H         1 <0>         0.1269
     43 H20        -2.3299   -5.8249    4.0449 H         1 <0>         0.1218
     44 H21        -3.0151   -1.1866    2.1077 H         1 <0>         0.1218
     45 H22        -5.1906   -0.5511    1.1451 H         1 <0>         0.1241
     46 H23        -6.7411   -2.2914    0.3510 H         1 <0>         0.1253
     47 H24        -6.1158   -4.6671    0.5189 H         1 <0>         0.1260
     48 H25        -3.9368   -5.3022    1.4738 H         1 <0>         0.1208
     49 H26         2.4007   -2.1262   -0.0968 H         1 <0>         0.4215
@<TRIPOS>BOND
     1    1    2 1
     2    1   26 1
     3    1   27 1
     4    1   28 1
     5    2    7 1
     6    2    3 1
     7    2   49 1
     8    3    4 1
     9    3   11 1
    10    3    5 1
    11    5    6 1
    12    5   29 1
    13    5   30 1
    14    6    7 1
    15    6   31 1
    16    6   32 1
    17    7    8 1
    18    7    9 1
    19    9   10 1
    20    9   33 1
    21    9   34 1
    22   10   11 1
    23   10   12 1
    24   10   35 1
    25   11   36 1
    26   11   37 1
    27   12   13 1
    28   13   14 1
    29   13   20 1
    30   13   38 1
    31   14   19 ar
    32   14   15 ar
    33   15   16 ar
    34   15   39 1
    35   16   17 ar
    36   16   40 1
    37   17   18 ar
    38   17   41 1
    39   18   19 ar
    40   18   42 1
    41   19   43 1
    42   20   25 ar
    43   20   21 ar
    44   21   22 ar
    45   21   44 1
    46   22   23 ar
    47   22   45 1
    48   23   24 ar
    49   23   46 1
    50   24   25 ar
    51   24   47 1
    52   25   48 1
@<TRIPOS>MOLECULE
ZINC01530751
   58    59     0     0     0
SMALL
USER_CHARGES

@<TRIPOS>ATOM
      1 C1          0.2991    1.0752   -0.2917 C.3       1 <0>        -0.1878
      2 C2          0.2487   -0.4286   -0.0143 C.3       1 <0>        -0.0180
      3 N1          0.7545   -0.6942    1.3391 N.4       1 <0>        -0.3873
      4 C3         -0.1471   -0.0863    2.3268 C.3       1 <0>        -0.0176
      5 C4         -1.5739   -0.5857    2.0902 C.3       1 <0>        -0.1896
      6 C5          0.8186   -2.1448    1.5620 C.3       1 <0>         0.1283
      7 C6          1.4440   -2.4134    2.8672 C.1       1 <0>        -0.2437
      8 C7          1.9427   -2.6277    3.9081 C.1       1 <0>        -0.0537
      9 C8          2.5681   -2.8964    5.2133 C.3       1 <0>         0.1556
     10 O1          2.6305   -4.3075    5.4302 O.3       1 <0>        -0.3355
     11 C9          3.1776   -4.7232    6.5833 C.2       1 <0>         0.4488
     12 O2          3.5898   -3.9158    7.3820 O.2       1 <0>        -0.4789
     13 C10         3.2776   -6.1970    6.8816 C.3       1 <0>         0.2093
     14 C11         4.5302   -6.7526    6.2545 C.ar      1 <0>        -0.0984
     15 C12         5.7129   -6.7686    6.9701 C.ar      1 <0>        -0.0971
     16 C13         6.8619   -7.2782    6.3949 C.ar      1 <0>        -0.1209
     17 C14         6.8282   -7.7722    5.1043 C.ar      1 <0>        -0.1021
     18 C15         5.6454   -7.7571    4.3890 C.ar      1 <0>        -0.1258
     19 C16         4.4953   -7.2514    4.9658 C.ar      1 <0>        -0.0793
     20 C17         3.3284   -6.4085    8.3961 C.3       1 <0>        -0.1010
     21 C18         3.4299   -7.9047    8.6989 C.3       1 <0>        -0.1097
     22 C19         3.4807   -8.1162   10.2134 C.3       1 <0>        -0.1205
     23 C20         2.2089   -7.5522   10.8501 C.3       1 <0>        -0.1228
     24 C21         2.1074   -6.0559   10.5472 C.3       1 <0>        -0.1149
     25 C22         2.0566   -5.8444    9.0327 C.3       1 <0>        -0.1247
     26 O3          2.1371   -6.8701    6.3446 O.3       1 <0>        -0.5261
     27 H1          1.3286    1.4247   -0.2135 H         1 <0>         0.0810
     28 H2         -0.0762    1.2722   -1.2959 H         1 <0>         0.1084
     29 H3         -0.3191    1.5999    0.4367 H         1 <0>         0.0808
     30 H4         -0.7808   -0.7782   -0.0925 H         1 <0>         0.1359
     31 H5          0.8669   -0.9534   -0.7427 H         1 <0>         0.1340
     32 H6          0.1734   -0.3644    3.3308 H         1 <0>         0.1267
     33 H7         -0.1201    0.9985    2.2242 H         1 <0>         0.1343
     34 H8         -1.5833   -1.6756    2.0977 H         1 <0>         0.0801
     35 H9         -2.2254   -0.2113    2.8798 H         1 <0>         0.1065
     36 H10        -1.9293   -0.2258    1.1247 H         1 <0>         0.0853
     37 H11        -0.1895   -2.5591    1.5500 H         1 <0>         0.1522
     38 H12         1.4112   -2.6078    0.7730 H         1 <0>         0.1531
     39 H13         3.5762   -2.4820    5.2254 H         1 <0>         0.1078
     40 H14         1.9755   -2.4334    6.0023 H         1 <0>         0.1076
     41 H15         5.7392   -6.3826    7.9784 H         1 <0>         0.1298
     42 H16         7.7860   -7.2900    6.9537 H         1 <0>         0.1301
     43 H17         7.7261   -8.1698    4.6546 H         1 <0>         0.1278
     44 H18         5.6191   -8.1428    3.3806 H         1 <0>         0.1272
     45 H19         3.5704   -7.2430    4.4083 H         1 <0>         0.1315
     46 H20         4.1982   -5.8950    8.8056 H         1 <0>         0.0970
     47 H21         2.5600   -8.4182    8.2894 H         1 <0>         0.0730
     48 H22         4.3359   -8.3066    8.2454 H         1 <0>         0.0711
     49 H23         3.5530   -9.1822   10.4292 H         1 <0>         0.0680
     50 H24         4.3506   -7.6028   10.6230 H         1 <0>         0.0632
     51 H25         1.3390   -8.0656   10.4405 H         1 <0>         0.0633
     52 H26         2.2451   -7.7028   11.9290 H         1 <0>         0.0655
     53 H27         1.2014   -5.6540   11.0007 H         1 <0>         0.0657
     54 H28         2.9773   -5.5424   10.9568 H         1 <0>         0.0657
     55 H29         1.9843   -4.7784    8.8169 H         1 <0>         0.0646
     56 H30         1.1867   -6.3579    8.6231 H         1 <0>         0.0644
     57 H31         1.2937   -6.5628    6.7041 H         1 <0>         0.3842
     58 H32         1.6771   -0.2977    1.4371 H         1 <0>         0.4275
@<TRIPOS>BOND
     1    1    2 1
     2    1   27 1
     3    1   28 1
     4    1   29 1
     5    2    3 1
     6    2   30 1
     7    2   31 1
     8    3    4 1
     9    3    6 1
    10    3   58 1
    11    4    5 1
    12    4   32 1
    13    4   33 1
    14    5   34 1
    15    5   35 1
    16    5   36 1
    17    6    7 1
    18    6   37 1
    19    6   38 1
    20    7    8 3
    21    8    9 1
    22    9   10 1
    23    9   39 1
    24    9   40 1
    25   10   11 1
    26   11   12 2
    27   11   13 1
    28   13   14 1
    29   13   20 1
    30   13   26 1
    31   14   19 ar
    32   14   15 ar
    33   15   16 ar
    34   15   41 1
    35   16   17 ar
    36   16   42 1
    37   17   18 ar
    38   17   43 1
    39   18   19 ar
    40   18   44 1
    41   19   45 1
    42   20   25 1
    43   20   21 1
    44   20   46 1
    45   21   22 1
    46   21   47 1
    47   21   48 1
    48   22   23 1
    49   22   49 1
    50   22   50 1
    51   23   24 1
    52   23   51 1
    53   23   52 1
    54   24   25 1
    55   24   53 1
    56   24   54 1
    57   25   55 1
    58   25   56 1
    59   26   57 1
@<TRIPOS>MOLECULE
ZINC01530751
   57    58     0     0     0
SMALL
USER_CHARGES

@<TRIPOS>ATOM
      1 C1         -1.3393   -0.9465    0.0937 C.3       1 <0>        -0.1938
      2 C2         -0.0615   -0.1096    0.0057 C.3       1 <0>         0.0454
      3 N1          0.7423   -0.5619   -1.1377 N.3       1 <0>        -0.5361
      4 C3          1.0055   -2.0050   -1.0581 C.3       1 <0>         0.0450
      5 C4          1.8971   -2.2949    0.1510 C.3       1 <0>        -0.1498
      6 C5          0.0922   -0.2147   -2.4084 C.3       1 <0>         0.1567
      7 C6          0.2750    1.2211   -2.6767 C.1       1 <0>        -0.1196
      8 C7          0.4208    2.3662   -2.8907 C.1       1 <0>        -0.1918
      9 C8          0.6035    3.8019   -3.1591 C.3       1 <0>         0.1841
     10 O1         -0.0288    4.1398   -4.3952 O.3       1 <0>        -0.3348
     11 C9          0.0461    5.4212   -4.7878 C.2       1 <0>         0.4444
     12 O2          0.6293    6.2292   -4.1046 O.2       1 <0>        -0.4887
     13 C10        -0.5971    5.8519   -6.0808 C.3       1 <0>         0.2057
     14 C11        -2.0520    6.1618   -5.8393 C.ar      1 <0>        -0.0924
     15 C12        -2.4377    7.4438   -5.4950 C.ar      1 <0>        -0.0985
     16 C13        -3.7722    7.7281   -5.2735 C.ar      1 <0>        -0.1236
     17 C14        -4.7211    6.7304   -5.3966 C.ar      1 <0>        -0.1058
     18 C15        -4.3355    5.4486   -5.7417 C.ar      1 <0>        -0.1251
     19 C16        -3.0014    5.1653   -5.9675 C.ar      1 <0>        -0.0771
     20 C17         0.1094    7.1015   -6.6103 C.3       1 <0>        -0.0996
     21 C18        -0.5436    7.5388   -7.9230 C.3       1 <0>        -0.1098
     22 C19         0.1629    8.7884   -8.4526 C.3       1 <0>        -0.1192
     23 C20         1.6400    8.4738   -8.6978 C.3       1 <0>        -0.1218
     24 C21         2.2930    8.0364   -7.3851 C.3       1 <0>        -0.1141
     25 C22         1.5865    6.7869   -6.8555 C.3       1 <0>        -0.1261
     26 O3         -0.4873    4.7996   -7.0412 O.3       1 <0>        -0.5275
     27 H1         -1.8650   -0.9086   -0.8604 H         1 <0>         0.0562
     28 H2         -1.0816   -1.9799    0.3257 H         1 <0>         0.0612
     29 H3         -1.9818   -0.5474    0.8786 H         1 <0>         0.0646
     30 H4         -0.3232    0.9402   -0.1267 H         1 <0>         0.0755
     31 H5          0.5140   -0.2276    0.9238 H         1 <0>         0.0815
     32 H6          0.0625   -2.5410   -0.9510 H         1 <0>         0.0441
     33 H7          1.5087   -2.3332   -1.9676 H         1 <0>         0.0758
     34 H8          1.3939   -1.9667    1.0605 H         1 <0>         0.0556
     35 H9          2.0924   -3.3656    0.2100 H         1 <0>         0.0609
     36 H10         2.8401   -1.7589    0.0439 H         1 <0>         0.0634
     37 H11         0.5392   -0.7949   -3.2156 H         1 <0>         0.1002
     38 H12        -0.9724   -0.4399   -2.3454 H         1 <0>         0.0714
     39 H13         0.1566    4.3822   -2.3518 H         1 <0>         0.0936
     40 H14         1.6681    4.0271   -3.2221 H         1 <0>         0.0926
     41 H15        -1.6964    8.2233   -5.3988 H         1 <0>         0.1285
     42 H16        -4.0735    8.7296   -5.0039 H         1 <0>         0.1274
     43 H17        -5.7637    6.9523   -5.2228 H         1 <0>         0.1253
     44 H18        -5.0768    4.6690   -5.8376 H         1 <0>         0.1263
     45 H19        -2.7006    4.1647   -6.2407 H         1 <0>         0.1330
     46 H20         0.0256    7.9042   -5.8777 H         1 <0>         0.0957
     47 H21        -0.4599    6.7361   -8.6556 H         1 <0>         0.0723
     48 H22        -1.5959    7.7630   -7.7484 H         1 <0>         0.0703
     49 H23        -0.3024    9.1000   -9.3878 H         1 <0>         0.0653
     50 H24         0.0791    9.5911   -7.7200 H         1 <0>         0.0621
     51 H25         1.7237    7.6710   -9.4304 H         1 <0>         0.0626
     52 H26         2.1433    9.3640   -9.0751 H         1 <0>         0.0629
     53 H27         3.3453    7.8123   -7.5598 H         1 <0>         0.0646
     54 H28         2.2092    8.8391   -6.6525 H         1 <0>         0.0648
     55 H29         2.0517    6.4753   -5.9204 H         1 <0>         0.0680
     56 H30         1.6703    5.9842   -7.5882 H         1 <0>         0.0641
     57 H31         0.4235    4.5473   -7.2458 H         1 <0>         0.3843
@<TRIPOS>BOND
     1    1    2 1
     2    1   27 1
     3    1   28 1
     4    1   29 1
     5    2    3 1
     6    2   30 1
     7    2   31 1
     8    3    4 1
     9    3    6 1
    10    4    5 1
    11    4   32 1
    12    4   33 1
    13    5   34 1
    14    5   35 1
    15    5   36 1
    16    6    7 1
    17    6   37 1
    18    6   38 1
    19    7    8 3
    20    8    9 1
    21    9   10 1
    22    9   39 1
    23    9   40 1
    24   10   11 1
    25   11   12 2
    26   11   13 1
    27   13   14 1
    28   13   20 1
    29   13   26 1
    30   14   19 ar
    31   14   15 ar
    32   15   16 ar
    33   15   41 1
    34   16   17 ar
    35   16   42 1
    36   17   18 ar
    37   17   43 1
    38   18   19 ar
    39   18   44 1
    40   19   45 1
    41   20   25 1
    42   20   21 1
    43   20   46 1
    44   21   22 1
    45   21   47 1
    46   21   48 1
    47   22   23 1
    48   22   49 1
    49   22   50 1
    50   23   24 1
    51   23   51 1
    52   23   52 1
    53   24   25 1
    54   24   53 1
    55   24   54 1
    56   25   55 1
    57   25   56 1
    58   26   57 1
@<TRIPOS>MOLECULE
ZINC01530752
   58    59     0     0     0
SMALL
USER_CHARGES

@<TRIPOS>ATOM
      1 C1          0.2991    1.0752   -0.2917 C.3       1 <0>        -0.1878
      2 C2          0.2487   -0.4286   -0.0143 C.3       1 <0>        -0.0180
      3 N1          0.7545   -0.6942    1.3391 N.4       1 <0>        -0.3872
      4 C3         -0.1471   -0.0863    2.3268 C.3       1 <0>        -0.0177
      5 C4         -1.5739   -0.5857    2.0902 C.3       1 <0>        -0.1897
      6 C5          0.8186   -2.1448    1.5620 C.3       1 <0>         0.1283
      7 C6          1.4440   -2.4134    2.8672 C.1       1 <0>        -0.2437
      8 C7          1.9427   -2.6277    3.9081 C.1       1 <0>        -0.0537
      9 C8          2.5681   -2.8964    5.2133 C.3       1 <0>         0.1556
     10 O1          2.6305   -4.3075    5.4302 O.3       1 <0>        -0.3355
     11 C9          3.1776   -4.7232    6.5833 C.2       1 <0>         0.4488
     12 O2          3.5898   -3.9158    7.3820 O.2       1 <0>        -0.4789
     13 C10         3.2776   -6.1970    6.8816 C.3       1 <0>         0.2092
     14 C11         1.9845   -6.6752    7.4902 C.ar      1 <0>        -0.0978
     15 C12         1.8111   -6.6395    8.8612 C.ar      1 <0>        -0.0973
     16 C13         0.6250   -7.0782    9.4194 C.ar      1 <0>        -0.1208
     17 C14        -0.3878   -7.5520    8.6067 C.ar      1 <0>        -0.1023
     18 C15        -0.2147   -7.5869    7.2357 C.ar      1 <0>        -0.1256
     19 C16         0.9697   -7.1442    6.6771 C.ar      1 <0>        -0.0796
     20 C17         4.4248   -6.4418    7.8638 C.3       1 <0>        -0.1009
     21 C18         4.5263   -7.9381    8.1667 C.3       1 <0>        -0.1096
     22 C19         5.6736   -8.1829    9.1490 C.3       1 <0>        -0.1204
     23 C20         6.9864   -7.6974    8.5311 C.3       1 <0>        -0.1229
     24 C21         6.8848   -6.2011    8.2282 C.3       1 <0>        -0.1149
     25 C22         5.7376   -5.9563    7.2459 C.3       1 <0>        -0.1248
     26 O3          3.5270   -6.9124    5.6700 O.3       1 <0>        -0.5262
     27 H1          1.3286    1.4247   -0.2135 H         1 <0>         0.0810
     28 H2         -0.0762    1.2722   -1.2959 H         1 <0>         0.1083
     29 H3         -0.3191    1.5999    0.4367 H         1 <0>         0.0808
     30 H4         -0.7808   -0.7782   -0.0925 H         1 <0>         0.1359
     31 H5          0.8669   -0.9534   -0.7427 H         1 <0>         0.1340
     32 H6          0.1734   -0.3644    3.3308 H         1 <0>         0.1267
     33 H7         -0.1201    0.9985    2.2242 H         1 <0>         0.1344
     34 H8         -1.5833   -1.6756    2.0977 H         1 <0>         0.0801
     35 H9         -2.2254   -0.2113    2.8798 H         1 <0>         0.1066
     36 H10        -1.9293   -0.2258    1.1247 H         1 <0>         0.0853
     37 H11        -0.1895   -2.5591    1.5500 H         1 <0>         0.1521
     38 H12         1.4112   -2.6078    0.7730 H         1 <0>         0.1532
     39 H13         3.5762   -2.4820    5.2254 H         1 <0>         0.1081
     40 H14         1.9755   -2.4334    6.0023 H         1 <0>         0.1074
     41 H15         2.6024   -6.2693    9.4961 H         1 <0>         0.1297
     42 H16         0.4898   -7.0510   10.4906 H         1 <0>         0.1300
     43 H17        -1.3142   -7.8954    9.0429 H         1 <0>         0.1277
     44 H18        -1.0059   -7.9574    6.6007 H         1 <0>         0.1271
     45 H19         1.1036   -7.1679    5.6057 H         1 <0>         0.1315
     46 H20         4.2345   -5.8961    8.7880 H         1 <0>         0.0969
     47 H21         3.5911   -8.2840    8.6069 H         1 <0>         0.0710
     48 H22         4.7166   -8.4838    7.2425 H         1 <0>         0.0730
     49 H23         5.4833   -7.6372   10.0731 H         1 <0>         0.0631
     50 H24         5.7459   -9.2489    9.3647 H         1 <0>         0.0680
     51 H25         7.8037   -7.8718    9.2308 H         1 <0>         0.0655
     52 H26         7.1766   -8.2431    7.6069 H         1 <0>         0.0633
     53 H27         6.6946   -5.6554    9.1524 H         1 <0>         0.0657
     54 H28         7.8201   -5.8552    7.7880 H         1 <0>         0.0658
     55 H29         5.9279   -6.5020    6.3218 H         1 <0>         0.0644
     56 H30         5.6653   -4.8903    7.0302 H         1 <0>         0.0647
     57 H31         4.3451   -6.6556    5.2229 H         1 <0>         0.3845
     58 H32         1.6771   -0.2977    1.4371 H         1 <0>         0.4274
@<TRIPOS>BOND
     1    1    2 1
     2    1   27 1
     3    1   28 1
     4    1   29 1
     5    2    3 1
     6    2   30 1
     7    2   31 1
     8    3    4 1
     9    3    6 1
    10    3   58 1
    11    4    5 1
    12    4   32 1
    13    4   33 1
    14    5   34 1
    15    5   35 1
    16    5   36 1
    17    6    7 1
    18    6   37 1
    19    6   38 1
    20    7    8 3
    21    8    9 1
    22    9   10 1
    23    9   39 1
    24    9   40 1
    25   10   11 1
    26   11   12 2
    27   11   13 1
    28   13   14 1
    29   13   20 1
    30   13   26 1
    31   14   19 ar
    32   14   15 ar
    33   15   16 ar
    34   15   41 1
    35   16   17 ar
    36   16   42 1
    37   17   18 ar
    38   17   43 1
    39   18   19 ar
    40   18   44 1
    41   19   45 1
    42   20   25 1
    43   20   21 1
    44   20   46 1
    45   21   22 1
    46   21   47 1
    47   21   48 1
    48   22   23 1
    49   22   49 1
    50   22   50 1
    51   23   24 1
    52   23   51 1
    53   23   52 1
    54   24   25 1
    55   24   53 1
    56   24   54 1
    57   25   55 1
    58   25   56 1
    59   26   57 1
@<TRIPOS>MOLECULE
ZINC01530752
   57    58     0     0     0
SMALL
USER_CHARGES

@<TRIPOS>ATOM
      1 C1         -1.3393   -0.9465    0.0937 C.3       1 <0>        -0.1940
      2 C2         -0.0615   -0.1096    0.0057 C.3       1 <0>         0.0454
      3 N1          0.7423   -0.5619   -1.1377 N.3       1 <0>        -0.5360
      4 C3          1.0055   -2.0050   -1.0581 C.3       1 <0>         0.0448
      5 C4          1.8971   -2.2949    0.1510 C.3       1 <0>        -0.1497
      6 C5          0.0922   -0.2147   -2.4084 C.3       1 <0>         0.1566
      7 C6          0.2750    1.2211   -2.6767 C.1       1 <0>        -0.1195
      8 C7          0.4208    2.3662   -2.8907 C.1       1 <0>        -0.1918
      9 C8          0.6035    3.8019   -3.1591 C.3       1 <0>         0.1841
     10 O1         -0.0288    4.1398   -4.3952 O.3       1 <0>        -0.3348
     11 C9          0.0461    5.4212   -4.7878 C.2       1 <0>         0.4444
     12 O2          0.6293    6.2292   -4.1046 O.2       1 <0>        -0.4887
     13 C10        -0.5971    5.8519   -6.0808 C.3       1 <0>         0.2057
     14 C11         0.3520    5.5971   -7.2233 C.ar      1 <0>        -0.0920
     15 C12         1.2505    6.5752   -7.6067 C.ar      1 <0>        -0.0986
     16 C13         2.1211    6.3415   -8.6547 C.ar      1 <0>        -0.1235
     17 C14         2.0935    5.1295   -9.3191 C.ar      1 <0>        -0.1061
     18 C15         1.1956    4.1511   -8.9351 C.ar      1 <0>        -0.1253
     19 C16         0.3279    4.3833   -7.8843 C.ar      1 <0>        -0.0776
     20 C17        -0.9260    7.3447   -6.0142 C.3       1 <0>        -0.0995
     21 C18        -1.5790    7.7820   -7.3269 C.3       1 <0>        -0.1096
     22 C19        -1.9079    9.2748   -7.2604 C.3       1 <0>        -0.1192
     23 C20        -2.8715    9.5335   -6.1004 C.3       1 <0>        -0.1218
     24 C21        -2.2185    9.0961   -4.7877 C.3       1 <0>        -0.1141
     25 C22        -1.8896    7.6034   -4.8543 C.3       1 <0>        -0.1262
     26 O3         -1.7997    5.1079   -6.2856 O.3       1 <0>        -0.5275
     27 H1         -1.8650   -0.9086   -0.8604 H         1 <0>         0.0562
     28 H2         -1.0816   -1.9799    0.3257 H         1 <0>         0.0612
     29 H3         -1.9818   -0.5474    0.8786 H         1 <0>         0.0647
     30 H4         -0.3232    0.9402   -0.1267 H         1 <0>         0.0756
     31 H5          0.5140   -0.2276    0.9238 H         1 <0>         0.0815
     32 H6          0.0625   -2.5410   -0.9510 H         1 <0>         0.0441
     33 H7          1.5087   -2.3332   -1.9676 H         1 <0>         0.0758
     34 H8          1.3939   -1.9667    1.0605 H         1 <0>         0.0557
     35 H9          2.0924   -3.3656    0.2100 H         1 <0>         0.0609
     36 H10         2.8401   -1.7589    0.0439 H         1 <0>         0.0634
     37 H11         0.5392   -0.7949   -3.2156 H         1 <0>         0.1003
     38 H12        -0.9724   -0.4399   -2.3454 H         1 <0>         0.0714
     39 H13         0.1566    4.3822   -2.3518 H         1 <0>         0.0939
     40 H14         1.6681    4.0271   -3.2221 H         1 <0>         0.0922
     41 H15         1.2721    7.5220   -7.0877 H         1 <0>         0.1286
     42 H16         2.8226    7.1058   -8.9547 H         1 <0>         0.1274
     43 H17         2.7732    4.9472  -10.1383 H         1 <0>         0.1253
     44 H18         1.1737    3.2044   -9.4543 H         1 <0>         0.1263
     45 H19        -0.3711    3.6175   -7.5819 H         1 <0>         0.1332
     46 H20        -0.0086    7.9123   -5.8580 H         1 <0>         0.0956
     47 H21        -0.8926    7.5977   -8.1533 H         1 <0>         0.0701
     48 H22        -2.4964    7.2145   -7.4831 H         1 <0>         0.0723
     49 H23        -0.9906    9.8424   -7.1042 H         1 <0>         0.0621
     50 H24        -2.3732    9.5864   -8.1956 H         1 <0>         0.0653
     51 H25        -3.1058   10.5969   -6.0530 H         1 <0>         0.0629
     52 H26        -3.7889    8.9659   -6.2566 H         1 <0>         0.0627
     53 H27        -1.3011    9.6637   -4.6315 H         1 <0>         0.0647
     54 H28        -2.9049    9.2804   -3.9613 H         1 <0>         0.0647
     55 H29        -2.8069    7.0358   -5.0105 H         1 <0>         0.0642
     56 H30        -1.4243    7.2918   -3.9191 H         1 <0>         0.0681
     57 H31        -2.4580    5.2241   -5.5868 H         1 <0>         0.3845
@<TRIPOS>BOND
     1    1    2 1
     2    1   27 1
     3    1   28 1
     4    1   29 1
     5    2    3 1
     6    2   30 1
     7    2   31 1
     8    3    4 1
     9    3    6 1
    10    4    5 1
    11    4   32 1
    12    4   33 1
    13    5   34 1
    14    5   35 1
    15    5   36 1
    16    6    7 1
    17    6   37 1
    18    6   38 1
    19    7    8 3
    20    8    9 1
    21    9   10 1
    22    9   39 1
    23    9   40 1
    24   10   11 1
    25   11   12 2
    26   11   13 1
    27   13   14 1
    28   13   20 1
    29   13   26 1
    30   14   19 ar
    31   14   15 ar
    32   15   16 ar
    33   15   41 1
    34   16   17 ar
    35   16   42 1
    36   17   18 ar
    37   17   43 1
    38   18   19 ar
    39   18   44 1
    40   19   45 1
    41   20   25 1
    42   20   21 1
    43   20   46 1
    44   21   22 1
    45   21   47 1
    46   21   48 1
    47   22   23 1
    48   22   49 1
    49   22   50 1
    50   23   24 1
    51   23   51 1
    52   23   52 1
    53   24   25 1
    54   24   53 1
    55   24   54 1
    56   25   55 1
    57   25   56 1
    58   26   57 1
@<TRIPOS>MOLECULE
ZINC02516022
   32    32     0     0     0
SMALL
USER_CHARGES

@<TRIPOS>ATOM
      1 C1          0.3388    1.5532   -0.3086 C.3       1 <0>        -0.1547
      2 C2          0.2600    0.0293   -0.1965 C.3       1 <0>         0.0410
      3 H1         -0.7802   -0.2950   -0.1665 H         1 <0>         0.0876
      4 C3          0.9967   -0.6357   -1.3804 C.3       1 <0>         0.0764
      5 H2          1.7493    0.0385   -1.7892 H         1 <0>         0.0826
      6 C4          1.6669   -1.8794   -0.7546 C.3       1 <0>        -0.1422
      7 C5          1.2558   -1.8186    0.7333 C.3       1 <0>         0.0485
      8 H3          0.3688   -2.4278    0.9070 H         1 <0>         0.0956
      9 O1          0.9626   -0.4252    0.9806 O.3       1 <0>        -0.3661
     10 C6          2.4072   -2.2900    1.6237 C.3       1 <0>        -0.0004
     11 N1          1.9433   -2.3862    3.0141 N.4       1 <0>        -0.2703
     12 C7          0.8951   -3.4108    3.1108 C.3       1 <0>        -0.0519
     13 C8          3.0698   -2.7548    3.8819 C.3       1 <0>        -0.0450
     14 C9          1.4009   -1.0892    3.4403 C.3       1 <0>        -0.0444
     15 O2          0.0676   -1.0216   -2.3952 O.3       1 <0>        -0.5551
     16 H4          1.3838    1.8628   -0.3250 H         1 <0>         0.0696
     17 H5         -0.1501    1.8756   -1.2279 H         1 <0>         0.0797
     18 H6         -0.1612    2.0067    0.5472 H         1 <0>         0.0718
     19 H7          1.2892   -2.7907   -1.2183 H         1 <0>         0.1053
     20 H8          2.7507   -1.8200   -0.8541 H         1 <0>         0.0963
     21 H9          2.7503   -3.2681    1.2866 H         1 <0>         0.1420
     22 H10         3.2288   -1.5762    1.5634 H         1 <0>         0.1379
     23 H11         1.2975   -4.3732    2.7946 H         1 <0>         0.1227
     24 H12         0.5508   -3.4823    4.1425 H         1 <0>         0.1247
     25 H13         0.0592   -3.1373    2.4669 H         1 <0>         0.1205
     26 H14         3.8476   -1.9945    3.8102 H         1 <0>         0.1217
     27 H15         2.7256   -2.8262    4.9136 H         1 <0>         0.1236
     28 H16         3.4723   -3.7172    3.5657 H         1 <0>         0.1213
     29 H17         0.4767   -0.8864    2.8992 H         1 <0>         0.1324
     30 H18         1.1972   -1.1146    4.5107 H         1 <0>         0.1162
     31 H19         2.1265   -0.3042    3.2270 H         1 <0>         0.1220
     32 H20        -0.4239   -0.2829   -2.7799 H         1 <0>         0.3910
@<TRIPOS>BOND
     1    1    2 1
     2    1   16 1
     3    1   17 1
     4    1   18 1
     5    2    3 1
     6    2    9 1
     7    2    4 1
     8    4    5 1
     9    4    6 1
    10    4   15 1
    11    6    7 1
    12    6   19 1
    13    6   20 1
    14    7    8 1
    15    7    9 1
    16    7   10 1
    17   10   11 1
    18   10   21 1
    19   10   22 1
    20   11   12 1
    21   11   13 1
    22   11   14 1
    23   12   23 1
    24   12   24 1
    25   12   25 1
    26   13   26 1
    27   13   27 1
    28   13   28 1
    29   14   29 1
    30   14   30 1
    31   14   31 1
    32   15   32 1
@<TRIPOS>MOLECULE
ZINC13603574
   46    48     0     0     0
SMALL
USER_CHARGES
[(3R)-quinuclidin-3-yl] (E,2R)-2-hydroxy-5-iodo-2-phenyl-pent-4-enoate
@<TRIPOS>ATOM
      1 C1         -5.1893    6.3355    1.0245 C.ar      1 <0>        -0.1001
      2 C2         -5.4435    4.9883    1.2013 C.ar      1 <0>        -0.1127
      3 C3         -4.4329    4.1434    1.6203 C.ar      1 <0>        -0.1019
      4 C4         -3.1680    4.6457    1.8626 C.ar      1 <0>        -0.1254
      5 C5         -2.9151    5.9938    1.6909 C.ar      1 <0>        -0.0921
      6 C6         -3.9243    6.8378    1.2664 C.ar      1 <0>        -0.1136
      7 C7         -2.0663    3.7247    2.3198 C.3       1 <0>         0.2118
      8 C8         -1.0818    4.5024    3.1955 C.3       1 <0>        -0.0873
      9 C9          0.0831    3.6152    3.5516 C.2       1 <0>        -0.0763
     10 C10         1.3070    4.0024    3.2861 C.2       1 <0>        -0.1862
     11 I1          2.9264    2.7689    3.7812 I         1 <0>        -0.0688
     12 C11        -1.3425    3.1724    1.1189 C.2       1 <0>         0.4377
     13 O1         -1.3460    3.7844    0.0772 O.2       1 <0>        -0.4709
     14 O2         -0.6938    2.0005    1.2066 O.3       1 <0>        -0.3276
     15 C12        -0.0187    1.5296    0.0105 C.3       1 <0>         0.0746
     16 H1         -0.5425    1.8927   -0.8738 H         1 <0>         0.1226
     17 C13         1.4239    2.0435   -0.0006 C.3       1 <0>        -0.0230
     18 C14         2.1675    0.0927   -1.2294 C.3       1 <0>        -0.0053
     19 C15         0.7461   -0.4763   -1.2535 C.3       1 <0>        -0.1347
     20 C16         0.0021   -0.0041    0.0020 C.3       1 <0>        -0.0950
     21 C17         0.7703   -0.4897    1.2377 C.3       1 <0>        -0.1331
     22 C18         2.1911    0.0794    1.1921 C.3       1 <0>        -0.0116
     23 O3         -2.6275    2.6486    3.0742 O.3       1 <0>        -0.5231
     24 H2         -5.9789    6.9956    0.6972 H         1 <0>         0.1308
     25 H3         -6.4318    4.5959    1.0124 H         1 <0>         0.1311
     26 H4         -4.6315    3.0909    1.7588 H         1 <0>         0.1218
     27 H5         -1.9280    6.3870    1.8844 H         1 <0>         0.1259
     28 H6         -3.7256    7.8903    1.1279 H         1 <0>         0.1312
     29 H7         -0.7210    5.3745    2.6501 H         1 <0>         0.1024
     30 H8         -1.5839    4.8263    4.1071 H         1 <0>         0.1240
     31 H9         -0.0905    2.6604    4.0255 H         1 <0>         0.1367
     32 H10         1.4805    4.9572    2.8122 H         1 <0>         0.1419
     33 H11         1.5856    2.6540   -0.8889 H         1 <0>         0.1432
     34 H12         1.6028    2.6441    0.8913 H         1 <0>         0.1291
     35 H13         2.8871   -0.7261   -1.2310 H         1 <0>         0.1354
     36 H14         2.3244    0.7169   -2.1090 H         1 <0>         0.1319
     37 H15         0.7888   -1.5654   -1.2647 H         1 <0>         0.1133
     38 H16         0.2240   -0.1221   -2.1423 H         1 <0>         0.1049
     39 H17        -1.0163   -0.3928    0.0027 H         1 <0>         0.1270
     40 H18         0.2668   -0.1432    2.1402 H         1 <0>         0.1095
     41 H19         0.8129   -1.5789    1.2364 H         1 <0>         0.1070
     42 H20         2.9103   -0.7393    1.1706 H         1 <0>         0.1344
     43 H21         2.3657    0.6938    2.0753 H         1 <0>         0.1246
     44 H22        -3.2622    2.1113    2.5807 H         1 <0>         0.3880
     45 N1          2.3753    0.9115   -0.0161 N.4       1 <0>        -0.3879
     46 H23         3.3331    1.2813   -0.0235 H         1 <0>         0.4357
@<TRIPOS>BOND
     1    1    6 ar
     2    1    2 ar
     3    1   24 1
     4    2    3 ar
     5    2   25 1
     6    3    4 ar
     7    3   26 1
     8    4    5 ar
     9    4    7 1
    10    5    6 ar
    11    5   27 1
    12    6   28 1
    13    7    8 1
    14    7   12 1
    15    7   23 1
    16    8    9 1
    17    8   29 1
    18    8   30 1
    19    9   10 2
    20    9   31 1
    21   10   11 1
    22   10   32 1
    23   12   13 2
    24   12   14 1
    25   14   15 1
    26   15   16 1
    27   15   20 1
    28   15   17 1
    29   17   33 1
    30   17   34 1
    31   17   45 1
    32   18   19 1
    33   18   35 1
    34   18   36 1
    35   18   45 1
    36   19   20 1
    37   19   37 1
    38   19   38 1
    39   20   21 1
    40   20   39 1
    41   21   22 1
    42   21   40 1
    43   21   41 1
    44   22   42 1
    45   22   43 1
    46   22   45 1
    47   23   44 1
    48   45   46 1
@<TRIPOS>MOLECULE
ZINC00057478
   49    52     0     0     0
SMALL
USER_CHARGES
quinuclidin-3-yl 2-hydroxy-2,2-diphenyl-acetate
@<TRIPOS>ATOM
      1 C1          1.4720    2.0015    1.7120 C.ar      1 <0>        -0.1030
      2 C2          1.8758    1.1616    0.6910 C.ar      1 <0>        -0.1147
      3 C3          0.9814    0.2625    0.1411 C.ar      1 <0>        -0.1168
      4 C4         -0.3174    0.2046    0.6107 C.ar      1 <0>        -0.0905
      5 C5         -0.7218    1.0457    1.6304 C.ar      1 <0>        -0.0762
      6 C6          0.1729    1.9442    2.1811 C.ar      1 <0>        -0.1166
      7 C7         -1.2926   -0.7753    0.0108 C.3       1 <0>         0.2533
      8 C8         -1.0593   -2.1418    0.6016 C.ar      1 <0>        -0.1288
      9 C9          0.1993   -2.7112    0.5507 C.ar      1 <0>        -0.0766
     10 C10         0.4144   -3.9627    1.0970 C.ar      1 <0>        -0.1190
     11 C11        -0.6315   -4.6493    1.6848 C.ar      1 <0>        -0.1004
     12 C12        -1.8913   -4.0821    1.7311 C.ar      1 <0>        -0.1192
     13 C13        -2.1052   -2.8284    1.1895 C.ar      1 <0>        -0.1020
     14 C14        -1.0930   -0.8326   -1.4818 C.2       1 <0>         0.4468
     15 O1         -0.3846   -1.6842   -1.9644 O.2       1 <0>        -0.4737
     16 O2         -1.7023    0.0624   -2.2753 O.3       1 <0>        -0.3270
     17 C15        -1.4646   -0.0529   -3.7030 C.3       1 <0>         0.0725
     18 H1         -0.4745   -0.4748   -3.8756 H         1 <0>         0.1215
     19 C16        -2.5281   -0.9599   -4.3287 C.3       1 <0>        -0.0183
     20 C17        -3.9834    0.9338   -4.7344 C.3       1 <0>        -0.0019
     21 C18        -2.9614    1.8944   -4.1200 C.3       1 <0>        -0.1364
     22 C19        -1.5526    1.3339   -4.3524 C.3       1 <0>        -0.0967
     23 C20        -1.3293    1.1822   -5.8624 C.3       1 <0>        -0.1347
     24 C21        -2.3971    0.2417   -6.4281 C.3       1 <0>        -0.0048
     25 O3         -2.6278   -0.3542    0.2970 O.3       1 <0>        -0.5211
     26 H2          2.1710    2.7035    2.1422 H         1 <0>         0.1300
     27 H3          2.8907    1.2067    0.3243 H         1 <0>         0.1296
     28 H4          1.2986   -0.3978   -0.6525 H         1 <0>         0.1211
     29 H5         -1.7366    1.0007    1.9971 H         1 <0>         0.1361
     30 H6         -0.1430    2.6012    2.9780 H         1 <0>         0.1315
     31 H7          1.0154   -2.1766    0.0875 H         1 <0>         0.1253
     32 H8          1.3986   -4.4059    1.0606 H         1 <0>         0.1293
     33 H9         -0.4645   -5.6289    2.1077 H         1 <0>         0.1293
     34 H10        -2.7085   -4.6187    2.1901 H         1 <0>         0.1301
     35 H11        -3.0896   -2.3855    1.2253 H         1 <0>         0.1281
     36 H12        -2.0448   -1.8163   -4.7988 H         1 <0>         0.1413
     37 H13        -3.2111   -1.3076   -3.5536 H         1 <0>         0.1353
     38 H14        -4.6564    0.5726   -3.9568 H         1 <0>         0.1295
     39 H15        -4.5584    1.4553   -5.4996 H         1 <0>         0.1320
     40 H16        -3.1453    1.9877   -3.0497 H         1 <0>         0.1099
     41 H17        -3.0475    2.8731   -4.5920 H         1 <0>         0.1050
     42 H18        -0.8077    1.9998   -3.9167 H         1 <0>         0.1257
     43 H19        -1.4096    2.1571   -6.3432 H         1 <0>         0.1124
     44 H20        -0.3398    0.7631   -6.0450 H         1 <0>         0.1043
     45 H21        -1.9153   -0.6235   -6.8837 H         1 <0>         0.1309
     46 H22        -2.9849    0.7684   -7.1799 H         1 <0>         0.1343
     47 H23        -3.3099   -0.9395   -0.0598 H         1 <0>         0.3849
     48 N1         -3.2990   -0.2219   -5.3524 N.4       1 <0>        -0.3882
     49 H24        -4.0038   -0.8501   -5.7559 H         1 <0>         0.4368
@<TRIPOS>BOND
     1    1    6 ar
     2    1    2 ar
     3    1   26 1
     4    2    3 ar
     5    2   27 1
     6    3    4 ar
     7    3   28 1
     8    4    5 ar
     9    4    7 1
    10    5    6 ar
    11    5   29 1
    12    6   30 1
    13    7    8 1
    14    7   14 1
    15    7   25 1
    16    8   13 ar
    17    8    9 ar
    18    9   10 ar
    19    9   31 1
    20   10   11 ar
    21   10   32 1
    22   11   12 ar
    23   11   33 1
    24   12   13 ar
    25   12   34 1
    26   13   35 1
    27   14   15 2
    28   14   16 1
    29   16   17 1
    30   17   18 1
    31   17   22 1
    32   17   19 1
    33   19   36 1
    34   19   37 1
    35   19   48 1
    36   20   21 1
    37   20   38 1
    38   20   39 1
    39   20   48 1
    40   21   22 1
    41   21   40 1
    42   21   41 1
    43   22   23 1
    44   22   42 1
    45   23   24 1
    46   23   43 1
    47   23   44 1
    48   24   45 1
    49   24   46 1
    50   24   48 1
    51   25   47 1
    52   48   49 1
@<TRIPOS>MOLECULE
ZINC00057479
   49    52     0     0     0
SMALL
USER_CHARGES
quinuclidin-3-yl 2-hydroxy-2,2-diphenyl-acetate
@<TRIPOS>ATOM
      1 C1          0.1683   -0.8233   -3.3647 C.ar      1 <0>        -0.1003
      2 C2         -0.5192   -0.9452   -2.1717 C.ar      1 <0>        -0.1206
      3 C3         -0.1575   -0.1733   -1.0835 C.ar      1 <0>        -0.0993
      4 C4          0.8920    0.7203   -1.1882 C.ar      1 <0>        -0.1324
      5 C5          1.5761    0.8460   -2.3828 C.ar      1 <0>        -0.0766
      6 C6          1.2172    0.0709   -3.4697 C.ar      1 <0>        -0.1211
      7 C7          1.2864    1.5618   -0.0018 C.3       1 <0>         0.2537
      8 C8          1.0779    3.0183   -0.3276 C.ar      1 <0>        -0.0915
      9 C9          1.9720    3.6773   -1.1505 C.ar      1 <0>        -0.1148
     10 C10         1.7784    5.0122   -1.4529 C.ar      1 <0>        -0.1150
     11 C11         0.6958    5.6905   -0.9250 C.ar      1 <0>        -0.1030
     12 C12        -0.1954    5.0328   -0.0978 C.ar      1 <0>        -0.1175
     13 C13        -0.0042    3.6968    0.2010 C.ar      1 <0>        -0.0769
     14 C14         2.7383    1.3225    0.3233 C.2       1 <0>         0.4475
     15 O1          3.4953    0.9410   -0.5376 O.2       1 <0>        -0.4746
     16 O2          3.1905    1.5333    1.5694 O.3       1 <0>        -0.3268
     17 C15         4.6003    1.2824    1.8103 C.3       1 <0>         0.0725
     18 H1          5.1660    1.4714    0.8980 H         1 <0>         0.1212
     19 C16         4.7957   -0.1736    2.2430 C.3       1 <0>        -0.0183
     20 C17         6.7236    0.4252    3.5821 C.3       1 <0>        -0.0050
     21 C18         6.5842    1.9003    3.1846 C.3       1 <0>        -0.1343
     22 C19         5.1031    2.2054    2.9275 C.3       1 <0>        -0.0961
     23 C20         4.3106    1.8963    4.2073 C.3       1 <0>        -0.1364
     24 C21         4.5144    0.4236    4.5738 C.3       1 <0>        -0.0018
     25 O3          0.4812    1.2054    1.1237 O.3       1 <0>        -0.5215
     26 H2         -0.1138   -1.4269   -4.2147 H         1 <0>         0.1288
     27 H3         -1.3387   -1.6439   -2.0896 H         1 <0>         0.1300
     28 H4         -0.6946   -0.2686   -0.1514 H         1 <0>         0.1308
     29 H5          2.3932    1.5473   -2.4659 H         1 <0>         0.1272
     30 H6          1.7546    0.1660   -4.4017 H         1 <0>         0.1287
     31 H7          2.8200    3.1484   -1.5599 H         1 <0>         0.1216
     32 H8          2.4745    5.5259   -2.0994 H         1 <0>         0.1296
     33 H9          0.5460    6.7341   -1.1590 H         1 <0>         0.1298
     34 H10        -1.0413    5.5627    0.3146 H         1 <0>         0.1313
     35 H11        -0.7005    3.1830    0.8472 H         1 <0>         0.1367
     36 H12         3.8303   -0.6791    2.2650 H         1 <0>         0.1352
     37 H13         5.4542   -0.6778    1.5357 H         1 <0>         0.1413
     38 H14         7.1600    0.3561    4.5785 H         1 <0>         0.1344
     39 H15         7.3687   -0.0837    2.8660 H         1 <0>         0.1308
     40 H16         7.1588    2.0893    2.2779 H         1 <0>         0.1040
     41 H17         6.9534    2.5353    3.9899 H         1 <0>         0.1126
     42 H18         4.9674    3.2484    2.6414 H         1 <0>         0.1260
     43 H19         3.2513    2.0866    4.0350 H         1 <0>         0.1099
     44 H20         4.6675    2.5279    5.0208 H         1 <0>         0.1048
     45 H21         3.5511   -0.0864    4.5797 H         1 <0>         0.1294
     46 H22         4.9688    0.3540    5.5622 H         1 <0>         0.1320
     47 H23         0.5651    0.2796    1.3900 H         1 <0>         0.3858
     48 N1          5.4008   -0.2351    3.5909 N.4       1 <0>        -0.3881
     49 H24         5.5211   -1.2193    3.8576 H         1 <0>         0.4368
@<TRIPOS>BOND
     1    1    6 ar
     2    1    2 ar
     3    1   26 1
     4    2    3 ar
     5    2   27 1
     6    3    4 ar
     7    3   28 1
     8    4    5 ar
     9    4    7 1
    10    5    6 ar
    11    5   29 1
    12    6   30 1
    13    7    8 1
    14    7   14 1
    15    7   25 1
    16    8   13 ar
    17    8    9 ar
    18    9   10 ar
    19    9   31 1
    20   10   11 ar
    21   10   32 1
    22   11   12 ar
    23   11   33 1
    24   12   13 ar
    25   12   34 1
    26   13   35 1
    27   14   15 2
    28   14   16 1
    29   16   17 1
    30   17   18 1
    31   17   22 1
    32   17   19 1
    33   19   36 1
    34   19   37 1
    35   19   48 1
    36   20   21 1
    37   20   38 1
    38   20   39 1
    39   20   48 1
    40   21   22 1
    41   21   40 1
    42   21   41 1
    43   22   23 1
    44   22   42 1
    45   23   24 1
    46   23   43 1
    47   23   44 1
    48   24   45 1
    49   24   46 1
    50   24   48 1
    51   25   47 1
    52   48   49 1
@<TRIPOS>MOLECULE
ZINC01996117
   63    67     0     0     0
SMALL
USER_CHARGES

@<TRIPOS>ATOM
      1 C1          6.2679   -0.9746   -3.4775 C.ar      1 <0>        -0.1035
      2 C2          6.2774    0.1494   -2.6728 C.ar      1 <0>        -0.1058
      3 C3          5.4460    0.2173   -1.5705 C.ar      1 <0>        -0.1005
      4 C4          4.6049   -0.8386   -1.2731 C.ar      1 <0>        -0.1025
      5 C5          4.5947   -1.9622   -2.0782 C.ar      1 <0>        -0.1272
      6 C6          5.4271   -2.0307   -3.1798 C.ar      1 <0>        -0.1102
      7 C7          3.6993   -0.7650   -0.0708 C.3       1 <0>         0.0236
      8 C8          2.6283    0.2677   -0.3111 C.ar      1 <0>        -0.0909
      9 C9          2.5129    0.8682   -1.5508 C.ar      1 <0>        -0.0999
     10 C10         1.5305    1.8154   -1.7712 C.ar      1 <0>        -0.1205
     11 C11         0.6633    2.1618   -0.7520 C.ar      1 <0>        -0.1024
     12 C12         0.7781    1.5607    0.4875 C.ar      1 <0>        -0.1224
     13 C13         1.7578    0.6103    0.7066 C.ar      1 <0>        -0.0890
     14 C14         3.0485   -2.1300    0.1619 C.3       1 <0>        -0.0907
     15 H1          2.4325   -2.4056   -0.6941 H         1 <0>         0.1334
     16 C15         2.1954   -2.1050    1.4509 C.3       1 <0>        -0.1547
     17 C16         2.4706   -3.4959    2.0755 C.3       1 <0>        -0.0075
     18 N1          3.9085   -3.7227    1.7802 N.4       1 <0>        -0.3960
     19 C17         4.1269   -3.2007    0.4113 C.3       1 <0>        -0.0193
     20 C18         4.2152   -5.1585    1.8284 C.3       1 <0>        -0.0052
     21 C19         4.0516   -5.6671    3.2621 C.3       1 <0>        -0.0913
     22 C20         4.3663   -7.1400    3.3116 C.ar      1 <0>        -0.1400
     23 C21         3.3641   -8.0709    3.1080 C.ar      1 <0>        -0.0707
     24 C22         3.6475   -9.4201    3.1480 C.ar      1 <0>        -0.1359
     25 C23         4.9469   -9.8570    3.3944 C.ar      1 <0>         0.1259
     26 C24         5.9434   -8.9127    3.6046 C.ar      1 <0>        -0.1703
     27 C25         5.6599   -7.5657    3.5551 C.ar      1 <0>        -0.0581
     28 C26         7.2284   -9.6738    3.8681 C.3       1 <0>        -0.1145
     29 C27         6.7019  -11.0988    4.1605 C.3       1 <0>         0.0488
     30 O1          5.4442  -11.1223    3.4644 O.3       1 <0>        -0.2994
     31 C28         4.5056   -0.3795    1.1426 C.2       1 <0>         0.5197
     32 O2          4.1054    0.4924    1.8847 O.2       1 <0>        -0.4969
     33 N2          5.6714   -1.0036    1.4031 N.am      1 <0>        -0.8651
     34 H2          6.9142   -1.0258   -4.3412 H         1 <0>         0.1309
     35 H3          6.9346    0.9743   -2.9052 H         1 <0>         0.1313
     36 H4          5.4539    1.0951   -0.9414 H         1 <0>         0.1238
     37 H5          3.9381   -2.7874   -1.8455 H         1 <0>         0.1247
     38 H6          5.4195   -2.9087   -3.8086 H         1 <0>         0.1306
     39 H7          3.1904    0.5975   -2.3471 H         1 <0>         0.1262
     40 H8          1.4408    2.2851   -2.7396 H         1 <0>         0.1264
     41 H9         -0.1038    2.9024   -0.9240 H         1 <0>         0.1267
     42 H10         0.1008    1.8317    1.2839 H         1 <0>         0.1264
     43 H11         1.8452    0.1380    1.6739 H         1 <0>         0.1274
     44 H12         2.5281   -1.3099    2.1182 H         1 <0>         0.1084
     45 H13         1.1380   -1.9920    1.2116 H         1 <0>         0.1282
     46 H14         2.2974   -3.4756    3.1515 H         1 <0>         0.1396
     47 H15         1.8551   -4.2597    1.6001 H         1 <0>         0.1404
     48 H16         4.0251   -4.0065   -0.3156 H         1 <0>         0.1453
     49 H17         5.1182   -2.7535    0.3375 H         1 <0>         0.1318
     50 H18         3.5330   -5.6980    1.1714 H         1 <0>         0.1343
     51 H19         5.2415   -5.3220    1.4998 H         1 <0>         0.1314
     52 H20         4.7338   -5.1275    3.9191 H         1 <0>         0.0929
     53 H21         3.0253   -5.5036    3.5907 H         1 <0>         0.0956
     54 H22         2.3540   -7.7396    2.9170 H         1 <0>         0.1333
     55 H23         2.8591  -10.1405    2.9875 H         1 <0>         0.1358
     56 H24         6.4466   -6.8421    3.7101 H         1 <0>         0.1264
     57 H25         7.8714   -9.6690    2.9880 H         1 <0>         0.0954
     58 H26         7.7517   -9.2667    4.7333 H         1 <0>         0.0968
     59 H27         7.3802  -11.8512    3.7580 H         1 <0>         0.1142
     60 H28         6.5538  -11.2438    5.2306 H         1 <0>         0.0839
     61 H29         6.0369   -1.6350    0.7639 H         1 <0>         0.3981
     62 H30         6.1448   -0.8214    2.2299 H         1 <0>         0.4099
     63 H31         4.4827   -3.2205    2.4406 H         1 <0>         0.4229
@<TRIPOS>BOND
     1    1    6 ar
     2    1    2 ar
     3    1   34 1
     4    2    3 ar
     5    2   35 1
     6    3    4 ar
     7    3   36 1
     8    4    5 ar
     9    4    7 1
    10    5    6 ar
    11    5   37 1
    12    6   38 1
    13    7    8 1
    14    7   14 1
    15    7   31 1
    16    8   13 ar
    17    8    9 ar
    18    9   10 ar
    19    9   39 1
    20   10   11 ar
    21   10   40 1
    22   11   12 ar
    23   11   41 1
    24   12   13 ar
    25   12   42 1
    26   13   43 1
    27   14   15 1
    28   14   19 1
    29   14   16 1
    30   16   17 1
    31   16   44 1
    32   16   45 1
    33   17   18 1
    34   17   46 1
    35   17   47 1
    36   18   19 1
    37   18   20 1
    38   18   63 1
    39   19   48 1
    40   19   49 1
    41   20   21 1
    42   20   50 1
    43   20   51 1
    44   21   22 1
    45   21   52 1
    46   21   53 1
    47   22   27 ar
    48   22   23 ar
    49   23   24 ar
    50   23   54 1
    51   24   25 ar
    52   24   55 1
    53   25   30 1
    54   25   26 ar
    55   26   27 ar
    56   26   28 1
    57   27   56 1
    58   28   29 1
    59   28   57 1
    60   28   58 1
    61   29   30 1
    62   29   59 1
    63   29   60 1
    64   31   32 2
    65   31   33 am
    66   33   61 1
    67   33   62 1
@<TRIPOS>MOLECULE
ZINC01851108
   40    42     0     0     0
SMALL
USER_CHARGES
3-(4-butylsulfanyl-1,2,5-thiadiazol-3-yl)quinuclidine
@<TRIPOS>ATOM
      1 C1          0.7390   -2.0273   -1.2652 C.3       1 <0>        -0.1552
      2 C2          0.7182   -0.4975   -1.2568 C.3       1 <0>        -0.1185
      3 C3          0.0021   -0.0041    0.0020 C.3       1 <0>        -0.1074
      4 C4         -0.0187    1.5258    0.0104 C.3       1 <0>        -0.1066
      5 S1         -0.8677    2.1108    1.5029 S.3       1 <0>         0.0009
      6 C5         -0.8089    3.8665    1.3663 C.2       1 <0>         0.0592
      7 C6         -1.3583    4.7125    2.3122 C.2       1 <0>         0.0408
      8 N1         -1.2478    5.9985    2.1018 N.2       1 <0>        -0.4740
      9 S2         -0.4771    6.1330    0.7342 S.3       1 <0>         0.5250
     10 N2         -0.2412    4.4885    0.3486 N.2       1 <0>        -0.4484
     11 C7         -2.0512    4.1747    3.5377 C.3       1 <0>        -0.0177
     12 H1         -2.0333    3.0850    3.5188 H         1 <0>         0.1298
     13 C8         -1.3352    4.6780    4.7944 C.3       1 <0>         0.0093
     14 C9         -3.4032    4.6385    6.0555 C.3       1 <0>        -0.0026
     15 C10        -4.1776    4.1333    4.8349 C.3       1 <0>        -0.1343
     16 C11        -3.5035    4.6672    3.5647 C.3       1 <0>        -0.0904
     17 C12        -3.4993    6.2001    3.6205 C.3       1 <0>        -0.1443
     18 C13        -2.7437    6.6473    4.8750 C.3       1 <0>         0.0050
     19 H2         -0.2836   -2.4046   -1.2575 H         1 <0>         0.0569
     20 H3          1.2492   -2.3788   -2.1620 H         1 <0>         0.0609
     21 H4          1.2661   -2.3884   -0.3821 H         1 <0>         0.0567
     22 H5          0.1910   -0.1364   -2.1398 H         1 <0>         0.0671
     23 H6          1.7408   -0.1202   -1.2645 H         1 <0>         0.0668
     24 H7          0.5293   -0.3651    0.8851 H         1 <0>         0.0761
     25 H8         -1.0205   -0.3814    0.0098 H         1 <0>         0.0765
     26 H9          1.0039    1.9031    0.0027 H         1 <0>         0.0981
     27 H10        -0.5459    1.8868   -0.8726 H         1 <0>         0.0984
     28 H11        -0.9761    3.8273    5.3736 H         1 <0>         0.1389
     29 H12        -0.4910    5.3042    4.5058 H         1 <0>         0.1285
     30 H13        -3.0292    3.7885    6.6263 H         1 <0>         0.1304
     31 H14        -4.0638    5.2363    6.6835 H         1 <0>         0.1303
     32 H15        -5.2060    4.4918    4.8809 H         1 <0>         0.1056
     33 H16        -4.1690    3.0434    4.8224 H         1 <0>         0.1042
     34 H17        -4.0317    4.3260    2.6744 H         1 <0>         0.1177
     35 H18        -4.5249    6.5669    3.6617 H         1 <0>         0.0987
     36 H19        -3.0044    6.5983    2.7347 H         1 <0>         0.1179
     37 H20        -3.4096    7.2287    5.5127 H         1 <0>         0.1270
     38 H21        -1.8896    7.2600    4.5866 H         1 <0>         0.1275
     39 N3         -2.2590    5.4732    5.6316 N.4       1 <0>        -0.3895
     40 H22        -1.7565    5.7984    6.4659 H         1 <0>         0.4345
@<TRIPOS>BOND
     1    1    2 1
     2    1   19 1
     3    1   20 1
     4    1   21 1
     5    2    3 1
     6    2   22 1
     7    2   23 1
     8    3    4 1
     9    3   24 1
    10    3   25 1
    11    4    5 1
    12    4   26 1
    13    4   27 1
    14    5    6 1
    15    6   10 2
    16    6    7 1
    17    7    8 2
    18    7   11 1
    19    8    9 1
    20    9   10 1
    21   11   12 1
    22   11   16 1
    23   11   13 1
    24   13   28 1
    25   13   29 1
    26   13   39 1
    27   14   15 1
    28   14   30 1
    29   14   31 1
    30   14   39 1
    31   15   16 1
    32   15   32 1
    33   15   33 1
    34   16   17 1
    35   16   34 1
    36   17   18 1
    37   17   35 1
    38   17   36 1
    39   18   37 1
    40   18   38 1
    41   18   39 1
    42   39   40 1
@<TRIPOS>MOLECULE
ZINC01851109
   40    42     0     0     0
SMALL
USER_CHARGES
3-(4-butylsulfanyl-1,2,5-thiadiazol-3-yl)quinuclidine
@<TRIPOS>ATOM
      1 C1          3.6299   -8.2026   -2.3747 C.3       1 <0>        -0.1552
      2 C2          2.3898   -7.3828   -2.7368 C.3       1 <0>        -0.1185
      3 C3          2.5352   -5.9651   -2.1802 C.3       1 <0>        -0.1074
      4 C4          1.2951   -5.1454   -2.5423 C.3       1 <0>        -0.1066
      5 S1          1.4675   -3.4645   -1.8823 S.3       1 <0>         0.0008
      6 C5         -0.0193   -2.6581   -2.3763 C.2       1 <0>         0.0593
      7 C6         -0.2952   -1.3380   -2.0705 C.2       1 <0>         0.0408
      8 N1         -1.4304   -0.8489   -2.4976 N.2       1 <0>        -0.4739
      9 S2         -2.1343   -2.0336   -3.2615 S.3       1 <0>         0.5247
     10 N2         -0.9687   -3.2634   -3.0669 N.2       1 <0>        -0.4483
     11 C7          0.6750   -0.4958   -1.2827 C.3       1 <0>        -0.0174
     12 H1          1.5533   -1.0900   -1.0306 H         1 <0>         0.1297
     13 C8          0.0021   -0.0041    0.0020 C.3       1 <0>         0.0093
     14 C9          1.3461    2.0114    0.0000 C.3       1 <0>        -0.0055
     15 C10         2.0731    1.5660   -1.2918 C.3       1 <0>        -0.1302
     16 C11         1.0959    0.7200   -2.1177 C.3       1 <0>        -0.0930
     17 C12        -0.1530    1.5529   -2.4331 C.3       1 <0>        -0.1435
     18 C13        -0.8025    1.9884   -1.1166 C.3       1 <0>         0.0050
     19 H2          4.5144   -7.7324   -2.8045 H         1 <0>         0.0569
     20 H3          3.7324   -8.2467   -1.2905 H         1 <0>         0.0567
     21 H4          3.5263   -9.2126   -2.7713 H         1 <0>         0.0609
     22 H5          1.5053   -7.8530   -2.3071 H         1 <0>         0.0668
     23 H6          2.2873   -7.3387   -3.8211 H         1 <0>         0.0670
     24 H7          3.4197   -5.4950   -2.6100 H         1 <0>         0.0765
     25 H8          2.6377   -6.0092   -1.0959 H         1 <0>         0.0761
     26 H9          0.4106   -5.6155   -2.1125 H         1 <0>         0.0981
     27 H10         1.1926   -5.1013   -3.6266 H         1 <0>         0.0984
     28 H11         0.5602   -0.3649    0.8659 H         1 <0>         0.1388
     29 H12        -1.0194   -0.3818    0.0454 H         1 <0>         0.1284
     30 H13         1.3021    3.0998    0.0407 H         1 <0>         0.1307
     31 H14         1.8945    1.6366    0.8643 H         1 <0>         0.1298
     32 H15         2.9559    0.9737   -1.0512 H         1 <0>         0.1057
     33 H16         2.3684    2.4456   -1.8638 H         1 <0>         0.1049
     34 H17         1.5718    0.3932   -3.0422 H         1 <0>         0.1166
     35 H18         0.1312    2.4336   -3.0090 H         1 <0>         0.0986
     36 H19        -0.8571    0.9518   -3.0086 H         1 <0>         0.1183
     37 H20        -1.8185    1.5969   -1.0653 H         1 <0>         0.1274
     38 H21        -0.8289    3.0769   -1.0667 H         1 <0>         0.1271
     39 N3         -0.0307    1.4740    0.0347 N.4       1 <0>        -0.3889
     40 H22        -0.4854    1.7781    0.9036 H         1 <0>         0.4347
@<TRIPOS>BOND
     1    1    2 1
     2    1   19 1
     3    1   20 1
     4    1   21 1
     5    2    3 1
     6    2   22 1
     7    2   23 1
     8    3    4 1
     9    3   24 1
    10    3   25 1
    11    4    5 1
    12    4   26 1
    13    4   27 1
    14    5    6 1
    15    6   10 2
    16    6    7 1
    17    7    8 2
    18    7   11 1
    19    8    9 1
    20    9   10 1
    21   11   12 1
    22   11   16 1
    23   11   13 1
    24   13   28 1
    25   13   29 1
    26   13   39 1
    27   14   15 1
    28   14   30 1
    29   14   31 1
    30   14   39 1
    31   15   16 1
    32   15   32 1
    33   15   33 1
    34   16   17 1
    35   16   34 1
    36   17   18 1
    37   17   35 1
    38   17   36 1
    39   18   37 1
    40   18   38 1
    41   18   39 1
    42   39   40 1
@<TRIPOS>MOLECULE
ZINC00968336
   56    57     0     0     0
SMALL
USER_CHARGES

@<TRIPOS>ATOM
      1 C1          2.4412    1.0226    2.8896 C.3       1 <0>        -0.1195
      2 C2          1.9321   -0.3816    2.6890 C.ar      1 <0>        -0.0860
      3 C3          2.2025   -1.0521    1.5102 C.ar      1 <0>        -0.0980
      4 C4          1.7366   -2.3390    1.3238 C.ar      1 <0>        -0.1336
      5 C5          0.9971   -2.9590    2.3208 C.ar      1 <0>         0.1081
      6 C6          0.7276   -2.2845    3.5025 C.ar      1 <0>        -0.1060
      7 C7          1.2003   -0.9992    3.6861 C.ar      1 <0>        -0.1038
      8 C8         -0.0753   -2.9549    4.5873 C.3       1 <0>         0.0055
      9 H1         -0.4621   -3.9050    4.2187 H         1 <0>         0.1034
     10 C9         -1.2423   -2.0512    4.9906 C.3       1 <0>        -0.1451
     11 C10        -2.1281   -2.7827    6.0011 C.3       1 <0>        -0.0271
     12 N1         -3.3197   -1.9717    6.2849 N.4       1 <0>        -0.3808
     13 C11        -4.2493   -2.7431    7.1207 C.3       1 <0>         0.0221
     14 C12        -5.5502   -1.9570    7.2958 C.3       1 <0>        -0.1831
     15 C13        -4.5500   -4.0830    6.4460 C.3       1 <0>        -0.1853
     16 C14        -2.9220   -0.7489    6.9951 C.3       1 <0>         0.0164
     17 C15        -1.6530   -1.0198    7.8058 C.3       1 <0>        -0.1933
     18 C16        -2.6515    0.3647    5.9814 C.3       1 <0>        -0.1958
     19 C17         0.8058   -3.2019    5.7847 C.ar      1 <0>        -0.0910
     20 C18         1.2808   -2.1355    6.5250 C.ar      1 <0>        -0.1234
     21 C19         2.0891   -2.3620    7.6233 C.ar      1 <0>        -0.1125
     22 C20         2.4220   -3.6549    7.9815 C.ar      1 <0>        -0.1133
     23 C21         1.9462   -4.7214    7.2418 C.ar      1 <0>        -0.1102
     24 C22         1.1345   -4.4950    6.1460 C.ar      1 <0>        -0.1148
     25 O1          0.5372   -4.2249    2.1396 O.3       1 <0>        -0.4973
     26 H2          3.4315    0.9886    3.3438 H         1 <0>         0.0751
     27 H3          2.5007    1.5286    1.9259 H         1 <0>         0.0718
     28 H4          1.7598    1.5662    3.5439 H         1 <0>         0.0662
     29 H5          2.7781   -0.5690    0.7346 H         1 <0>         0.1310
     30 H6          1.9474   -2.8620    0.4027 H         1 <0>         0.1335
     31 H7          0.9942   -0.4751    4.6076 H         1 <0>         0.1224
     32 H8         -0.8552   -1.1374    5.4412 H         1 <0>         0.0993
     33 H9         -1.8295   -1.8003    4.1073 H         1 <0>         0.0930
     34 H10        -2.4330   -3.7442    5.5880 H         1 <0>         0.1355
     35 H11        -1.5703   -2.9439    6.9235 H         1 <0>         0.1395
     36 H12        -3.7981   -2.9210    8.0969 H         1 <0>         0.1344
     37 H13        -6.0337   -1.8342    6.3266 H         1 <0>         0.0821
     38 H14        -6.2152   -2.4999    7.9674 H         1 <0>         0.1060
     39 H15        -5.3284   -0.9769    7.7180 H         1 <0>         0.0803
     40 H16        -5.0012   -3.9051    5.4699 H         1 <0>         0.0816
     41 H17        -3.6233   -4.6431    6.3213 H         1 <0>         0.0831
     42 H18        -5.2398   -4.6554    7.0662 H         1 <0>         0.1054
     43 H19        -3.7236   -0.4419    7.6669 H         1 <0>         0.1390
     44 H20        -0.8183   -1.1939    7.1268 H         1 <0>         0.0923
     45 H21        -1.4343   -0.1585    8.4370 H         1 <0>         0.1025
     46 H22        -1.8024   -1.9000    8.4312 H         1 <0>         0.0786
     47 H23        -3.5595    0.5673    5.4134 H         1 <0>         0.0821
     48 H24        -2.3429    1.2680    6.5076 H         1 <0>         0.1057
     49 H25        -1.8595    0.0520    5.3009 H         1 <0>         0.0892
     50 H26         1.0207   -1.1253    6.2451 H         1 <0>         0.1201
     51 H27         2.4608   -1.5288    8.2012 H         1 <0>         0.1255
     52 H28         3.0540   -3.8319    8.8392 H         1 <0>         0.1264
     53 H29         2.2066   -5.7315    7.5215 H         1 <0>         0.1270
     54 H30         0.7597   -5.3284    5.5702 H         1 <0>         0.1239
     55 H31         1.1480   -4.9120    2.4395 H         1 <0>         0.3924
     56 H32        -3.7728   -1.7248    5.4178 H         1 <0>         0.4196
@<TRIPOS>BOND
     1    1    2 1
     2    1   26 1
     3    1   27 1
     4    1   28 1
     5    2    7 ar
     6    2    3 ar
     7    3    4 ar
     8    3   29 1
     9    4    5 ar
    10    4   30 1
    11    5    6 ar
    12    5   25 1
    13    6    7 ar
    14    6    8 1
    15    7   31 1
    16    8    9 1
    17    8   10 1
    18    8   19 1
    19   10   11 1
    20   10   32 1
    21   10   33 1
    22   11   12 1
    23   11   34 1
    24   11   35 1
    25   12   13 1
    26   12   16 1
    27   12   56 1
    28   13   14 1
    29   13   15 1
    30   13   36 1
    31   14   37 1
    32   14   38 1
    33   14   39 1
    34   15   40 1
    35   15   41 1
    36   15   42 1
    37   16   17 1
    38   16   18 1
    39   16   43 1
    40   17   44 1
    41   17   45 1
    42   17   46 1
    43   18   47 1
    44   18   48 1
    45   18   49 1
    46   19   24 ar
    47   19   20 ar
    48   20   21 ar
    49   20   50 1
    50   21   22 ar
    51   21   51 1
    52   22   23 ar
    53   22   52 1
    54   23   24 ar
    55   23   53 1
    56   24   54 1
    57   25   55 1
@<TRIPOS>MOLECULE
ZINC04424121
   37    39     0     0     0
SMALL
USER_CHARGES
6-(4-propylsulfanyl-1,2,5-thiadiazol-3-yl)-1-azabicyclo[3.2.1]octane
@<TRIPOS>ATOM
      1 C1         -0.7527    1.5927   -1.2315 C.3       1 <0>        -0.1494
      2 C2         -0.0127    1.0858    0.0080 C.3       1 <0>        -0.1107
      3 C3         -0.7288    1.5792    1.2668 C.3       1 <0>        -0.1065
      4 S1          0.1485    0.9783    2.7364 S.3       1 <0>        -0.0009
      5 C4         -0.7864    1.6222    4.0840 C.2       1 <0>         0.0592
      6 C5         -0.4559    1.3901    5.4066 C.2       1 <0>         0.0399
      7 N1         -1.2252    1.9249    6.3190 N.2       1 <0>        -0.4783
      8 S2         -2.3459    2.6935    5.5217 S.3       1 <0>         0.5345
      9 N2         -1.8670    2.3636    3.9184 N.2       1 <0>        -0.4498
     10 C6          0.7444    0.5593    5.7811 C.3       1 <0>        -0.0264
     11 H1          1.2634    0.2181    4.8854 H         1 <0>         0.1356
     12 C7          1.6990    1.3699    6.6784 C.3       1 <0>         0.0031
     13 C8          2.8970   -0.3575    7.8549 C.3       1 <0>        -0.0020
     14 C9          2.7590   -1.1234    6.5377 C.3       1 <0>        -0.1577
     15 C10         1.3549   -1.7625    6.4221 C.3       1 <0>        -0.1302
     16 C11         0.3139   -0.6504    6.6492 C.3       1 <0>        -0.0937
     17 H2         -0.7078   -0.9764    6.4549 H         1 <0>         0.1305
     18 C12         0.5214   -0.1125    8.0911 C.3       1 <0>        -0.0053
     19 H3         -0.2425    1.2411   -2.1283 H         1 <0>         0.0683
     20 H4         -1.7753    1.2154   -1.2238 H         1 <0>         0.0604
     21 H5         -0.7675    2.6825   -1.2255 H         1 <0>         0.0602
     22 H6          0.0021   -0.0041    0.0020 H         1 <0>         0.0761
     23 H7          1.0099    1.4631    0.0003 H         1 <0>         0.0758
     24 H8         -0.7436    2.6691    1.2728 H         1 <0>         0.0983
     25 H9         -1.7514    1.2020    1.2746 H         1 <0>         0.0985
     26 H10         2.6793    1.4453    6.2078 H         1 <0>         0.1445
     27 H11         1.2912    2.3655    6.8534 H         1 <0>         0.1340
     28 H12         3.8571    0.1582    7.8772 H         1 <0>         0.1351
     29 H13         2.8390   -1.0559    8.6897 H         1 <0>         0.1324
     30 H14         2.9045   -0.4370    5.7035 H         1 <0>         0.0900
     31 H15         3.5152   -1.9073    6.4944 H         1 <0>         0.1135
     32 H16         1.2463   -2.5282    7.1902 H         1 <0>         0.0898
     33 H17         1.2089   -2.2050    5.4367 H         1 <0>         0.1016
     34 H18        -0.2893    0.5576    8.3772 H         1 <0>         0.1403
     35 H19         0.6164   -0.9326    8.8028 H         1 <0>         0.1417
     36 N3          1.7809    0.6126    7.9329 N.4       1 <0>        -0.3849
     37 H20         1.9271    1.2504    8.7242 H         1 <0>         0.4325
@<TRIPOS>BOND
     1    1    2 1
     2    1   19 1
     3    1   20 1
     4    1   21 1
     5    2    3 1
     6    2   22 1
     7    2   23 1
     8    3    4 1
     9    3   24 1
    10    3   25 1
    11    4    5 1
    12    5    9 2
    13    5    6 1
    14    6    7 2
    15    6   10 1
    16    7    8 1
    17    8    9 1
    18   10   11 1
    19   10   16 1
    20   10   12 1
    21   12   26 1
    22   12   27 1
    23   12   36 1
    24   13   14 1
    25   13   28 1
    26   13   29 1
    27   13   36 1
    28   14   15 1
    29   14   30 1
    30   14   31 1
    31   15   16 1
    32   15   32 1
    33   15   33 1
    34   16   17 1
    35   16   18 1
    36   18   34 1
    37   18   35 1
    38   18   36 1
    39   36   37 1
@<TRIPOS>MOLECULE
ZINC03830579
   52    55     0     0     0
SMALL
USER_CHARGES

@<TRIPOS>ATOM
      1 C1         -1.6129    0.1752    0.6734 C.3       1 <0>        -0.0486
      2 N1         -1.4850   -1.2489    0.3364 N.4       1 <0>        -0.2577
      3 C2         -2.7823   -1.7295   -0.1450 C.3       1 <0>        -0.0058
      4 C3         -2.6880   -3.2118   -0.5138 C.3       1 <0>        -0.1364
      5 C4         -1.2560   -3.6967   -0.2522 C.3       1 <0>        -0.0966
      6 C5         -0.9301   -3.4664    1.2293 C.3       1 <0>        -0.1359
      7 C6         -1.0807   -1.9760    1.5421 C.3       1 <0>        -0.0081
      8 C7         -0.2963   -2.8479   -1.0965 C.3       1 <0>         0.0718
      9 H1          0.7308   -3.1591   -0.9057 H         1 <0>         0.1198
     10 C8         -0.4727   -1.3877   -0.7132 C.3       1 <0>        -0.0239
     11 O1         -0.5988   -3.0188   -2.4826 O.3       1 <0>        -0.3229
     12 C9          0.4201   -2.8984   -3.3481 C.2       1 <0>         0.4460
     13 O2          1.5321   -2.6560   -2.9422 O.2       1 <0>        -0.4725
     14 C10         0.1772   -3.0656   -4.8259 C.3       1 <0>         0.2527
     15 C11        -0.2845   -1.7556   -5.4105 C.ar      1 <0>        -0.0867
     16 C12         0.2952   -0.5712   -4.9958 C.ar      1 <0>        -0.1218
     17 C13        -0.1282    0.6305   -5.5320 C.ar      1 <0>        -0.1169
     18 C14        -1.1311    0.6478   -6.4832 C.ar      1 <0>        -0.1047
     19 C15        -1.7102   -0.5367   -6.8986 C.ar      1 <0>        -0.1152
     20 C16        -1.2838   -1.7388   -6.3655 C.ar      1 <0>        -0.0752
     21 C17         1.4553   -3.4938   -5.4998 C.ar      1 <0>        -0.1299
     22 C18         1.5419   -4.7416   -6.0883 C.ar      1 <0>        -0.0998
     23 C19         2.7143   -5.1344   -6.7064 C.ar      1 <0>        -0.1183
     24 C20         3.7999   -4.2791   -6.7365 C.ar      1 <0>        -0.0999
     25 C21         3.7130   -3.0309   -6.1489 C.ar      1 <0>        -0.1201
     26 C22         2.5392   -2.6365   -5.5345 C.ar      1 <0>        -0.0776
     27 O3         -0.8274   -4.0604   -5.0340 O.3       1 <0>        -0.5226
     28 H2         -0.6545    0.5513    1.0314 H         1 <0>         0.1232
     29 H3         -1.9136    0.7329   -0.2135 H         1 <0>         0.1227
     30 H4         -2.3653    0.2981    1.4523 H         1 <0>         0.1263
     31 H5         -3.5296   -1.5983    0.6375 H         1 <0>         0.1308
     32 H6         -3.0769   -1.1562   -1.0239 H         1 <0>         0.1285
     33 H7         -3.3852   -3.7852    0.0972 H         1 <0>         0.1046
     34 H8         -2.9309   -3.3420   -1.5683 H         1 <0>         0.1097
     35 H9         -1.1645   -4.7545   -0.4991 H         1 <0>         0.1265
     36 H10        -1.6189   -4.0411    1.8484 H         1 <0>         0.1120
     37 H11         0.0941   -3.7803    1.4310 H         1 <0>         0.1039
     38 H12        -0.1287   -1.5833    1.8991 H         1 <0>         0.1299
     39 H13        -1.8376   -1.8434    2.3152 H         1 <0>         0.1334
     40 H14        -0.7793   -0.8160   -1.5892 H         1 <0>         0.1361
     41 H15         0.4807   -1.0049   -0.3491 H         1 <0>         0.1384
     42 H16         1.0788   -0.5846   -4.2526 H         1 <0>         0.1207
     43 H17         0.3242    1.5559   -5.2075 H         1 <0>         0.1284
     44 H18        -1.4624    1.5867   -6.9016 H         1 <0>         0.1296
     45 H19        -2.4940   -0.5232   -7.6415 H         1 <0>         0.1319
     46 H20        -1.7336   -2.6645   -6.6927 H         1 <0>         0.1376
     47 H21         0.6938   -5.4098   -6.0648 H         1 <0>         0.1295
     48 H22         2.7823   -6.1095   -7.1656 H         1 <0>         0.1309
     49 H23         4.7161   -4.5862   -7.2189 H         1 <0>         0.1294
     50 H24         4.5612   -2.3628   -6.1721 H         1 <0>         0.1287
     51 H25         2.4700   -1.6599   -5.0786 H         1 <0>         0.1238
     52 H26        -0.5973   -4.9313   -4.6823 H         1 <0>         0.3901
@<TRIPOS>BOND
     1    1    2 1
     2    1   28 1
     3    1   29 1
     4    1   30 1
     5    2    7 1
     6    2   10 1
     7    2    3 1
     8    3    4 1
     9    3   31 1
    10    3   32 1
    11    4    5 1
    12    4   33 1
    13    4   34 1
    14    5    6 1
    15    5    8 1
    16    5   35 1
    17    6    7 1
    18    6   36 1
    19    6   37 1
    20    7   38 1
    21    7   39 1
    22    8    9 1
    23    8   10 1
    24    8   11 1
    25   10   40 1
    26   10   41 1
    27   11   12 1
    28   12   13 2
    29   12   14 1
    30   14   15 1
    31   14   21 1
    32   14   27 1
    33   15   20 ar
    34   15   16 ar
    35   16   17 ar
    36   16   42 1
    37   17   18 ar
    38   17   43 1
    39   18   19 ar
    40   18   44 1
    41   19   20 ar
    42   19   45 1
    43   20   46 1
    44   21   26 ar
    45   21   22 ar
    46   22   23 ar
    47   22   47 1
    48   23   24 ar
    49   23   48 1
    50   24   25 ar
    51   24   49 1
    52   25   26 ar
    53   25   50 1
    54   26   51 1
    55   27   52 1
@<TRIPOS>MOLECULE
ZINC03079342
   25    24     0     0     0
SMALL
USER_CHARGES

@<TRIPOS>ATOM
      1 C1          0.5385    1.3265   -0.0156 C.3       1 <0>        -0.0552
      2 N1          0.0207   -0.0467    0.0478 N.4       1 <0>        -0.2722
      3 C2          0.5070   -0.6974    1.2718 C.3       1 <0>        -0.0471
      4 C3         -1.4480   -0.0161    0.0600 C.3       1 <0>        -0.0454
      5 C4          0.4850   -0.7999   -1.1248 C.3       1 <0>        -0.0017
      6 C5          2.0115   -0.7313   -1.2033 C.3       1 <0>         0.0515
      7 O1          2.5777   -1.4543   -0.1084 O.3       1 <0>        -0.3772
      8 C6          3.9213   -1.4920   -0.0303 C.2       1 <0>         0.6511
      9 O2          4.5947   -0.9264   -0.8688 O.2       1 <0>        -0.5552
     10 N2          4.5193   -2.1570    0.9780 N.am      1 <0>        -0.8167
     11 H1          1.6283    1.3038   -0.0246 H         1 <0>         0.1211
     12 H2          0.1776    1.8093   -0.9238 H         1 <0>         0.1253
     13 H3          0.1939    1.8853    0.8545 H         1 <0>         0.1262
     14 H4          0.0211   -0.2500    2.1388 H         1 <0>         0.1189
     15 H5          0.2750   -1.7618    1.2342 H         1 <0>         0.1224
     16 H6          1.5859   -0.5633    1.3504 H         1 <0>         0.1286
     17 H7         -1.8089    0.4667   -0.8482 H         1 <0>         0.1227
     18 H8         -1.8322   -1.0351    0.1071 H         1 <0>         0.1229
     19 H9         -1.7926    0.5427    0.9301 H         1 <0>         0.1241
     20 H10         0.1722   -1.8402   -1.0357 H         1 <0>         0.1419
     21 H11         0.0550   -0.3672   -2.0281 H         1 <0>         0.1522
     22 H12         2.3472   -1.1718   -2.1420 H         1 <0>         0.1171
     23 H13         2.3314    0.3096   -1.1555 H         1 <0>         0.0971
     24 H14         3.9817   -2.6085    1.6473 H         1 <0>         0.4117
     25 H15         5.4873   -2.1841    1.0343 H         1 <0>         0.4360
@<TRIPOS>BOND
     1    1    2 1
     2    1   11 1
     3    1   12 1
     4    1   13 1
     5    2    3 1
     6    2    4 1
     7    2    5 1
     8    3   14 1
     9    3   15 1
    10    3   16 1
    11    4   17 1
    12    4   18 1
    13    4   19 1
    14    5    6 1
    15    5   20 1
    16    5   21 1
    17    6    7 1
    18    6   22 1
    19    6   23 1
    20    7    8 1
    21    8    9 2
    22    8   10 am
    23   10   24 1
    24   10   25 1
@<TRIPOS>MOLECULE
ZINC01851873
   31    32     0     0     0
SMALL
USER_CHARGES
1-[4-(1-methyl-1-azoniacycloprop-1-yl)but-2-ynyl]pyrrolidin-2-one
@<TRIPOS>ATOM
      1 C1         -1.3361    2.9013   -1.0538 C.3       1 <0>        -0.0206
      2 N1         -0.7232    1.5724   -1.1821 N.4       1 <0>        -0.3499
      3 C2         -1.4464    0.5764   -1.9838 C.3       1 <0>        -0.0045
      4 C3         -0.1562    1.2204   -2.4907 C.3       1 <0>         0.0008
      5 C4         -0.0127    1.0858    0.0080 C.3       1 <0>         0.1609
      6 C5         -0.7017    1.5605    1.2191 C.1       1 <0>        -0.2588
      7 C6         -1.2512    1.9391    2.1850 C.1       1 <0>        -0.0718
      8 C7         -1.9402    2.4139    3.3961 C.3       1 <0>         0.2178
      9 N2         -1.2316    1.9286    4.5829 N.am      1 <0>        -0.6243
     10 C8         -1.5211    0.6581    5.2584 C.3       1 <0>         0.0986
     11 C9         -0.2830    0.3707    6.1396 C.3       1 <0>        -0.1325
     12 C10         0.2687    1.7952    6.3789 C.3       1 <0>        -0.1566
     13 C11        -0.2368    2.5923    5.1966 C.2       1 <0>         0.5206
     14 O1          0.1928    3.6731    4.8527 O.2       1 <0>        -0.5256
     15 H1         -0.5964    3.6668   -1.2885 H         1 <0>         0.1207
     16 H2         -2.1751    2.9827   -1.7448 H         1 <0>         0.1234
     17 H3         -1.6915    3.0405   -0.0328 H         1 <0>         0.1217
     18 H4         -1.3989   -0.4636   -1.6610 H         1 <0>         0.1682
     19 H5         -2.3825    0.8850   -2.4492 H         1 <0>         0.1678
     20 H6         -0.2385    1.9552   -3.2916 H         1 <0>         0.1699
     21 H7          0.7459    0.6087   -2.5028 H         1 <0>         0.1705
     22 H8          0.0021   -0.0041    0.0020 H         1 <0>         0.1469
     23 H9          1.0099    1.4631    0.0003 H         1 <0>         0.1451
     24 H10        -1.9550    3.5037    3.4021 H         1 <0>         0.1221
     25 H11        -2.9628    2.0366    3.4038 H         1 <0>         0.1232
     26 H12        -2.4134    0.7545    5.8769 H         1 <0>         0.0839
     27 H13        -1.6536   -0.1373    4.5251 H         1 <0>         0.0805
     28 H14         0.4436   -0.2450    5.6094 H         1 <0>         0.0829
     29 H15        -0.5758   -0.0972    7.0795 H         1 <0>         0.0993
     30 H16         1.3585    1.7847    6.3940 H         1 <0>         0.1067
     31 H17        -0.1209    2.2059    7.3104 H         1 <0>         0.1132
@<TRIPOS>BOND
     1    1    2 1
     2    1   15 1
     3    1   16 1
     4    1   17 1
     5    2    4 1
     6    2    3 1
     7    2    5 1
     8    3    4 1
     9    3   18 1
    10    3   19 1
    11    4   20 1
    12    4   21 1
    13    5    6 1
    14    5   22 1
    15    5   23 1
    16    6    7 3
    17    7    8 1
    18    8    9 1
    19    8   24 1
    20    8   25 1
    21    9   13 am
    22    9   10 1
    23   10   11 1
    24   10   26 1
    25   10   27 1
    26   11   12 1
    27   11   28 1
    28   11   29 1
    29   12   13 1
    30   12   30 1
    31   12   31 1
    32   13   14 2
@<TRIPOS>MOLECULE
ZINC22454198
   63    66     0     0     0
SMALL
USER_CHARGES

@<TRIPOS>ATOM
      1 C1          3.7363   -2.4652    4.4496 C.3       1 <0>        -0.1796
      2 C2          2.9845   -1.9903    3.2045 C.3       1 <0>        -0.0557
      3 N1          1.9173   -2.9469    2.8822 N.4       1 <0>        -0.3766
      4 C3          0.9693   -3.0185    4.0021 C.3       1 <0>        -0.0205
      5 C4         -0.0535   -4.1245    3.7345 C.3       1 <0>        -0.1879
      6 C5          1.2126   -2.5048    1.6715 C.3       1 <0>        -0.0145
      7 C6          2.1525   -2.6063    0.4685 C.3       1 <0>         0.0555
      8 H1          1.6017   -2.3748   -0.4432 H         1 <0>         0.0958
      9 C7          2.7136   -4.0272    0.3784 C.3       1 <0>        -0.1243
     10 C8          3.6690   -4.1187   -0.8148 C.3       1 <0>        -0.1226
     11 C9          4.7828   -3.0814   -0.6474 C.3       1 <0>        -0.1192
     12 C10         4.1616   -1.6879   -0.5275 C.3       1 <0>         0.0474
     13 N2          3.2569   -1.6519    0.6286 N.3       1 <0>        -0.5201
     14 C11         2.7491   -0.2926    0.8574 C.3       1 <0>         0.0145
     15 C12         3.8621    0.5778    1.3816 C.2       1 <0>         0.5305
     16 O1          4.9649    0.1075    1.5643 O.2       1 <0>        -0.4785
     17 N3          3.6318    1.8789    1.6473 N.am      1 <0>        -0.5093
     18 C13         4.6781    2.7203    2.0213 C.ar      1 <0>         0.1608
     19 C14         5.4159    2.4454    3.1637 C.ar      1 <0>        -0.1021
     20 C15         6.4274    3.2993    3.5569 C.ar      1 <0>        -0.0762
     21 C16         6.7098    4.4353    2.8164 C.ar      1 <0>        -0.1135
     22 C17         5.9968    4.7149    1.6709 C.ar      1 <0>        -0.0462
     23 C18         4.9822    3.8500    1.2493 C.ar      1 <0>        -0.1376
     24 C19         4.2858    4.1039   -0.0175 C.2       1 <0>         0.5680
     25 O2          4.9500    4.5470   -0.9343 O.2       1 <0>        -0.5066
     26 N4          2.9995    3.8935   -0.2523 N.am      1 <0>        -0.6555
     27 C20         2.0490    3.4215    0.6482 C.ar      1 <0>         0.1169
     28 C21         2.3415    2.4057    1.5464 C.ar      1 <0>         0.3044
     29 N5          1.3913    1.9274    2.3381 N.ar      1 <0>        -0.4788
     30 C22         0.1668    2.4167    2.3331 C.ar      1 <0>         0.1077
     31 C23        -0.1775    3.4577    1.4943 C.ar      1 <0>        -0.1319
     32 C24         0.7704    3.9710    0.6406 C.ar      1 <0>        -0.0799
     33 H2          4.0753   -3.4903    4.3003 H         1 <0>         0.0751
     34 H3          4.5972   -1.8193    4.6226 H         1 <0>         0.1013
     35 H4          3.0720   -2.4242    5.3128 H         1 <0>         0.0723
     36 H5          2.5481   -1.0099    3.3955 H         1 <0>         0.1151
     37 H6          3.6772   -1.9225    2.3656 H         1 <0>         0.1891
     38 H7          1.5102   -3.2387    4.9225 H         1 <0>         0.1325
     39 H8          0.4537   -2.0635    4.1033 H         1 <0>         0.1266
     40 H9          0.4559   -5.0870    3.6880 H         1 <0>         0.0801
     41 H10        -0.7892   -4.1412    4.5386 H         1 <0>         0.1052
     42 H11        -0.5559   -3.9331    2.7863 H         1 <0>         0.0778
     43 H12         0.3413   -3.1386    1.5064 H         1 <0>         0.1413
     44 H13         0.8913   -1.4706    1.7954 H         1 <0>         0.1304
     45 H14         3.2530   -4.2644    1.2954 H         1 <0>         0.0670
     46 H15         1.8948   -4.7340    0.2440 H         1 <0>         0.0883
     47 H16         4.1043   -5.1171   -0.8571 H         1 <0>         0.0798
     48 H17         3.1213   -3.9198   -1.7360 H         1 <0>         0.0707
     49 H18         5.3547   -3.3036    0.2535 H         1 <0>         0.0770
     50 H19         5.4423   -3.1125   -1.5147 H         1 <0>         0.0810
     51 H20         4.9513   -0.9486   -0.3939 H         1 <0>         0.0973
     52 H21         3.6013   -1.4608   -1.4345 H         1 <0>         0.0471
     53 H22         2.3772    0.1190   -0.0809 H         1 <0>         0.0811
     54 H23         1.9393   -0.3251    1.5862 H         1 <0>         0.1188
     55 H24         5.1986    1.5625    3.7465 H         1 <0>         0.1332
     56 H25         7.0006    3.0806    4.4458 H         1 <0>         0.1409
     57 H26         7.4928    5.1057    3.1388 H         1 <0>         0.1431
     58 H27         6.2215    5.6028    1.0986 H         1 <0>         0.1441
     59 H28         2.6857    4.0898   -1.1489 H         1 <0>         0.4167
     60 H29        -0.5772    1.9971    2.9940 H         1 <0>         0.1727
     61 H30        -1.1778    3.8645    1.5105 H         1 <0>         0.1559
     62 H31         0.5230    4.7829   -0.0272 H         1 <0>         0.1552
     63 H32         2.3196   -3.8585    2.7233 H         1 <0>         0.4189
@<TRIPOS>BOND
     1    1    2 1
     2    1   33 1
     3    1   34 1
     4    1   35 1
     5    2    3 1
     6    2   36 1
     7    2   37 1
     8    3    4 1
     9    3    6 1
    10    3   63 1
    11    4    5 1
    12    4   38 1
    13    4   39 1
    14    5   40 1
    15    5   41 1
    16    5   42 1
    17    6    7 1
    18    6   43 1
    19    6   44 1
    20    7    8 1
    21    7   13 1
    22    7    9 1
    23    9   10 1
    24    9   45 1
    25    9   46 1
    26   10   11 1
    27   10   47 1
    28   10   48 1
    29   11   12 1
    30   11   49 1
    31   11   50 1
    32   12   13 1
    33   12   51 1
    34   12   52 1
    35   13   14 1
    36   14   15 1
    37   14   53 1
    38   14   54 1
    39   15   16 2
    40   15   17 am
    41   17   28 1
    42   17   18 1
    43   18   23 ar
    44   18   19 ar
    45   19   20 ar
    46   19   55 1
    47   20   21 ar
    48   20   56 1
    49   21   22 ar
    50   21   57 1
    51   22   23 ar
    52   22   58 1
    53   23   24 1
    54   24   25 2
    55   24   26 am
    56   26   27 1
    57   26   59 1
    58   27   32 ar
    59   27   28 ar
    60   28   29 ar
    61   29   30 ar
    62   30   31 ar
    63   30   60 1
    64   31   32 ar
    65   31   61 1
    66   32   62 1
@<TRIPOS>MOLECULE
ZINC22454203
   63    66     0     0     0
SMALL
USER_CHARGES

@<TRIPOS>ATOM
      1 C1          2.3844   -0.5288    2.8835 C.3       1 <0>        -0.1884
      2 C2          2.6615   -2.0249    2.7225 C.3       1 <0>        -0.0230
      3 N1          1.3938   -2.7384    2.5180 N.4       1 <0>        -0.3829
      4 C3          0.5122   -2.5105    3.6707 C.3       1 <0>        -0.0177
      5 C4          1.1417   -3.1234    4.9233 C.3       1 <0>        -0.1865
      6 C5          0.7434   -2.2414    1.2982 C.3       1 <0>        -0.0210
      7 C6          1.6030   -2.5930    0.0824 C.3       1 <0>         0.0658
      8 H1          2.5922   -2.1497    0.1965 H         1 <0>         0.0673
      9 C7          1.7351   -4.1138   -0.0261 C.3       1 <0>        -0.1263
     10 C8          2.5792   -4.4615   -1.2554 C.3       1 <0>        -0.1208
     11 C9          1.9227   -3.8616   -2.5018 C.3       1 <0>        -0.1199
     12 C10         1.7851   -2.3481   -2.3216 C.3       1 <0>         0.0567
     13 N2          0.9688   -2.0678   -1.1335 N.3       1 <0>        -0.5060
     14 C11         0.6997   -0.6292   -1.0075 C.3       1 <0>         0.0280
     15 C12        -0.2574   -0.2005   -2.0898 C.2       1 <0>         0.5313
     16 O1         -0.7602   -1.0298   -2.8180 O.2       1 <0>        -0.4731
     17 N3         -0.5547    1.1045   -2.2484 N.am      1 <0>        -0.5141
     18 C13        -1.5127    1.5036   -3.1787 C.ar      1 <0>         0.1642
     19 C14        -1.3406    1.2078   -4.5233 C.ar      1 <0>        -0.1026
     20 C15        -2.2693    1.6364   -5.4511 C.ar      1 <0>        -0.0744
     21 C16        -3.3753    2.3657   -5.0466 C.ar      1 <0>        -0.1154
     22 C17        -3.5691    2.6549   -3.7134 C.ar      1 <0>        -0.0474
     23 C18        -2.6476    2.2115   -2.7597 C.ar      1 <0>        -0.1411
     24 C19        -2.9034    2.4447   -1.3334 C.2       1 <0>         0.5707
     25 O2         -4.0572    2.3654   -0.9585 O.2       1 <0>        -0.5104
     26 N4         -1.9910    2.7332   -0.4177 N.am      1 <0>        -0.6551
     27 C20        -0.6242    2.9005   -0.6197 C.ar      1 <0>         0.1102
     28 C21         0.0889    2.0770   -1.4786 C.ar      1 <0>         0.3092
     29 N5          1.4031    2.2148   -1.5897 N.ar      1 <0>        -0.4700
     30 C22         2.0649    3.1482   -0.9342 C.ar      1 <0>         0.1109
     31 C23         1.4081    4.0281   -0.0975 C.ar      1 <0>        -0.1366
     32 C24         0.0479    3.9086    0.0649 C.ar      1 <0>        -0.0827
     33 H2          1.7033   -0.3735    3.7202 H         1 <0>         0.0839
     34 H3          3.3207   -0.0045    3.0750 H         1 <0>         0.1078
     35 H4          1.9320   -0.1427    1.9701 H         1 <0>         0.0745
     36 H5          3.3107   -2.1836    1.8614 H         1 <0>         0.1300
     37 H6          3.1503   -2.4026    3.6205 H         1 <0>         0.1356
     38 H7          0.3775   -1.4391    3.8189 H         1 <0>         0.1313
     39 H8         -0.4558   -2.9762    3.4855 H         1 <0>         0.1320
     40 H9          2.0590   -2.5880    5.1681 H         1 <0>         0.0811
     41 H10         0.4427   -3.0463    5.7561 H         1 <0>         0.1073
     42 H11         1.3718   -4.1726    4.7380 H         1 <0>         0.0805
     43 H12        -0.2381   -2.7042    1.1954 H         1 <0>         0.1434
     44 H13         0.6298   -1.1592    1.3622 H         1 <0>         0.1301
     45 H14         2.2199   -4.5017    0.8698 H         1 <0>         0.0627
     46 H15         0.7452   -4.5588   -0.1266 H         1 <0>         0.0911
     47 H16         3.5814   -4.0495   -1.1375 H         1 <0>         0.0652
     48 H17         2.6397   -5.5447   -1.3611 H         1 <0>         0.0790
     49 H18         2.5414   -4.0694   -3.3748 H         1 <0>         0.0795
     50 H19         0.9357   -4.3027   -2.6413 H         1 <0>         0.0802
     51 H20         2.7734   -1.9060   -2.1960 H         1 <0>         0.0424
     52 H21         1.3050   -1.9198   -3.2015 H         1 <0>         0.0945
     53 H22         0.2590   -0.4261   -0.0315 H         1 <0>         0.0980
     54 H23         1.6328   -0.0748   -1.1073 H         1 <0>         0.0911
     55 H24        -0.4789    0.6417   -4.8448 H         1 <0>         0.1348
     56 H25        -2.1325    1.4023   -6.4965 H         1 <0>         0.1412
     57 H26        -4.0894    2.7097   -5.7802 H         1 <0>         0.1425
     58 H27        -4.4332    3.2246   -3.4048 H         1 <0>         0.1431
     59 H28        -2.3100    2.8396    0.4921 H         1 <0>         0.4138
     60 H29         3.1355    3.2250   -1.0532 H         1 <0>         0.1728
     61 H30         1.9558    4.8012    0.4208 H         1 <0>         0.1545
     62 H31        -0.4866    4.5833    0.7172 H         1 <0>         0.1534
     63 H32         1.5754   -3.7264    2.4236 H         1 <0>         0.4239
@<TRIPOS>BOND
     1    1    2 1
     2    1   33 1
     3    1   34 1
     4    1   35 1
     5    2    3 1
     6    2   36 1
     7    2   37 1
     8    3    4 1
     9    3    6 1
    10    3   63 1
    11    4    5 1
    12    4   38 1
    13    4   39 1
    14    5   40 1
    15    5   41 1
    16    5   42 1
    17    6    7 1
    18    6   43 1
    19    6   44 1
    20    7    8 1
    21    7   13 1
    22    7    9 1
    23    9   10 1
    24    9   45 1
    25    9   46 1
    26   10   11 1
    27   10   47 1
    28   10   48 1
    29   11   12 1
    30   11   49 1
    31   11   50 1
    32   12   13 1
    33   12   51 1
    34   12   52 1
    35   13   14 1
    36   14   15 1
    37   14   53 1
    38   14   54 1
    39   15   16 2
    40   15   17 am
    41   17   28 1
    42   17   18 1
    43   18   23 ar
    44   18   19 ar
    45   19   20 ar
    46   19   55 1
    47   20   21 ar
    48   20   56 1
    49   21   22 ar
    50   21   57 1
    51   22   23 ar
    52   22   58 1
    53   23   24 1
    54   24   25 2
    55   24   26 am
    56   26   27 1
    57   26   59 1
    58   27   32 ar
    59   27   28 ar
    60   28   29 ar
    61   29   30 ar
    62   30   31 ar
    63   30   60 1
    64   31   32 ar
    65   31   61 1
    66   32   62 1
@<TRIPOS>MOLECULE
ZINC03936683
   54    58     0     0     0
SMALL
USER_CHARGES

@<TRIPOS>ATOM
      1 C1         -0.0161    1.3791    0.0139 C.ar      1 <0>        -0.1072
      2 C2          0.0881    0.1354    0.6081 C.ar      1 <0>        -0.1195
      3 C3          1.2942   -0.5398    0.5913 C.ar      1 <0>        -0.1025
      4 C4          2.3960    0.0285   -0.0201 C.ar      1 <0>        -0.1067
      5 C5          2.2916    1.2719   -0.6151 C.ar      1 <0>        -0.0987
      6 C6          1.0859    1.9477   -0.5971 C.ar      1 <0>        -0.1176
      7 C7          3.7112   -0.7071   -0.0376 C.3       1 <0>         0.2465
      8 H1          4.4779   -0.0690   -0.4769 H         1 <0>         0.1178
      9 C8          4.1045   -1.0655    1.3735 C.ar      1 <0>        -0.0920
     10 C9          4.5143   -0.0380    2.2125 C.ar      1 <0>        -0.1011
     11 C10         4.8763   -0.3016    3.5174 C.ar      1 <0>        -0.1131
     12 C11         4.8295   -1.5990    3.9930 C.ar      1 <0>        -0.1088
     13 C12         4.4268   -2.6211    3.1592 C.ar      1 <0>        -0.1180
     14 C13         4.0668   -2.3593    1.8427 C.ar      1 <0>        -0.0760
     15 C14         3.6633   -3.5285    0.9836 C.3       1 <0>        -0.0959
     16 C15         2.8595   -3.0609   -0.2287 C.3       1 <0>         0.0988
     17 N1          3.5762   -1.9293   -0.8374 N.am      1 <0>        -0.5753
     18 C16         4.0877   -2.0127   -2.0815 C.2       1 <0>         0.6539
     19 O1          4.6747   -1.0635   -2.5620 O.2       1 <0>        -0.5591
     20 O2          3.9482   -3.1478   -2.7920 O.3       1 <0>        -0.3491
     21 C17         4.5151   -3.1660   -4.1036 C.3       1 <0>         0.0967
     22 H2          4.5010   -2.1594   -4.5216 H         1 <0>         0.1228
     23 C18         5.9577   -3.6714   -4.0318 C.3       1 <0>        -0.0270
     24 N2          6.1041   -4.8865   -4.8366 N.4       1 <0>        -0.3731
     25 C19         5.8050   -4.6120   -6.2441 C.3       1 <0>        -0.0108
     26 C20         4.3573   -4.1377   -6.3893 C.3       1 <0>        -0.1360
     27 C21         3.7020   -4.1071   -5.0022 C.3       1 <0>        -0.0973
     28 C22         3.7681   -5.5203   -4.4080 C.3       1 <0>        -0.1345
     29 C23         5.2396   -5.9520   -4.3237 C.3       1 <0>        -0.0080
     30 H3         -0.9595    1.9047    0.0231 H         1 <0>         0.1263
     31 H4         -0.7727   -0.3087    1.0858 H         1 <0>         0.1258
     32 H5          1.3758   -1.5113    1.0562 H         1 <0>         0.1232
     33 H6          3.1526    1.7161   -1.0925 H         1 <0>         0.1247
     34 H7          1.0044    2.9193   -1.0616 H         1 <0>         0.1271
     35 H8          4.5496    0.9754    1.8408 H         1 <0>         0.1252
     36 H9          5.1952    0.5021    4.1646 H         1 <0>         0.1288
     37 H10         5.1079   -1.8116    5.0146 H         1 <0>         0.1274
     38 H11         4.3905   -3.6338    3.5328 H         1 <0>         0.1247
     39 H12         4.5586   -4.0478    0.6415 H         1 <0>         0.0793
     40 H13         3.0556   -4.2143    1.5739 H         1 <0>         0.0939
     41 H14         2.7730   -3.8739   -0.9496 H         1 <0>         0.0977
     42 H15         1.8668   -2.7410    0.0882 H         1 <0>         0.0907
     43 H16         6.6298   -2.9023   -4.4126 H         1 <0>         0.1437
     44 H17         6.2128   -3.8912   -2.9952 H         1 <0>         0.1372
     45 H18         6.4779   -3.8377   -6.6124 H         1 <0>         0.1331
     46 H19         5.9481   -5.5210   -6.8282 H         1 <0>         0.1353
     47 H20         4.3424   -3.1366   -6.8203 H         1 <0>         0.1049
     48 H21         3.8112   -4.8242   -7.0363 H         1 <0>         0.1117
     49 H22         2.6711   -3.7610   -5.0768 H         1 <0>         0.1268
     50 H23         3.3318   -5.5173   -3.4091 H         1 <0>         0.1060
     51 H24         3.2181   -6.2112   -5.0469 H         1 <0>         0.1046
     52 H25         5.3858   -6.8540   -4.9180 H         1 <0>         0.1332
     53 H26         5.4982   -6.1592   -3.2853 H         1 <0>         0.1301
     54 H27         7.0625   -5.1961   -4.7760 H         1 <0>         0.4295
@<TRIPOS>BOND
     1    1    6 ar
     2    1    2 ar
     3    1   30 1
     4    2    3 ar
     5    2   31 1
     6    3    4 ar
     7    3   32 1
     8    4    5 ar
     9    4    7 1
    10    5    6 ar
    11    5   33 1
    12    6   34 1
    13    7    8 1
    14    7   17 1
    15    7    9 1
    16    9   14 ar
    17    9   10 ar
    18   10   11 ar
    19   10   35 1
    20   11   12 ar
    21   11   36 1
    22   12   13 ar
    23   12   37 1
    24   13   14 ar
    25   13   38 1
    26   14   15 1
    27   15   16 1
    28   15   39 1
    29   15   40 1
    30   16   17 1
    31   16   41 1
    32   16   42 1
    33   17   18 am
    34   18   19 2
    35   18   20 1
    36   20   21 1
    37   21   22 1
    38   21   27 1
    39   21   23 1
    40   23   24 1
    41   23   43 1
    42   23   44 1
    43   24   29 1
    44   24   25 1
    45   24   54 1
    46   25   26 1
    47   25   45 1
    48   25   46 1
    49   26   27 1
    50   26   47 1
    51   26   48 1
    52   27   28 1
    53   27   49 1
    54   28   29 1
    55   28   50 1
    56   28   51 1
    57   29   52 1
    58   29   53 1
@<TRIPOS>MOLECULE
ZINC28090831
   39    40     0     0     0
SMALL
USER_CHARGES
2-(4-diethylaminobut-2-ynyl)isoindoline-1,3-dione
@<TRIPOS>ATOM
      1 C1         -0.8850   -3.0287   -2.2942 C.3       1 <0>        -0.1912
      2 C2         -1.8385   -2.6295   -1.1662 C.3       1 <0>        -0.0135
      3 N1         -1.3465   -3.1741    0.1064 N.4       1 <0>        -0.4014
      4 C3         -1.3095   -4.6422    0.0715 C.3       1 <0>        -0.0152
      5 C4         -2.7377   -5.1895    0.1114 C.3       1 <0>        -0.1883
      6 C5         -0.0268   -2.6220    0.4402 C.3       1 <0>         0.1284
      7 C6         -0.1506   -1.1787    0.7015 C.1       1 <0>        -0.2449
      8 C7         -0.2493   -0.0275    0.9099 C.1       1 <0>        -0.0773
      9 C8         -0.3730    1.4158    1.1711 C.3       1 <0>         0.2059
     10 N2          0.9431    1.9664    1.5041 N.am      1 <0>        -0.5810
     11 C9          1.4409    2.0478    2.7512 C.2       1 <0>         0.5778
     12 O1          0.8794    1.6815    3.7638 O.2       1 <0>        -0.4522
     13 C10         2.7869    2.6547    2.6824 C.ar      1 <0>        -0.1452
     14 C11         3.7525    2.9768    3.6226 C.ar      1 <0>        -0.0390
     15 C12         4.9421    3.5593    3.2141 C.ar      1 <0>        -0.0884
     16 C13         5.1712    3.8207    1.8762 C.ar      1 <0>        -0.0892
     17 C14         4.2145    3.5039    0.9245 C.ar      1 <0>        -0.0392
     18 C15         3.0205    2.9212    1.3182 C.ar      1 <0>        -0.1467
     19 C16         1.8106    2.4626    0.6035 C.2       1 <0>         0.5796
     20 O2          1.6299    2.5235   -0.5959 O.2       1 <0>        -0.4567
     21 H1         -1.2533   -2.6210   -3.2471 H         1 <0>         0.1068
     22 H2         -0.8338   -4.1255   -2.3600 H         1 <0>         0.0824
     23 H3          0.1176   -2.6266   -2.0864 H         1 <0>         0.0783
     24 H4         -1.8897   -1.5327   -1.1004 H         1 <0>         0.1281
     25 H5         -2.8411   -3.0316   -1.3740 H         1 <0>         0.1344
     26 H6         -0.8152   -4.9746   -0.8532 H         1 <0>         0.1324
     27 H7         -0.7493   -5.0157    0.9414 H         1 <0>         0.1336
     28 H8         -2.7099   -6.2888    0.0853 H         1 <0>         0.1086
     29 H9         -3.2979   -4.8161   -0.7585 H         1 <0>         0.0801
     30 H10        -3.2320   -4.8571    1.0361 H         1 <0>         0.0820
     31 H11         0.3648   -3.1247    1.3368 H         1 <0>         0.1527
     32 H12         0.6623   -2.7845   -0.4017 H         1 <0>         0.1484
     33 H13        -0.7645    1.9184    0.2744 H         1 <0>         0.1374
     34 H14        -1.0621    1.5784    2.0129 H         1 <0>         0.1381
     35 H15         3.5787    2.7752    4.6693 H         1 <0>         0.1460
     36 H16         5.6950    3.8111    3.9463 H         1 <0>         0.1485
     37 H17         6.1019    4.2752    1.5703 H         1 <0>         0.1483
     38 H18         4.3991    3.7100   -0.1195 H         1 <0>         0.1455
     39 H19        -2.0489   -2.8724    0.8974 H         1 <0>         0.4464
@<TRIPOS>BOND
     1    1    2 1
     2    1   21 1
     3    1   22 1
     4    1   23 1
     5    2    3 1
     6    2   24 1
     7    2   25 1
     8    3    4 1
     9    3    6 1
    10    3   39 1
    11    4    5 1
    12    4   26 1
    13    4   27 1
    14    5   28 1
    15    5   29 1
    16    5   30 1
    17    6    7 1
    18    6   31 1
    19    6   32 1
    20    7    8 3
    21    8    9 1
    22    9   10 1
    23    9   33 1
    24    9   34 1
    25   10   19 am
    26   10   11 am
    27   11   12 2
    28   11   13 1
    29   13   18 ar
    30   13   14 ar
    31   14   15 ar
    32   14   35 1
    33   15   16 ar
    34   15   36 1
    35   16   17 ar
    36   16   37 1
    37   17   18 ar
    38   17   38 1
    39   18   19 1
    40   19   20 2
@<TRIPOS>MOLECULE
ZINC28090831
   38    39     0     0     0
SMALL
USER_CHARGES
2-(4-diethylaminobut-2-ynyl)isoindoline-1,3-dione
@<TRIPOS>ATOM
      1 C1         -0.8850   -3.0287   -2.2942 C.3       1 <0>        -0.1966
      2 C2         -1.8385   -2.6295   -1.1662 C.3       1 <0>         0.0438
      3 N1         -1.3465   -3.1741    0.1064 N.3       1 <0>        -0.5327
      4 C3         -1.3095   -4.6422    0.0715 C.3       1 <0>         0.0424
      5 C4         -2.7377   -5.1895    0.1114 C.3       1 <0>        -0.1492
      6 C5         -0.0268   -2.6220    0.4402 C.3       1 <0>         0.1551
      7 C6         -0.1506   -1.1787    0.7015 C.1       1 <0>        -0.1239
      8 C7         -0.2493   -0.0275    0.9099 C.1       1 <0>        -0.2099
      9 C8         -0.3730    1.4158    1.1711 C.3       1 <0>         0.2305
     10 N2          0.9431    1.9664    1.5041 N.am      1 <0>        -0.5761
     11 C9          1.4409    2.0478    2.7512 C.2       1 <0>         0.5759
     12 O1          0.8794    1.6815    3.7638 O.2       1 <0>        -0.4557
     13 C10         2.7869    2.6547    2.6824 C.ar      1 <0>        -0.1403
     14 C11         3.7525    2.9768    3.6226 C.ar      1 <0>        -0.0435
     15 C12         4.9421    3.5593    3.2141 C.ar      1 <0>        -0.0940
     16 C13         5.1712    3.8207    1.8762 C.ar      1 <0>        -0.0942
     17 C14         4.2145    3.5039    0.9245 C.ar      1 <0>        -0.0437
     18 C15         3.0205    2.9212    1.3182 C.ar      1 <0>        -0.1407
     19 C16         1.8106    2.4626    0.6035 C.2       1 <0>         0.5760
     20 O2          1.6299    2.5235   -0.5959 O.2       1 <0>        -0.4566
     21 H1         -1.2533   -2.6210   -3.2471 H         1 <0>         0.0655
     22 H2         -0.8338   -4.1255   -2.3600 H         1 <0>         0.0612
     23 H3          0.1176   -2.6266   -2.0864 H         1 <0>         0.0563
     24 H4         -1.8897   -1.5327   -1.1004 H         1 <0>         0.0768
     25 H5         -2.8411   -3.0316   -1.3740 H         1 <0>         0.0821
     26 H6         -0.8152   -4.9746   -0.8532 H         1 <0>         0.0447
     27 H7         -0.7493   -5.0157    0.9414 H         1 <0>         0.0763
     28 H8         -2.7099   -6.2888    0.0853 H         1 <0>         0.0610
     29 H9         -3.2979   -4.8161   -0.7585 H         1 <0>         0.0553
     30 H10        -3.2320   -4.8571    1.0361 H         1 <0>         0.0641
     31 H11         0.3648   -3.1247    1.3368 H         1 <0>         0.1015
     32 H12         0.6623   -2.7845   -0.4017 H         1 <0>         0.0671
     33 H13        -0.7645    1.9184    0.2744 H         1 <0>         0.1226
     34 H14        -1.0621    1.5784    2.0129 H         1 <0>         0.1230
     35 H15         3.5787    2.7752    4.6693 H         1 <0>         0.1438
     36 H16         5.6950    3.8111    3.9463 H         1 <0>         0.1444
     37 H17         6.1019    4.2752    1.5703 H         1 <0>         0.1443
     38 H18         4.3991    3.7100   -0.1195 H         1 <0>         0.1435
@<TRIPOS>BOND
     1    1    2 1
     2    1   21 1
     3    1   22 1
     4    1   23 1
     5    2    3 1
     6    2   24 1
     7    2   25 1
     8    3    4 1
     9    3    6 1
    10    4    5 1
    11    4   26 1
    12    4   27 1
    13    5   28 1
    14    5   29 1
    15    5   30 1
    16    6    7 1
    17    6   31 1
    18    6   32 1
    19    7    8 3
    20    8    9 1
    21    9   10 1
    22    9   33 1
    23    9   34 1
    24   10   19 am
    25   10   11 am
    26   11   12 2
    27   11   13 1
    28   13   18 ar
    29   13   14 ar
    30   14   15 ar
    31   14   35 1
    32   15   16 ar
    33   15   36 1
    34   16   17 ar
    35   16   37 1
    36   17   18 ar
    37   17   38 1
    38   18   19 1
    39   19   20 2
@<TRIPOS>MOLECULE
ZINC00534283
   47    51     0     0     0
SMALL
USER_CHARGES

@<TRIPOS>ATOM
      1 C1         -0.0167    1.3773    0.0096 C.ar      1 <0>        -0.1352
      2 C2          1.1710    2.0858    0.0021 C.ar      1 <0>        -0.0708
      3 C3          2.3757    1.4127   -0.0135 C.ar      1 <0>        -0.1321
      4 C4          2.3983    0.0222   -0.0208 C.ar      1 <0>         0.1292
      5 C5          1.2072   -0.6846   -0.0124 C.ar      1 <0>        -0.1524
      6 C6          0.0021   -0.0041    0.0020 C.ar      1 <0>        -0.0643
      7 C7          1.2044   -2.1890   -0.0170 C.3       1 <0>         0.0245
      8 C8          2.5426   -2.7202   -0.4529 C.ar      1 <0>        -0.1664
      9 C9          2.6467   -4.0361   -0.8694 C.ar      1 <0>        -0.0674
     10 C10         3.8668   -4.5433   -1.2724 C.ar      1 <0>        -0.1443
     11 C11         4.9900   -3.7367   -1.2609 C.ar      1 <0>        -0.0718
     12 C12         4.8920   -2.4237   -0.8471 C.ar      1 <0>        -0.1348
     13 C13         3.6655   -1.9096   -0.4406 C.ar      1 <0>         0.1337
     14 O1          3.5912   -0.6193   -0.0349 O.3       1 <0>        -0.2413
     15 C14         0.8998   -2.6893    1.3715 C.2       1 <0>         0.4704
     16 O2          0.7059   -1.9029    2.2681 O.2       1 <0>        -0.4748
     17 O3          0.8438   -4.0086    1.6123 O.3       1 <0>        -0.3333
     18 C15         0.5502   -4.4119    2.9514 C.3       1 <0>         0.0747
     19 H1         -0.0780   -3.6604    3.4297 H         1 <0>         0.1193
     20 C16         1.8538   -4.5665    3.7379 C.3       1 <0>        -0.0267
     21 N1          1.9882   -5.9431    4.2203 N.4       1 <0>        -0.3724
     22 C17         2.0403   -6.8807    3.0960 C.3       1 <0>        -0.0087
     23 C18         0.7429   -6.8028    2.2881 C.3       1 <0>        -0.1364
     24 C19        -0.1833   -5.7594    2.9335 C.3       1 <0>        -0.0957
     25 C20        -0.4515   -6.1836    4.3835 C.3       1 <0>        -0.1351
     26 C21         0.8869   -6.2825    5.1245 C.3       1 <0>        -0.0108
     27 H2         -0.9593    1.9042    0.0259 H         1 <0>         0.1351
     28 H3          1.1557    3.1657    0.0081 H         1 <0>         0.1408
     29 H4          3.3027    1.9668   -0.0205 H         1 <0>         0.1408
     30 H5         -0.9269   -0.5549    0.0079 H         1 <0>         0.1280
     31 H6          0.4357   -2.5448   -0.7030 H         1 <0>         0.1338
     32 H7          1.7712   -4.6684   -0.8790 H         1 <0>         0.1337
     33 H8          3.9436   -5.5707   -1.5963 H         1 <0>         0.1333
     34 H9          5.9436   -4.1341   -1.5754 H         1 <0>         0.1395
     35 H10         5.7697   -1.7944   -0.8387 H         1 <0>         0.1412
     36 H11         2.6973   -4.3261    3.0908 H         1 <0>         0.1370
     37 H12         1.8464   -3.8845    4.5881 H         1 <0>         0.1418
     38 H13         2.8828   -6.6273    2.4525 H         1 <0>         0.1309
     39 H14         2.1695   -7.8941    3.4759 H         1 <0>         0.1337
     40 H15         0.9679   -6.5066    1.2635 H         1 <0>         0.1079
     41 H16         0.2526   -7.7763    2.2897 H         1 <0>         0.1046
     42 H17        -1.1132   -5.6758    2.3710 H         1 <0>         0.1271
     43 H18        -1.0837   -5.4411    4.8703 H         1 <0>         0.1041
     44 H19        -0.9491   -7.1534    4.3943 H         1 <0>         0.1120
     45 H20         1.0224   -7.2991    5.4938 H         1 <0>         0.1359
     46 H21         0.8844   -5.5908    5.9670 H         1 <0>         0.1324
     47 H22         2.8553   -6.0194    4.7305 H         1 <0>         0.4296
@<TRIPOS>BOND
     1    1    6 ar
     2    1    2 ar
     3    1   27 1
     4    2    3 ar
     5    2   28 1
     6    3    4 ar
     7    3   29 1
     8    4   14 1
     9    4    5 ar
    10    5    6 ar
    11    5    7 1
    12    6   30 1
    13    7    8 1
    14    7   15 1
    15    7   31 1
    16    8   13 ar
    17    8    9 ar
    18    9   10 ar
    19    9   32 1
    20   10   11 ar
    21   10   33 1
    22   11   12 ar
    23   11   34 1
    24   12   13 ar
    25   12   35 1
    26   13   14 1
    27   15   16 2
    28   15   17 1
    29   17   18 1
    30   18   19 1
    31   18   24 1
    32   18   20 1
    33   20   21 1
    34   20   36 1
    35   20   37 1
    36   21   26 1
    37   21   22 1
    38   21   47 1
    39   22   23 1
    40   22   38 1
    41   22   39 1
    42   23   24 1
    43   23   40 1
    44   23   41 1
    45   24   25 1
    46   24   42 1
    47   25   26 1
    48   25   43 1
    49   25   44 1
    50   26   45 1
    51   26   46 1
@<TRIPOS>MOLECULE
ZINC13674440
   55    59     0     0     0
SMALL
USER_CHARGES
[(3R)-quinuclidin-3-yl] (1S,4R)-4-hydroxy-1-phenyl-3,4-dihydro-1H-isoquinoline-2-carboxylate
@<TRIPOS>ATOM
      1 C1          1.0999    5.7537    4.5798 C.ar      1 <0>        -0.1059
      2 C2          0.3558    4.9302    3.7558 C.ar      1 <0>        -0.1187
      3 C3          0.9861    4.1627    2.7942 C.ar      1 <0>        -0.1019
      4 C4          2.3605    4.2184    2.6570 C.ar      1 <0>        -0.1091
      5 C5          3.1051    5.0377    3.4848 C.ar      1 <0>        -0.0977
      6 C6          2.4743    5.8091    4.4429 C.ar      1 <0>        -0.1180
      7 C7          3.0477    3.3814    1.6091 C.3       1 <0>         0.2440
      8 H1          4.1278    3.4851    1.7128 H         1 <0>         0.1211
      9 C8          2.6634    1.9344    1.7911 C.ar      1 <0>        -0.0814
     10 C9          3.1723    1.2633    2.8948 C.ar      1 <0>        -0.1007
     11 C10         2.8495   -0.0588    3.1208 C.ar      1 <0>        -0.1064
     12 C11         2.0121   -0.7198    2.2412 C.ar      1 <0>        -0.1070
     13 C12         1.5094   -0.0554    1.1423 C.ar      1 <0>        -0.1139
     14 C13         1.8362    1.2753    0.9099 C.ar      1 <0>        -0.1146
     15 C14         1.2583    1.9321   -0.3160 C.3       1 <0>         0.1378
     16 H2          1.8381    1.6328   -1.1892 H         1 <0>         0.0684
     17 C15         1.2948    3.4540   -0.1862 C.3       1 <0>         0.1079
     18 N1          2.6394    3.8366    0.2757 N.am      1 <0>        -0.5746
     19 C16         3.4621    4.5749   -0.4955 C.2       1 <0>         0.6574
     20 O1          4.5669    4.8767   -0.0897 O.2       1 <0>        -0.5560
     21 O2          3.0596    4.9779   -1.7154 O.3       1 <0>        -0.3529
     22 C17         3.9976    5.7699   -2.4907 C.3       1 <0>         0.0990
     23 H3          4.6289    6.3504   -1.8180 H         1 <0>         0.1257
     24 C18         4.8707    4.8434   -3.3420 C.3       1 <0>        -0.0201
     25 C19         5.1029    6.5428   -5.0527 C.3       1 <0>        -0.0048
     26 C20         4.2372    7.5178   -4.2497 C.3       1 <0>        -0.1337
     27 C21         3.2266    6.7155   -3.4203 C.3       1 <0>        -0.0982
     28 C22         2.3701    5.8730   -4.3740 C.3       1 <0>        -0.1357
     29 C23         3.2882    4.9440   -5.1734 C.3       1 <0>        -0.0020
     30 O3         -0.0958    1.5070   -0.4828 O.3       1 <0>        -0.5530
     31 H4          0.6074    6.3536    5.3308 H         1 <0>         0.1268
     32 H5         -0.7180    4.8866    3.8630 H         1 <0>         0.1264
     33 H6          0.4048    3.5192    2.1504 H         1 <0>         0.1247
     34 H7          4.1793    5.0779    3.3805 H         1 <0>         0.1252
     35 H8          3.0556    6.4523    5.0869 H         1 <0>         0.1275
     36 H9          3.8261    1.7802    3.5817 H         1 <0>         0.1282
     37 H10         3.2488   -0.5751    3.9811 H         1 <0>         0.1315
     38 H11         1.7527   -1.7538    2.4142 H         1 <0>         0.1301
     39 H12         0.8557   -0.5736    0.4564 H         1 <0>         0.1232
     40 H13         1.0934    3.9117   -1.1548 H         1 <0>         0.1046
     41 H14         0.5484    3.7804    0.5381 H         1 <0>         0.1007
     42 H15         5.9180    4.9828   -3.0738 H         1 <0>         0.1432
     43 H16         4.5842    3.8072   -3.1622 H         1 <0>         0.1357
     44 H17         6.1487    6.6698   -4.7729 H         1 <0>         0.1316
     45 H18         4.9840    6.7431   -6.1175 H         1 <0>         0.1337
     46 H19         3.7052    8.1808   -4.9319 H         1 <0>         0.1124
     47 H20         4.8700    8.1059   -3.5851 H         1 <0>         0.1056
     48 H21         2.5918    7.3810   -2.8353 H         1 <0>         0.1265
     49 H22         1.8307    6.5294   -5.0568 H         1 <0>         0.1052
     50 H23         1.6603    5.2785   -3.7988 H         1 <0>         0.1069
     51 H24         3.1843    5.1573   -6.2372 H         1 <0>         0.1317
     52 H25         3.0128    3.9070   -4.9817 H         1 <0>         0.1282
     53 H26        -0.1993    0.5497   -0.5723 H         1 <0>         0.3874
     54 N2          4.6983    5.1474   -4.7789 N.4       1 <0>        -0.3887
     55 H27         5.2925    4.5143   -5.3270 H         1 <0>         0.4367
@<TRIPOS>BOND
     1    1    6 ar
     2    1    2 ar
     3    1   31 1
     4    2    3 ar
     5    2   32 1
     6    3    4 ar
     7    3   33 1
     8    4    5 ar
     9    4    7 1
    10    5    6 ar
    11    5   34 1
    12    6   35 1
    13    7    8 1
    14    7   18 1
    15    7    9 1
    16    9   14 ar
    17    9   10 ar
    18   10   11 ar
    19   10   36 1
    20   11   12 ar
    21   11   37 1
    22   12   13 ar
    23   12   38 1
    24   13   14 ar
    25   13   39 1
    26   14   15 1
    27   15   16 1
    28   15   17 1
    29   15   30 1
    30   17   18 1
    31   17   40 1
    32   17   41 1
    33   18   19 am
    34   19   20 2
    35   19   21 1
    36   21   22 1
    37   22   23 1
    38   22   27 1
    39   22   24 1
    40   24   42 1
    41   24   43 1
    42   24   54 1
    43   25   26 1
    44   25   44 1
    45   25   45 1
    46   25   54 1
    47   26   27 1
    48   26   46 1
    49   26   47 1
    50   27   28 1
    51   27   48 1
    52   28   29 1
    53   28   49 1
    54   28   50 1
    55   29   51 1
    56   29   52 1
    57   29   54 1
    58   30   53 1
    59   54   55 1
@<TRIPOS>MOLECULE
ZINC00492792
   28    29     0     0     0
SMALL
USER_CHARGES

@<TRIPOS>ATOM
      1 C1         -0.0184    1.5028    0.0103 C.3       1 <0>        -0.1507
      2 C2          0.0021   -0.0041    0.0020 C.2       1 <0>         0.4617
      3 O1          1.0565   -0.5939   -0.0112 O.2       1 <0>        -0.4976
      4 O2         -1.1511   -0.6910    0.0093 O.3       1 <0>        -0.3413
      5 C3         -1.0570   -2.1168    0.0008 C.3       1 <0>         0.0740
      6 H1         -0.1406   -2.4254    0.5039 H         1 <0>         0.1192
      7 C4         -1.0436   -2.6212   -1.4440 C.3       1 <0>        -0.0258
      8 N1         -2.1853   -3.5092   -1.6758 N.4       1 <0>        -0.3730
      9 C5         -2.1124   -4.6819   -0.8010 C.3       1 <0>        -0.0109
     10 C6         -2.1611   -4.2459    0.6651 C.3       1 <0>        -0.1372
     11 C7         -2.2688   -2.7165    0.7262 C.3       1 <0>        -0.0970
     12 C8         -3.5392   -2.2936   -0.0230 C.3       1 <0>        -0.1352
     13 C9         -3.4462   -2.7917   -1.4728 C.3       1 <0>        -0.0082
     14 H2          1.0042    1.8801    0.0026 H         1 <0>         0.1107
     15 H3         -0.5455    1.8639   -0.8728 H         1 <0>         0.1059
     16 H4         -0.5286    1.8543    0.9071 H         1 <0>         0.1083
     17 H5         -1.1023   -1.7716   -2.1242 H         1 <0>         0.1374
     18 H6         -0.1180   -3.1666   -1.6281 H         1 <0>         0.1421
     19 H7         -2.9541   -5.3420   -1.0102 H         1 <0>         0.1357
     20 H8         -1.1808   -5.2158   -0.9888 H         1 <0>         0.1328
     21 H9         -3.0288   -4.6929    1.1504 H         1 <0>         0.1116
     22 H10        -1.2510   -4.5667    1.1720 H         1 <0>         0.1041
     23 H11        -2.2938   -2.3788    1.7623 H         1 <0>         0.1265
     24 H12        -4.4119   -2.7319    0.4612 H         1 <0>         0.1047
     25 H13        -3.6227   -1.2068   -0.0162 H         1 <0>         0.1079
     26 H14        -3.4916   -1.9409   -2.1526 H         1 <0>         0.1310
     27 H15        -4.2808   -3.4619   -1.6787 H         1 <0>         0.1334
     28 H16        -2.1511   -3.8304   -2.6317 H         1 <0>         0.4298
@<TRIPOS>BOND
     1    1    2 1
     2    1   14 1
     3    1   15 1
     4    1   16 1
     5    2    3 2
     6    2    4 1
     7    4    5 1
     8    5    6 1
     9    5   11 1
    10    5    7 1
    11    7    8 1
    12    7   17 1
    13    7   18 1
    14    8   13 1
    15    8    9 1
    16    8   28 1
    17    9   10 1
    18    9   19 1
    19    9   20 1
    20   10   11 1
    21   10   21 1
    22   10   22 1
    23   11   12 1
    24   11   23 1
    25   12   13 1
    26   12   24 1
    27   12   25 1
    28   13   26 1
    29   13   27 1
@<TRIPOS>MOLECULE
ZINC01089661
   28    29     0     0     0
SMALL
USER_CHARGES

@<TRIPOS>ATOM
      1 C1         -0.0184    1.5028    0.0103 C.3       1 <0>        -0.1507
      2 C2          0.0021   -0.0041    0.0020 C.2       1 <0>         0.4617
      3 O1          1.0565   -0.5939   -0.0112 O.2       1 <0>        -0.4975
      4 O2         -1.1511   -0.6910    0.0093 O.3       1 <0>        -0.3414
      5 C3         -1.0570   -2.1168    0.0008 C.3       1 <0>         0.0738
      6 H1         -0.1504   -2.4199   -0.5230 H         1 <0>         0.1192
      7 C4         -1.0161   -2.6367    1.4395 C.3       1 <0>        -0.0258
      8 N1         -2.1528   -3.5279    1.6833 N.4       1 <0>        -0.3729
      9 C5         -3.4175   -2.8089    1.5124 C.3       1 <0>        -0.0083
     10 C6         -3.5382   -2.2946    0.0762 C.3       1 <0>        -0.1370
     11 C7         -2.2824   -2.7088   -0.7078 C.3       1 <0>        -0.0970
     12 C8         -2.1720   -4.2387   -0.6685 C.3       1 <0>        -0.1356
     13 C9         -2.0963   -4.6908    0.7944 C.3       1 <0>        -0.0107
     14 H2          1.0042    1.8801    0.0026 H         1 <0>         0.1107
     15 H3         -0.5455    1.8639   -0.8728 H         1 <0>         0.1083
     16 H4         -0.5286    1.8543    0.9071 H         1 <0>         0.1059
     17 H5         -0.0869   -3.1835    1.6002 H         1 <0>         0.1422
     18 H6         -1.0623   -1.7945    2.1299 H         1 <0>         0.1374
     19 H7         -4.2479   -3.4818    1.7266 H         1 <0>         0.1335
     20 H8         -3.4503   -1.9657    2.2025 H         1 <0>         0.1310
     21 H9         -4.4210   -2.7278   -0.3940 H         1 <0>         0.1044
     22 H10        -3.6217   -1.2078    0.0831 H         1 <0>         0.1080
     23 H11        -2.3372   -2.3458   -1.7341 H         1 <0>         0.1267
     24 H12        -3.0477   -4.6805   -1.1439 H         1 <0>         0.1117
     25 H13        -1.2706   -4.5534   -1.1944 H         1 <0>         0.1042
     26 H14        -1.1610   -5.2261    0.9583 H         1 <0>         0.1327
     27 H15        -2.9335   -5.3538    1.0125 H         1 <0>         0.1357
     28 H16        -2.1050   -3.8527    2.6374 H         1 <0>         0.4299
@<TRIPOS>BOND
     1    1    2 1
     2    1   14 1
     3    1   15 1
     4    1   16 1
     5    2    3 2
     6    2    4 1
     7    4    5 1
     8    5    6 1
     9    5   11 1
    10    5    7 1
    11    7    8 1
    12    7   17 1
    13    7   18 1
    14    8   13 1
    15    8    9 1
    16    8   28 1
    17    9   10 1
    18    9   19 1
    19    9   20 1
    20   10   11 1
    21   10   21 1
    22   10   22 1
    23   11   12 1
    24   11   23 1
    25   12   13 1
    26   12   24 1
    27   12   25 1
    28   13   26 1
    29   13   27 1
@<TRIPOS>MOLECULE
ZINC01532358
   43    44     0     0     0
SMALL
USER_CHARGES
3-(4-hexoxy-1,2,5-thiadiazol-3-yl)-1-methyl-5,6-dihydro-2H-pyridine
@<TRIPOS>ATOM
      1 C1          1.0740    2.6512    2.3197 C.3       1 <0>        -0.1554
      2 C2          0.1951    2.9518    1.1039 C.3       1 <0>        -0.1278
      3 C3          0.7800    2.2634   -0.1309 C.3       1 <0>        -0.1171
      4 C4         -0.0989    2.5640   -1.3467 C.3       1 <0>        -0.1207
      5 C5          0.4860    1.8755   -2.5815 C.3       1 <0>        -0.1161
      6 C6         -0.3928    2.1761   -3.7973 C.3       1 <0>         0.0610
      7 O1          0.1535    1.5331   -4.9507 O.3       1 <0>        -0.2935
      8 C7         -0.5121    1.7004   -6.1236 C.2       1 <0>         0.2720
      9 C8         -0.0861    1.1341   -7.3225 C.2       1 <0>         0.0553
     10 N1         -0.8263    1.3704   -8.3866 N.2       1 <0>        -0.4586
     11 S1         -2.0045    2.2848   -7.8798 S.3       1 <0>         0.5746
     12 N2         -1.6125    2.4167   -6.2258 N.2       1 <0>        -0.5044
     13 C9          1.1340    0.3040   -7.3965 C.2       1 <0>        -0.0891
     14 C10         1.5480   -0.0981   -8.5783 C.2       1 <0>        -0.0908
     15 C11         2.7753   -0.9465   -8.7629 C.3       1 <0>        -0.1216
     16 C12         3.6271   -0.9079   -7.4915 C.3       1 <0>        -0.0055
     17 C13         1.8402   -0.0463   -6.1184 C.3       1 <0>         0.0501
     18 C14         3.5479   -1.4488   -5.1301 C.3       1 <0>        -0.0400
     19 H1          2.0826    3.0233    2.1398 H         1 <0>         0.0541
     20 H2          0.6573    3.1417    3.1994 H         1 <0>         0.0574
     21 H3          1.1082    1.5746    2.4860 H         1 <0>         0.0539
     22 H4          0.1609    4.0285    0.9376 H         1 <0>         0.0631
     23 H5         -0.8135    2.5797    1.2838 H         1 <0>         0.0630
     24 H6          0.8142    1.1867    0.0354 H         1 <0>         0.0628
     25 H7          1.7886    2.6355   -0.3108 H         1 <0>         0.0632
     26 H8         -1.1075    2.1919   -1.1668 H         1 <0>         0.0694
     27 H9         -0.1331    3.6407   -1.5130 H         1 <0>         0.0697
     28 H10         1.4947    2.2476   -2.7614 H         1 <0>         0.0748
     29 H11         0.5203    0.7988   -2.4152 H         1 <0>         0.0733
     30 H12        -1.4014    1.8040   -3.6174 H         1 <0>         0.0767
     31 H13        -0.4270    3.2528   -3.9636 H         1 <0>         0.0770
     32 H14         0.9858    0.1967   -9.4520 H         1 <0>         0.1508
     33 H15         3.3586   -0.5672   -9.6019 H         1 <0>         0.1303
     34 H16         2.4741   -1.9741   -8.9666 H         1 <0>         0.1120
     35 H17         4.0838    0.0762   -7.3865 H         1 <0>         0.1344
     36 H18         4.4035   -1.6708   -7.5478 H         1 <0>         0.1386
     37 H19         2.4078    0.8170   -5.7712 H         1 <0>         0.1459
     38 H20         1.1040   -0.3192   -5.3623 H         1 <0>         0.1468
     39 H21         2.8803   -1.6945   -4.3043 H         1 <0>         0.1241
     40 H22         4.2168   -2.2885   -5.3187 H         1 <0>         0.1259
     41 H23         4.1350   -0.5673   -4.8728 H         1 <0>         0.1244
     42 N3          2.7409   -1.1920   -6.3446 N.4       1 <0>        -0.3957
     43 H24         2.1782   -2.0249   -6.5541 H         1 <0>         0.4318
@<TRIPOS>BOND
     1    1    2 1
     2    1   19 1
     3    1   20 1
     4    1   21 1
     5    2    3 1
     6    2   22 1
     7    2   23 1
     8    3    4 1
     9    3   24 1
    10    3   25 1
    11    4    5 1
    12    4   26 1
    13    4   27 1
    14    5    6 1
    15    5   28 1
    16    5   29 1
    17    6    7 1
    18    6   30 1
    19    6   31 1
    20    7    8 1
    21    8   12 2
    22    8    9 1
    23    9   10 2
    24    9   13 1
    25   10   11 1
    26   11   12 1
    27   13   17 1
    28   13   14 2
    29   14   15 1
    30   14   32 1
    31   15   16 1
    32   15   33 1
    33   15   34 1
    34   16   35 1
    35   16   36 1
    36   16   42 1
    37   17   37 1
    38   17   38 1
    39   17   42 1
    40   18   39 1
    41   18   40 1
    42   18   41 1
    43   18   42 1
    44   42   43 1
@<TRIPOS>MOLECULE
ZINC01547932
   33    33     0     0     0
SMALL
USER_CHARGES

@<TRIPOS>ATOM
      1 C1         -0.0178    1.4648    0.0101 C.3       1 <0>        -0.0459
      2 N1          0.0021   -0.0041    0.0020 N.4       1 <0>        -0.2730
      3 C2          0.7126   -0.4907    1.1921 C.3       1 <0>        -0.0460
      4 C3         -1.3761   -0.5125    0.0124 C.3       1 <0>        -0.0446
      5 C4          0.6897   -0.4778   -1.2066 C.3       1 <0>         0.1335
      6 C5          2.0706    0.0317   -1.2170 C.1       1 <0>        -0.2619
      7 C6          3.1720    0.4380   -1.2254 C.1       1 <0>        -0.0715
      8 C7          4.5530    0.9475   -1.2358 C.3       1 <0>         0.2174
      9 N2          5.2387    0.4751   -2.4411 N.am      1 <0>        -0.6239
     10 C8          5.9904   -0.7825   -2.5271 C.3       1 <0>         0.0986
     11 C9          6.1482   -1.0660   -4.0374 C.3       1 <0>        -0.1329
     12 C10         6.0500    0.3559   -4.6370 C.3       1 <0>        -0.1565
     13 C11         5.2554    1.1349   -3.6121 C.2       1 <0>         0.5206
     14 O1          4.7144    2.2010   -3.8165 O.2       1 <0>        -0.5253
     15 H1          1.0047    1.8421    0.0024 H         1 <0>         0.1193
     16 H2         -0.5450    1.8259   -0.8730 H         1 <0>         0.1219
     17 H3         -0.5280    1.8163    0.9069 H         1 <0>         0.1248
     18 H4          0.2024   -0.1392    2.0889 H         1 <0>         0.1245
     19 H5          0.7273   -1.5806    1.1861 H         1 <0>         0.1234
     20 H6          1.7352   -0.1134    1.1844 H         1 <0>         0.1187
     21 H7         -1.9033   -0.1515   -0.8706 H         1 <0>         0.1240
     22 H8         -1.3613   -1.6024    0.0064 H         1 <0>         0.1246
     23 H9         -1.8863   -0.1610    0.9092 H         1 <0>         0.1263
     24 H10         0.7044   -1.5677   -1.2126 H         1 <0>         0.1474
     25 H11         0.1625   -0.1167   -2.0897 H         1 <0>         0.1460
     26 H12         4.5382    2.0374   -1.2298 H         1 <0>         0.1219
     27 H13         5.0802    0.5865   -0.3528 H         1 <0>         0.1228
     28 H14         6.9689   -0.6697   -2.0602 H         1 <0>         0.0835
     29 H15         5.4339   -1.5881   -2.0482 H         1 <0>         0.0804
     30 H16         7.1191   -1.5132   -4.2510 H         1 <0>         0.0993
     31 H17         5.3398   -1.6998   -4.4019 H         1 <0>         0.0827
     32 H18         7.0434    0.7864   -4.7628 H         1 <0>         0.1133
     33 H19         5.5200    0.3326   -5.5892 H         1 <0>         0.1066
@<TRIPOS>BOND
     1    1    2 1
     2    1   15 1
     3    1   16 1
     4    1   17 1
     5    2    3 1
     6    2    4 1
     7    2    5 1
     8    3   18 1
     9    3   19 1
    10    3   20 1
    11    4   21 1
    12    4   22 1
    13    4   23 1
    14    5    6 1
    15    5   24 1
    16    5   25 1
    17    6    7 3
    18    7    8 1
    19    8    9 1
    20    8   26 1
    21    8   27 1
    22    9   13 am
    23    9   10 1
    24   10   11 1
    25   10   28 1
    26   10   29 1
    27   11   12 1
    28   11   30 1
    29   11   31 1
    30   12   13 1
    31   12   32 1
    32   12   33 1
    33   13   14 2
@<TRIPOS>MOLECULE
ZINC02003680
   52    53     0     0     0
SMALL
USER_CHARGES

@<TRIPOS>ATOM
      1 C1         -2.8165    1.1642    1.4065 C.3       1 <0>        -0.1875
      2 C2         -2.7146   -0.3619    1.3665 C.3       1 <0>        -0.0188
      3 N1         -2.0186   -0.7743    0.1404 N.4       1 <0>        -0.3886
      4 C3         -0.6312   -0.2930    0.1794 C.3       1 <0>        -0.0160
      5 C4          0.0456   -0.5785   -1.1627 C.3       1 <0>        -0.1890
      6 C5         -2.0259   -2.2400    0.0425 C.3       1 <0>        -0.0058
      7 C6         -3.4631   -2.7318   -0.1398 C.3       1 <0>         0.0280
      8 O1         -3.9776   -2.2496   -1.3827 O.3       1 <0>        -0.3604
      9 C7         -5.2664   -2.5112   -1.6514 C.2       1 <0>         0.4820
     10 O2         -5.9601   -3.0473   -0.8200 O.2       1 <0>        -0.4701
     11 C8         -5.8482   -2.1362   -2.9900 C.3       1 <0>         0.0449
     12 C9         -5.1392   -2.9244   -4.0932 C.3       1 <0>        -0.1469
     13 C10        -7.3197   -2.4610   -3.0070 C.ar      1 <0>        -0.0913
     14 C11        -8.2400   -1.4815   -3.3303 C.ar      1 <0>        -0.1015
     15 C12        -9.5898   -1.7795   -3.3459 C.ar      1 <0>        -0.1207
     16 C13       -10.0192   -3.0570   -3.0386 C.ar      1 <0>        -0.1045
     17 C14        -9.0988   -4.0367   -2.7162 C.ar      1 <0>        -0.1195
     18 C15        -7.7487   -3.7398   -2.7048 C.ar      1 <0>        -0.0838
     19 C16        -5.6569   -0.6600   -3.2251 C.ar      1 <0>        -0.0827
     20 C17        -6.0947    0.2524   -2.2834 C.ar      1 <0>        -0.1162
     21 C18        -5.9192    1.6065   -2.4990 C.ar      1 <0>        -0.1175
     22 C19        -5.3056    2.0482   -3.6562 C.ar      1 <0>        -0.1106
     23 C20        -4.8669    1.1359   -4.5976 C.ar      1 <0>        -0.1125
     24 C21        -5.0386   -0.2184   -4.3799 C.ar      1 <0>        -0.1044
     25 H1         -3.3330    1.4702    2.3163 H         1 <0>         0.1073
     26 H2         -1.8156    1.5956    1.3942 H         1 <0>         0.0821
     27 H3         -3.3736    1.5140    0.5373 H         1 <0>         0.0808
     28 H4         -2.1575   -0.7117    2.2357 H         1 <0>         0.1327
     29 H5         -3.7155   -0.7933    1.3788 H         1 <0>         0.1272
     30 H6         -0.6242    0.7804    0.3688 H         1 <0>         0.1340
     31 H7         -0.0910   -0.8059    0.9751 H         1 <0>         0.1306
     32 H8         -0.0023   -1.6468   -1.3738 H         1 <0>         0.0799
     33 H9         -0.4668   -0.0288   -1.9522 H         1 <0>         0.0819
     34 H10         1.0881   -0.2633   -1.1183 H         1 <0>         0.1072
     35 H11        -1.4246   -2.5500   -0.8121 H         1 <0>         0.1454
     36 H12        -1.6086   -2.6671    0.9544 H         1 <0>         0.1511
     37 H13        -3.4770   -3.8217   -0.1392 H         1 <0>         0.1151
     38 H14        -4.0808   -2.3601    0.6778 H         1 <0>         0.0934
     39 H15        -5.2776   -3.9921   -3.9231 H         1 <0>         0.0716
     40 H16        -5.5600   -2.6531   -5.0614 H         1 <0>         0.0870
     41 H17        -4.0749   -2.6894   -4.0809 H         1 <0>         0.0764
     42 H18        -7.9046   -0.4834   -3.5704 H         1 <0>         0.1271
     43 H19       -10.3089   -1.0141   -3.5978 H         1 <0>         0.1267
     44 H20       -11.0738   -3.2896   -3.0501 H         1 <0>         0.1270
     45 H21        -9.4343   -5.0347   -2.4758 H         1 <0>         0.1268
     46 H22        -7.0294   -4.5062   -2.4565 H         1 <0>         0.1182
     47 H23        -6.5742   -0.0928   -1.3793 H         1 <0>         0.1182
     48 H24        -6.2619    2.3193   -1.7636 H         1 <0>         0.1264
     49 H25        -5.1691    3.1062   -3.8250 H         1 <0>         0.1276
     50 H26        -4.3878    1.4810   -5.5018 H         1 <0>         0.1297
     51 H27        -4.6926   -0.9314   -5.1137 H         1 <0>         0.1336
     52 H28        -2.4884   -0.3813   -0.6614 H         1 <0>         0.4285
@<TRIPOS>BOND
     1    1    2 1
     2    1   25 1
     3    1   26 1
     4    1   27 1
     5    2    3 1
     6    2   28 1
     7    2   29 1
     8    3    4 1
     9    3    6 1
    10    3   52 1
    11    4    5 1
    12    4   30 1
    13    4   31 1
    14    5   32 1
    15    5   33 1
    16    5   34 1
    17    6    7 1
    18    6   35 1
    19    6   36 1
    20    7    8 1
    21    7   37 1
    22    7   38 1
    23    8    9 1
    24    9   10 2
    25    9   11 1
    26   11   12 1
    27   11   13 1
    28   11   19 1
    29   12   39 1
    30   12   40 1
    31   12   41 1
    32   13   18 ar
    33   13   14 ar
    34   14   15 ar
    35   14   42 1
    36   15   16 ar
    37   15   43 1
    38   16   17 ar
    39   16   44 1
    40   17   18 ar
    41   17   45 1
    42   18   46 1
    43   19   24 ar
    44   19   20 ar
    45   20   21 ar
    46   20   47 1
    47   21   22 ar
    48   21   48 1
    49   22   23 ar
    50   22   49 1
    51   23   24 ar
    52   23   50 1
    53   24   51 1
@<TRIPOS>MOLECULE
ZINC03921860
  108   109     0     0     0
SMALL
USER_CHARGES

@<TRIPOS>ATOM
      1 C1         -0.0173    1.4248    0.0099 C.3       1 <0>         0.0218
      2 O1          0.0021   -0.0041    0.0020 O.3       1 <0>        -0.3317
      3 C2          0.6258   -0.6184    1.0415 C.ar      1 <0>         0.1495
      4 C3          1.2023    0.1385    2.0514 C.ar      1 <0>        -0.2024
      5 C4          1.8353   -0.4882    3.1070 C.ar      1 <0>        -0.0386
      6 C5          1.8947   -1.8689    3.1579 C.ar      1 <0>        -0.1481
      7 C6          1.3214   -2.6252    2.1527 C.ar      1 <0>        -0.0531
      8 C7          0.6822   -2.0032    1.0975 C.ar      1 <0>        -0.2056
      9 C8          0.0521   -2.8284    0.0053 C.3       1 <0>         0.0590
     10 N1          0.9527   -2.8756   -1.1542 N.4       1 <0>        -0.5088
     11 C9          0.3385   -3.6800   -2.2189 C.3       1 <0>        -0.0101
     12 C10         1.2765   -3.7292   -3.4267 C.3       1 <0>        -0.1515
     13 C11         0.6368   -4.5670   -4.5356 C.3       1 <0>        -0.1189
     14 C12         1.5748   -4.6161   -5.7433 C.3       1 <0>        -0.1195
     15 C13         0.9351   -5.4540   -6.8522 C.3       1 <0>        -0.1520
     16 C14         1.8732   -5.5031   -8.0599 C.3       1 <0>        -0.0104
     17 N2          1.2589   -6.3075   -9.1246 N.4       1 <0>        -0.5109
     18 C15         2.1596   -6.3547  -10.2841 C.3       1 <0>        -0.0102
     19 C16         1.5199   -7.1926  -11.3930 C.3       1 <0>        -0.1514
     20 C17         2.4579   -7.2417  -12.6007 C.3       1 <0>        -0.1193
     21 C18         1.8182   -8.0795  -13.7096 C.3       1 <0>        -0.1229
     22 C19         2.7562   -8.1286  -14.9174 C.3       1 <0>        -0.1229
     23 C20         2.1165   -8.9665  -16.0263 C.3       1 <0>        -0.1193
     24 C21         3.0545   -9.0156  -17.2340 C.3       1 <0>        -0.1514
     25 C22         2.4148   -9.8535  -18.3429 C.3       1 <0>        -0.0102
     26 N3          3.3155   -9.9006  -19.5024 N.4       1 <0>        -0.5109
     27 C23         2.7012  -10.7051  -20.5671 C.3       1 <0>        -0.0104
     28 C24         3.6393  -10.7542  -21.7748 C.3       1 <0>        -0.1520
     29 C25         2.9995  -11.5920  -22.8837 C.3       1 <0>        -0.1195
     30 C26         3.9376  -11.6411  -24.0914 C.3       1 <0>        -0.1189
     31 C27         3.2979  -12.4790  -25.2004 C.3       1 <0>        -0.1516
     32 C28         4.2359  -12.5281  -26.4081 C.3       1 <0>        -0.0100
     33 N4          3.6217  -13.3325  -27.4728 N.4       1 <0>        -0.5088
     34 C29         4.5223  -13.3797  -28.6323 C.3       1 <0>         0.0590
     35 C30         3.8922  -14.2050  -29.7245 C.ar      1 <0>        -0.2056
     36 C31         4.2759  -15.5198  -29.9064 C.ar      1 <0>        -0.0530
     37 C32         3.6986  -16.2772  -30.9085 C.ar      1 <0>        -0.1481
     38 C33         2.7357  -15.7214  -31.7310 C.ar      1 <0>        -0.0386
     39 C34         2.3484  -14.4076  -31.5529 C.ar      1 <0>        -0.2024
     40 C35         2.9225  -13.6469  -30.5445 C.ar      1 <0>         0.1495
     41 O2          2.5391  -12.3557  -30.3637 O.3       1 <0>        -0.3317
     42 C36         1.5355  -11.8475  -31.2450 C.3       1 <0>         0.0219
     43 H1          1.0053    1.8021    0.0021 H         1 <0>         0.0655
     44 H2         -0.5445    1.7859   -0.8732 H         1 <0>         0.1108
     45 H3         -0.5275    1.7763    0.9067 H         1 <0>         0.0688
     46 H4          1.1565    1.2168    2.0119 H         1 <0>         0.1425
     47 H5          2.2845    0.1005    3.8932 H         1 <0>         0.1419
     48 H6          2.3900   -2.3570    3.9842 H         1 <0>         0.1408
     49 H7          1.3695   -3.7034    2.1946 H         1 <0>         0.1397
     50 H8         -0.1239   -3.8404    0.3701 H         1 <0>         0.1375
     51 H9         -0.8960   -2.3784   -0.2891 H         1 <0>         0.1383
     52 H10         1.1156   -1.9389   -1.4919 H         1 <0>         0.4288
     53 H11         0.1625   -4.6920   -1.8542 H         1 <0>         0.1322
     54 H12        -0.6096   -3.2300   -2.5134 H         1 <0>         0.1321
     55 H13         1.4525   -2.7172   -3.7914 H         1 <0>         0.0890
     56 H14         2.2246   -4.1792   -3.1322 H         1 <0>         0.0893
     57 H15         0.4608   -5.5790   -4.1708 H         1 <0>         0.0792
     58 H16        -0.3113   -4.1169   -4.8300 H         1 <0>         0.0791
     59 H17         1.7508   -3.6042   -6.1081 H         1 <0>         0.0789
     60 H18         2.5229   -5.0662   -5.4489 H         1 <0>         0.0790
     61 H19         0.7592   -6.4659   -6.4874 H         1 <0>         0.0903
     62 H20        -0.0130   -5.0039   -7.1466 H         1 <0>         0.0902
     63 H21         2.0491   -4.4911   -8.4247 H         1 <0>         0.1327
     64 H22         2.8212   -5.9532   -7.7655 H         1 <0>         0.1328
     65 H23         1.0961   -7.2443   -8.7869 H         1 <0>         0.4293
     66 H24         2.3355   -5.3428  -10.6489 H         1 <0>         0.1323
     67 H25         3.1077   -6.8048   -9.9897 H         1 <0>         0.1324
     68 H26         1.3439   -8.2045  -11.0282 H         1 <0>         0.0885
     69 H27         0.5718   -6.7425  -11.6874 H         1 <0>         0.0884
     70 H28         2.6339   -6.2297  -12.9655 H         1 <0>         0.0754
     71 H29         3.4060   -7.6918  -12.3063 H         1 <0>         0.0755
     72 H30         1.6422   -9.0915  -13.3449 H         1 <0>         0.0693
     73 H31         0.8701   -7.6294  -14.0041 H         1 <0>         0.0692
     74 H32         2.9322   -7.1167  -15.2821 H         1 <0>         0.0692
     75 H33         3.7043   -8.5787  -14.6229 H         1 <0>         0.0692
     76 H34         1.9405   -9.9784  -15.6615 H         1 <0>         0.0755
     77 H35         1.1684   -8.5164  -16.3207 H         1 <0>         0.0754
     78 H36         3.2305   -8.0037  -17.5988 H         1 <0>         0.0884
     79 H37         4.0026   -9.4657  -16.9396 H         1 <0>         0.0885
     80 H38         2.2389  -10.8654  -17.9781 H         1 <0>         0.1324
     81 H39         1.4667   -9.4034  -18.6373 H         1 <0>         0.1324
     82 H40         3.4783   -8.9639  -19.8401 H         1 <0>         0.4293
     83 H41         2.5253  -11.7170  -20.2023 H         1 <0>         0.1328
     84 H42         1.7531  -10.2550  -20.8615 H         1 <0>         0.1327
     85 H43         3.8152   -9.7422  -22.1396 H         1 <0>         0.0902
     86 H44         4.5874  -11.2043  -21.4804 H         1 <0>         0.0903
     87 H45         2.8236  -12.6040  -22.5189 H         1 <0>         0.0790
     88 H46         2.0515  -11.1419  -23.1781 H         1 <0>         0.0789
     89 H47         4.1135  -10.6292  -24.4562 H         1 <0>         0.0791
     90 H48         4.8857  -12.0912  -23.7970 H         1 <0>         0.0792
     91 H49         3.1219  -13.4909  -24.8356 H         1 <0>         0.0894
     92 H50         2.3498  -12.0289  -25.4948 H         1 <0>         0.0890
     93 H51         4.4119  -11.5162  -26.7729 H         1 <0>         0.1321
     94 H52         5.1840  -12.9782  -26.1137 H         1 <0>         0.1322
     95 H53         3.4588  -14.2693  -27.1351 H         1 <0>         0.4262
     96 H54         4.6983  -12.3678  -28.9971 H         1 <0>         0.1382
     97 H55         5.4704  -13.8298  -28.3379 H         1 <0>         0.1375
     98 H56         5.0276  -15.9561  -29.2654 H         1 <0>         0.1397
     99 H57         4.0003  -17.3045  -31.0496 H         1 <0>         0.1408
    100 H58         2.2865  -16.3151  -32.5134 H         1 <0>         0.1418
    101 H59         1.5964  -13.9741  -32.1955 H         1 <0>         0.1425
    102 H60         0.6267  -12.4402  -31.1410 H         1 <0>         0.0655
    103 H61         1.3227  -10.8087  -30.9927 H         1 <0>         0.1108
    104 H62         1.8917  -11.9060  -32.2735 H         1 <0>         0.0688
    105 H63         0.3813   -5.8909   -9.3971 H         1 <0>         0.4293
    106 H64         4.1931  -10.3172  -19.2299 H         1 <0>         0.4293
    107 H65         1.8303   -3.2922   -0.8817 H         1 <0>         0.4262
    108 H66         2.7441  -12.9159  -27.7453 H         1 <0>         0.4288
@<TRIPOS>BOND
     1    1    2 1
     2    1   43 1
     3    1   44 1
     4    1   45 1
     5    2    3 1
     6    3    8 ar
     7    3    4 ar
     8    4    5 ar
     9    4   46 1
    10    5    6 ar
    11    5   47 1
    12    6    7 ar
    13    6   48 1
    14    7    8 ar
    15    7   49 1
    16    8    9 1
    17    9   10 1
    18    9   50 1
    19    9   51 1
    20   10   11 1
    21   10   52 1
    22   10  107 1
    23   11   12 1
    24   11   53 1
    25   11   54 1
    26   12   13 1
    27   12   55 1
    28   12   56 1
    29   13   14 1
    30   13   57 1
    31   13   58 1
    32   14   15 1
    33   14   59 1
    34   14   60 1
    35   15   16 1
    36   15   61 1
    37   15   62 1
    38   16   17 1
    39   16   63 1
    40   16   64 1
    41   17   18 1
    42   17   65 1
    43   17  105 1
    44   18   19 1
    45   18   66 1
    46   18   67 1
    47   19   20 1
    48   19   68 1
    49   19   69 1
    50   20   21 1
    51   20   70 1
    52   20   71 1
    53   21   22 1
    54   21   72 1
    55   21   73 1
    56   22   23 1
    57   22   74 1
    58   22   75 1
    59   23   24 1
    60   23   76 1
    61   23   77 1
    62   24   25 1
    63   24   78 1
    64   24   79 1
    65   25   26 1
    66   25   80 1
    67   25   81 1
    68   26   27 1
    69   26   82 1
    70   26  106 1
    71   27   28 1
    72   27   83 1
    73   27   84 1
    74   28   29 1
    75   28   85 1
    76   28   86 1
    77   29   30 1
    78   29   87 1
    79   29   88 1
    80   30   31 1
    81   30   89 1
    82   30   90 1
    83   31   32 1
    84   31   91 1
    85   31   92 1
    86   32   33 1
    87   32   93 1
    88   32   94 1
    89   33   34 1
    90   33   95 1
    91   33  108 1
    92   34   35 1
    93   34   96 1
    94   34   97 1
    95   35   40 ar
    96   35   36 ar
    97   36   37 ar
    98   36   98 1
    99   37   38 ar
   100   37   99 1
   101   38   39 ar
   102   38  100 1
   103   39   40 ar
   104   39  101 1
   105   40   41 1
   106   41   42 1
   107   42  102 1
   108   42  103 1
   109   42  104 1
@<TRIPOS>MOLECULE
ZINC00056526
   36    37     0     0     0
SMALL
USER_CHARGES

@<TRIPOS>ATOM
      1 C1          2.5037    1.7126    3.2140 C.3       1 <0>        -0.1237
      2 C2          1.1585    2.2578    2.8086 C.ar      1 <0>        -0.0710
      3 C3          0.9379    3.6213    2.8044 C.ar      1 <0>        -0.1067
      4 C4         -0.2961    4.1223    2.4330 C.ar      1 <0>        -0.0798
      5 C5         -1.3133    3.2607    2.0647 C.ar      1 <0>        -0.1093
      6 C6         -1.0991    1.8965    2.0664 C.ar      1 <0>        -0.0914
      7 C7          0.1412    1.3902    2.4334 C.ar      1 <0>         0.0607
      8 N1          0.3631    0.0092    2.4310 N.pl3     1 <0>        -0.6353
      9 C8          0.4090   -0.6826    3.6204 C.cat     1 <0>         0.7405
     10 N2          0.7150   -1.9495    3.6259 N.pl3     1 <0>        -0.7671
     11 N3          0.1317   -0.0363    4.8039 N.pl3     1 <0>        -0.6291
     12 C9          0.1332   -0.7493    6.0072 C.ar      1 <0>         0.0596
     13 C10         1.1662   -0.5736    6.9191 C.ar      1 <0>        -0.0907
     14 C11         1.1645   -1.2787    8.1063 C.ar      1 <0>        -0.1071
     15 C12         0.1360   -2.1594    8.3878 C.ar      1 <0>        -0.0804
     16 C13        -0.8935   -2.3370    7.4821 C.ar      1 <0>        -0.1047
     17 C14        -0.9010   -1.6301    6.2954 C.ar      1 <0>        -0.0763
     18 C15        -2.0269   -1.8192    5.3117 C.3       1 <0>        -0.1303
     19 H1          3.1435    1.6334    2.3352 H         1 <0>         0.0869
     20 H2          2.9640    2.3834    3.9394 H         1 <0>         0.0836
     21 H3          2.3764    0.7265    3.6608 H         1 <0>         0.0530
     22 H4          1.7300    4.2968    3.0918 H         1 <0>         0.1408
     23 H5         -0.4662    5.1889    2.4309 H         1 <0>         0.1404
     24 H6         -2.2763    3.6551    1.7758 H         1 <0>         0.1415
     25 H7         -1.8940    1.2242    1.7789 H         1 <0>         0.1367
     26 H8          0.4847   -0.4610    1.5914 H         1 <0>         0.4415
     27 H9          0.6889   -2.4511    4.4558 H         1 <0>         0.4432
     28 H10        -0.0647    0.9136    4.8032 H         1 <0>         0.4406
     29 H11         1.9701    0.1134    6.6995 H         1 <0>         0.1367
     30 H12         1.9674   -1.1426    8.8157 H         1 <0>         0.1422
     31 H13         0.1371   -2.7100    9.3170 H         1 <0>         0.1410
     32 H14        -1.6949   -3.0260    7.7046 H         1 <0>         0.1415
     33 H15        -1.7760   -2.6259    4.6230 H         1 <0>         0.0747
     34 H16        -2.9407   -2.0717    5.8496 H         1 <0>         0.0884
     35 H17        -2.1784   -0.8967    4.7512 H         1 <0>         0.0670
     36 H18         0.9688   -2.3908    2.8003 H         1 <0>         0.4426
@<TRIPOS>BOND
     1    1    2 1
     2    1   19 1
     3    1   20 1
     4    1   21 1
     5    2    7 ar
     6    2    3 ar
     7    3    4 ar
     8    3   22 1
     9    4    5 ar
    10    4   23 1
    11    5    6 ar
    12    5   24 1
    13    6    7 ar
    14    6   25 1
    15    7    8 1
    16    8    9 1
    17    8   26 1
    18    9   10 2
    19    9   11 1
    20   10   27 1
    21   10   36 1
    22   11   12 1
    23   11   28 1
    24   12   17 ar
    25   12   13 ar
    26   13   14 ar
    27   13   29 1
    28   14   15 ar
    29   14   30 1
    30   15   16 ar
    31   15   31 1
    32   16   17 ar
    33   16   32 1
    34   17   18 1
    35   18   33 1
    36   18   34 1
    37   18   35 1
@<TRIPOS>MOLECULE
ZINC12356108
   49    52     0     0     0
SMALL
USER_CHARGES

@<TRIPOS>ATOM
      1 C1         -0.0178    1.4648    0.0101 C.3       1 <0>        -0.0434
      2 N1          0.0021   -0.0041    0.0020 N.4       1 <0>        -0.3971
      3 C2         -1.3736   -0.5473    0.1574 C.3       1 <0>         0.0371
      4 H1         -2.0955   -0.0286   -0.4735 H         1 <0>         0.1516
      5 C3         -1.6823   -0.3750    1.6625 C.3       1 <0>        -0.1437
      6 C4         -0.3012   -0.3601    2.3500 C.3       1 <0>        -0.1451
      7 C5          0.7165   -0.5247    1.1979 C.3       1 <0>         0.0394
      8 H2          1.6459    0.0118    1.3892 H         1 <0>         0.1562
      9 C6          0.9375   -2.0297    0.9772 C.3       1 <0>        -0.1425
     10 C7         -0.4245   -2.7273    0.9179 C.3       1 <0>         0.0810
     11 C8         -1.3075   -2.0510   -0.1543 C.3       1 <0>        -0.1681
     12 O1         -0.2397   -4.1026    0.5766 O.3       1 <0>        -0.3529
     13 C9         -1.2328   -4.9747    1.1199 C.3       1 <0>         0.1814
     14 H3         -1.5989   -4.5665    2.0619 H         1 <0>         0.0823
     15 C10        -2.3776   -5.0996    0.1478 C.ar      1 <0>        -0.1196
     16 C11        -2.1257   -5.1974   -1.2079 C.ar      1 <0>        -0.0933
     17 C12        -3.1758   -5.3119   -2.0995 C.ar      1 <0>        -0.1205
     18 C13        -4.4778   -5.3292   -1.6354 C.ar      1 <0>        -0.1093
     19 C14        -4.7297   -5.2324   -0.2796 C.ar      1 <0>        -0.1167
     20 C15        -3.6794   -5.1222    0.6123 C.ar      1 <0>        -0.1103
     21 C16        -0.6291   -6.3341    1.3624 C.ar      1 <0>        -0.0900
     22 C17         0.3354   -6.8252    0.5023 C.ar      1 <0>        -0.0778
     23 C18         0.8894   -8.0718    0.7242 C.ar      1 <0>        -0.1113
     24 C19         0.4785   -8.8283    1.8073 C.ar      1 <0>        -0.0266
     25 C20        -0.4868   -8.3363    2.6677 C.ar      1 <0>        -0.1079
     26 C21        -1.0360   -7.0871    2.4479 C.ar      1 <0>        -0.0943
     27 Cl1         1.1735  -10.3944    2.0863 Cl        1 <0>        -0.0586
     28 H4          1.0047    1.8421    0.0024 H         1 <0>         0.1228
     29 H5         -0.5450    1.8259   -0.8730 H         1 <0>         0.1223
     30 H6         -0.5280    1.8163    0.9069 H         1 <0>         0.1210
     31 H7         -2.2034    0.5662    1.8375 H         1 <0>         0.1012
     32 H8         -2.2779   -1.2126    2.0258 H         1 <0>         0.1109
     33 H9         -0.1432    0.5886    2.8631 H         1 <0>         0.1017
     34 H10        -0.2177   -1.1902    3.0515 H         1 <0>         0.1124
     35 H11         1.4693   -2.1869    0.0388 H         1 <0>         0.0989
     36 H12         1.5211   -2.4379    1.8024 H         1 <0>         0.1193
     37 H13        -0.9099   -2.6582    1.8914 H         1 <0>         0.0847
     38 H14        -2.3108   -2.4756   -0.1193 H         1 <0>         0.1153
     39 H15        -0.8806   -2.1999   -1.1461 H         1 <0>         0.0986
     40 H16        -1.1085   -5.1838   -1.5704 H         1 <0>         0.1240
     41 H17        -2.9791   -5.3876   -3.1587 H         1 <0>         0.1248
     42 H18        -5.2983   -5.4180   -2.3320 H         1 <0>         0.1256
     43 H19        -5.7469   -5.2456    0.0829 H         1 <0>         0.1265
     44 H20        -3.8760   -5.0503    1.6719 H         1 <0>         0.1219
     45 H21         0.6558   -6.2347   -0.3433 H         1 <0>         0.1342
     46 H22         1.6427   -8.4555    0.0520 H         1 <0>         0.1369
     47 H23        -0.8081   -8.9265    3.5131 H         1 <0>         0.1387
     48 H24        -1.7861   -6.7009    3.1222 H         1 <0>         0.1318
     49 H25         0.4289   -0.3487   -0.8448 H         1 <0>         0.4267
@<TRIPOS>BOND
     1    1    2 1
     2    1   28 1
     3    1   29 1
     4    1   30 1
     5    2    7 1
     6    2    3 1
     7    2   49 1
     8    3    4 1
     9    3   11 1
    10    3    5 1
    11    5    6 1
    12    5   31 1
    13    5   32 1
    14    6    7 1
    15    6   33 1
    16    6   34 1
    17    7    8 1
    18    7    9 1
    19    9   10 1
    20    9   35 1
    21    9   36 1
    22   10   11 1
    23   10   12 1
    24   10   37 1
    25   11   38 1
    26   11   39 1
    27   12   13 1
    28   13   14 1
    29   13   15 1
    30   13   21 1
    31   15   20 ar
    32   15   16 ar
    33   16   17 ar
    34   16   40 1
    35   17   18 ar
    36   17   41 1
    37   18   19 ar
    38   18   42 1
    39   19   20 ar
    40   19   43 1
    41   20   44 1
    42   21   26 ar
    43   21   22 ar
    44   22   23 ar
    45   22   45 1
    46   23   24 ar
    47   23   46 1
    48   24   25 ar
    49   24   27 1
    50   25   26 ar
    51   25   47 1
    52   26   48 1
@<TRIPOS>MOLECULE
ZINC00002850
   26    28     0     0     0
SMALL
USER_CHARGES
5-(1-azabicyclo[2.2.1]hept-3-yl)-1,2,4-oxadiazol-3-amine
@<TRIPOS>ATOM
      1 C1          0.1283    0.8406   -2.4362 C.3       1 <0>        -0.1505
      2 C2          1.5635    1.4135   -2.3739 C.3       1 <0>        -0.0115
      3 C3          0.1512    3.0010   -1.4131 C.3       1 <0>        -0.0208
      4 C4         -0.6227    1.6364   -1.3209 C.3       1 <0>        -0.1000
      5 H1         -1.7104    1.6628   -1.3863 H         1 <0>         0.1578
      6 C5         -0.0127    1.0858    0.0080 C.3       1 <0>        -0.0167
      7 H2          0.0021   -0.0041    0.0020 H         1 <0>         0.1563
      8 C6          1.4267    1.6514   -0.0027 C.3       1 <0>        -0.0032
      9 C7         -0.7770    1.5991    1.2011 C.2       1 <0>         0.1685
     10 N1         -1.3729    0.8734    2.1152 N.2       1 <0>        -0.4795
     11 C8         -1.9185    1.7554    2.9799 C.2       1 <0>         0.4378
     12 N2         -1.6338    2.9528    2.5422 N.2       1 <0>        -0.4206
     13 O1         -0.9799    2.8802    1.5232 O.3       1 <0>         0.0637
     14 N3         -2.6508    1.4471    4.1184 N.pl3     1 <0>        -0.8073
     15 H3         -0.3195    1.0299   -3.4118 H         1 <0>         0.1141
     16 H4          0.1302   -0.2269   -2.2158 H         1 <0>         0.1122
     17 H5          1.8222    1.8882   -3.3203 H         1 <0>         0.1447
     18 H6          2.2761    0.6227   -2.1397 H         1 <0>         0.1410
     19 H7         -0.0974    3.6663   -0.5863 H         1 <0>         0.1491
     20 H8          0.0059    3.4866   -2.3781 H         1 <0>         0.1565
     21 H9          1.5814    2.3070    0.8542 H         1 <0>         0.1452
     22 H10         2.1523    0.8380    0.0087 H         1 <0>         0.1562
     23 H11        -3.0054    2.1585    4.6744 H         1 <0>         0.4251
     24 H12        -2.8078    0.5203    4.3580 H         1 <0>         0.4255
     25 N4          1.4461    2.3757   -1.2735 N.4       1 <0>        -0.3803
     26 H13         2.2073    3.0643   -1.2978 H         1 <0>         0.4365
@<TRIPOS>BOND
     1    1    4 1
     2    1    2 1
     3    1   15 1
     4    1   16 1
     5    2   17 1
     6    2   18 1
     7    2   25 1
     8    3    4 1
     9    3   19 1
    10    3   20 1
    11    3   25 1
    12    4    5 1
    13    4    6 1
    14    6    7 1
    15    6    8 1
    16    6    9 1
    17    8   21 1
    18    8   22 1
    19    8   25 1
    20    9   13 1
    21    9   10 2
    22   10   11 1
    23   11   12 2
    24   11   14 1
    25   12   13 1
    26   14   23 1
    27   14   24 1
    28   25   26 1
@<TRIPOS>MOLECULE
ZINC05134197
   26    28     0     0     0
SMALL
USER_CHARGES
5-(1-azabicyclo[2.2.1]hept-3-yl)-1,2,4-oxadiazol-3-amine
@<TRIPOS>ATOM
      1 C1          0.9389    1.8466   -0.1988 C.3       1 <0>        -0.1647
      2 C2         -0.4417    1.1782   -0.3966 C.3       1 <0>        -0.0104
      3 C3          0.9144   -0.3666    0.7043 C.3       1 <0>        -0.0113
      4 C4          1.9002    0.6301   -0.0059 C.3       1 <0>        -0.0981
      5 H1          2.8487    0.8299    0.4928 H         1 <0>         0.1623
      6 C5          1.9572   -0.0309   -1.4204 C.3       1 <0>        -0.0182
      7 H2          2.7220   -0.8069   -1.4519 H         1 <0>         0.1554
      8 C6          0.5462   -0.6432   -1.5817 C.3       1 <0>        -0.0054
      9 C7          2.2112    1.0072   -2.4829 C.2       1 <0>         0.1751
     10 N1          3.3662    1.2932   -3.0319 N.2       1 <0>        -0.4786
     11 C8          3.1111    2.2745   -3.9236 C.2       1 <0>         0.4394
     12 N2          1.8320    2.5320   -3.8599 N.2       1 <0>        -0.4220
     13 O1          1.3020    1.8139   -3.0386 O.3       1 <0>         0.0593
     14 N3          4.0367    2.8980   -4.7495 N.pl3     1 <0>        -0.8067
     15 H3          1.2182    2.4213   -1.0819 H         1 <0>         0.1031
     16 H4          0.9364    2.4795    0.6886 H         1 <0>         0.1141
     17 H5         -0.8528    1.4414   -1.3712 H         1 <0>         0.1408
     18 H6         -1.1251    1.4809    0.3968 H         1 <0>         0.1465
     19 H7          0.5878    0.0067    1.6749 H         1 <0>         0.1549
     20 H8          1.3335   -1.3700    0.7802 H         1 <0>         0.1531
     21 H9          0.6141   -1.7257   -1.6896 H         1 <0>         0.1594
     22 H10         0.0417   -0.2076   -2.4441 H         1 <0>         0.1453
     23 H11         3.7510    3.5992   -5.3558 H         1 <0>         0.4252
     24 H12         4.9692    2.6323   -4.7203 H         1 <0>         0.4258
     25 N4         -0.0903   -0.2438   -0.3266 N.4       1 <0>        -0.3806
     26 H13        -0.9149   -0.8220   -0.1270 H         1 <0>         0.4365
@<TRIPOS>BOND
     1    1    4 1
     2    1    2 1
     3    1   15 1
     4    1   16 1
     5    2   17 1
     6    2   18 1
     7    2   25 1
     8    3    4 1
     9    3   19 1
    10    3   20 1
    11    3   25 1
    12    4    5 1
    13    4    6 1
    14    6    7 1
    15    6    8 1
    16    6    9 1
    17    8   21 1
    18    8   22 1
    19    8   25 1
    20    9   13 1
    21    9   10 2
    22   10   11 1
    23   11   12 2
    24   11   14 1
    25   12   13 1
    26   14   23 1
    27   14   24 1
    28   25   26 1
@<TRIPOS>MOLECULE
ZINC00007360
   49    52     0     0     0
SMALL
USER_CHARGES

@<TRIPOS>ATOM
      1 C1         -0.0178    1.4648    0.0101 C.3       1 <0>        -0.0434
      2 N1          0.0021   -0.0041    0.0020 N.4       1 <0>        -0.3971
      3 C2         -1.3736   -0.5473    0.1574 C.3       1 <0>         0.0374
      4 H1         -2.0955   -0.0286   -0.4735 H         1 <0>         0.1528
      5 C3         -1.6823   -0.3750    1.6625 C.3       1 <0>        -0.1440
      6 C4         -0.3012   -0.3601    2.3500 C.3       1 <0>        -0.1455
      7 C5          0.7165   -0.5247    1.1979 C.3       1 <0>         0.0392
      8 H2          1.6459    0.0118    1.3892 H         1 <0>         0.1564
      9 C6          0.9375   -2.0297    0.9772 C.3       1 <0>        -0.1422
     10 C7         -0.4245   -2.7273    0.9179 C.3       1 <0>         0.0777
     11 C8         -1.3075   -2.0510   -0.1543 C.3       1 <0>        -0.1686
     12 O1         -0.2397   -4.1026    0.5766 O.3       1 <0>        -0.3532
     13 C9         -1.2328   -4.9747    1.1199 C.3       1 <0>         0.1859
     14 C10        -1.4248   -6.1524    0.1994 C.ar      1 <0>        -0.1075
     15 C11        -0.3305   -6.7414   -0.4061 C.ar      1 <0>        -0.0593
     16 C12        -0.5053   -7.8217   -1.2501 C.ar      1 <0>        -0.1549
     17 C13        -1.7772   -8.3141   -1.4891 C.ar      1 <0>         0.1125
     18 C14        -2.8725   -7.7233   -0.8821 C.ar      1 <0>        -0.1521
     19 C15        -2.6946   -6.6464   -0.0344 C.ar      1 <0>        -0.0770
     20 F1         -1.9493   -9.3698   -2.3143 F         1 <0>        -0.1331
     21 C16        -0.7862   -5.4630    2.4738 C.ar      1 <0>        -0.1344
     22 C17         0.5548   -5.6957    2.7163 C.ar      1 <0>        -0.0651
     23 C18         0.9656   -6.1430    3.9577 C.ar      1 <0>        -0.1547
     24 C19         0.0336   -6.3582    4.9587 C.ar      1 <0>         0.1114
     25 C20        -1.3092   -6.1249    4.7146 C.ar      1 <0>        -0.1517
     26 C21        -1.7171   -5.6725    3.4741 C.ar      1 <0>        -0.0782
     27 F2          0.4339   -6.7960    6.1725 F         1 <0>        -0.1332
     28 H3          1.0047    1.8421    0.0024 H         1 <0>         0.1229
     29 H4         -0.5450    1.8259   -0.8730 H         1 <0>         0.1227
     30 H5         -0.5280    1.8163    0.9069 H         1 <0>         0.1211
     31 H6         -2.2034    0.5662    1.8375 H         1 <0>         0.1016
     32 H7         -2.2779   -1.2126    2.0258 H         1 <0>         0.1111
     33 H8         -0.1432    0.5886    2.8631 H         1 <0>         0.1017
     34 H9         -0.2177   -1.1902    3.0515 H         1 <0>         0.1128
     35 H10         1.4693   -2.1869    0.0388 H         1 <0>         0.0996
     36 H11         1.5211   -2.4379    1.8024 H         1 <0>         0.1193
     37 H12        -0.9099   -2.6582    1.8914 H         1 <0>         0.0873
     38 H13        -2.3108   -2.4756   -0.1193 H         1 <0>         0.1128
     39 H14        -0.8806   -2.1999   -1.1461 H         1 <0>         0.1006
     40 H15        -2.1744   -4.4351    1.2207 H         1 <0>         0.0831
     41 H16         0.6614   -6.3570   -0.2198 H         1 <0>         0.1352
     42 H17         0.3497   -8.2815   -1.7233 H         1 <0>         0.1398
     43 H18        -3.8650   -8.1063   -1.0681 H         1 <0>         0.1412
     44 H19        -3.5484   -6.1883    0.4427 H         1 <0>         0.1331
     45 H20         1.2816   -5.5281    1.9353 H         1 <0>         0.1362
     46 H21         2.0132   -6.3250    4.1468 H         1 <0>         0.1393
     47 H22        -2.0372   -6.2927    5.4946 H         1 <0>         0.1405
     48 H23        -2.7639   -5.4862    3.2849 H         1 <0>         0.1330
     49 H24         0.4289   -0.3487   -0.8448 H         1 <0>         0.4271
@<TRIPOS>BOND
     1    1    2 1
     2    1   28 1
     3    1   29 1
     4    1   30 1
     5    2    7 1
     6    2    3 1
     7    2   49 1
     8    3    4 1
     9    3   11 1
    10    3    5 1
    11    5    6 1
    12    5   31 1
    13    5   32 1
    14    6    7 1
    15    6   33 1
    16    6   34 1
    17    7    8 1
    18    7    9 1
    19    9   10 1
    20    9   35 1
    21    9   36 1
    22   10   11 1
    23   10   12 1
    24   10   37 1
    25   11   38 1
    26   11   39 1
    27   12   13 1
    28   13   14 1
    29   13   21 1
    30   13   40 1
    31   14   19 ar
    32   14   15 ar
    33   15   16 ar
    34   15   41 1
    35   16   17 ar
    36   16   42 1
    37   17   18 ar
    38   17   20 1
    39   18   19 ar
    40   18   43 1
    41   19   44 1
    42   21   26 ar
    43   21   22 ar
    44   22   23 ar
    45   22   45 1
    46   23   24 ar
    47   23   46 1
    48   24   25 ar
    49   24   27 1
    50   25   26 ar
    51   25   47 1
    52   26   48 1
@<TRIPOS>MOLECULE
ZINC04098786
   61    64     0     0     0
SMALL
USER_CHARGES
2-(1,6-dimethyl-2-piperidyl)vinyl-methyl-BLAHone
@<TRIPOS>ATOM
      1 C1         -2.9130    3.0343   -0.0841 C.3       1 <0>        -0.1827
      2 C2         -2.9707    1.5061   -0.1296 C.3       1 <0>         0.0315
      3 H1         -4.0104    1.1834   -0.1844 H         1 <0>         0.1356
      4 C3         -2.3253    0.9335    1.1343 C.3       1 <0>        -0.1430
      5 C4         -0.8589    1.3724    1.1974 C.3       1 <0>        -0.1398
      6 C5         -0.1391    0.8997   -0.0687 C.3       1 <0>        -0.1354
      7 C6         -0.8479    1.4733   -1.2978 C.3       1 <0>         0.0691
      8 H2         -0.8167    2.5622   -1.2599 H         1 <0>         0.1368
      9 C7         -2.9201    1.4410   -2.5491 C.3       1 <0>        -0.0484
     10 C8         -0.1537    0.9945   -2.5468 C.2       1 <0>        -0.2265
     11 C9          0.3666    1.8610   -3.3802 C.2       1 <0>        -0.0732
     12 C10         1.0608    1.3822   -4.6291 C.3       1 <0>        -0.0449
     13 H3          1.1135    0.2937   -4.6081 H         1 <0>         0.0950
     14 C11         2.4826    1.9469   -4.6534 C.3       1 <0>        -0.0774
     15 H4          2.4518    3.0362   -4.6336 H         1 <0>         0.0789
     16 C12         3.2477    1.4088   -3.4415 C.3       1 <0>        -0.1090
     17 C13         4.6934    1.9045   -3.4791 C.3       1 <0>        -0.1240
     18 C14         5.3652    1.4032   -4.7597 C.3       1 <0>        -0.1218
     19 C15         4.6104    2.0108   -5.9455 C.3       1 <0>        -0.1160
     20 C16         3.1658    1.5048   -5.9295 C.3       1 <0>        -0.0763
     21 H5          3.1401    0.4170   -5.9929 H         1 <0>         0.0805
     22 C17         2.4151    2.1089   -7.1147 C.3       1 <0>        -0.1130
     23 C18         0.9722    1.6072   -7.1768 C.3       1 <0>        -0.1399
     24 H6          0.8967    0.5819   -7.5389 H         1 <0>         0.1243
     25 C19         0.2577    1.8076   -5.8260 C.3       1 <0>        -0.1075
     26 H7         -0.6933    1.2750   -5.8348 H         1 <0>         0.0951
     27 C20        -0.0024    3.3251   -5.8858 C.3       1 <0>         0.0826
     28 H8          0.8854    3.8800   -5.5822 H         1 <0>         0.1034
     29 O1         -0.2985    3.5573   -7.3009 O.3       1 <0>        -0.3426
     30 C21         0.2140    2.5799   -8.0675 C.2       1 <0>         0.4798
     31 O2          0.1019    2.4998   -9.2679 O.2       1 <0>        -0.4399
     32 C22        -1.2016    3.7025   -5.0139 C.3       1 <0>        -0.1653
     33 H9         -3.3735    3.4423   -0.9839 H         1 <0>         0.0798
     34 H10        -3.4510    3.3922    0.7937 H         1 <0>         0.1052
     35 H11        -1.8733    3.3571   -0.0297 H         1 <0>         0.0815
     36 H12        -2.8539    1.3039    2.0127 H         1 <0>         0.1112
     37 H13        -2.3791   -0.1549    1.1094 H         1 <0>         0.0879
     38 H14        -0.3829    0.9313    2.0731 H         1 <0>         0.0954
     39 H15        -0.8065    2.4593    1.2619 H         1 <0>         0.0830
     40 H16        -0.1578   -0.1892   -0.1130 H         1 <0>         0.0887
     41 H17         0.8945    1.2455   -0.0503 H         1 <0>         0.1102
     42 H18        -2.4052    1.0086   -3.4070 H         1 <0>         0.1223
     43 H19        -3.9537    1.0954   -2.5337 H         1 <0>         0.1223
     44 H20        -2.9015    2.5282   -2.6242 H         1 <0>         0.1213
     45 H21        -0.0852   -0.0631   -2.7548 H         1 <0>         0.1367
     46 H22         0.2980    2.9186   -3.1721 H         1 <0>         0.1284
     47 H23         2.7687    1.7578   -2.5266 H         1 <0>         0.0600
     48 H24         3.2388    0.3191   -3.4621 H         1 <0>         0.0648
     49 H25         4.7051    2.9944   -3.4644 H         1 <0>         0.0632
     50 H26         5.2317    1.5230   -2.6114 H         1 <0>         0.0639
     51 H27         6.3988    1.7483   -4.7878 H         1 <0>         0.0656
     52 H28         5.3445    0.3136   -4.7792 H         1 <0>         0.0683
     53 H29         5.1008    1.6782   -6.8604 H         1 <0>         0.0662
     54 H30         4.6133    3.1002   -5.9094 H         1 <0>         0.0693
     55 H31         2.9273    1.8363   -8.0374 H         1 <0>         0.0834
     56 H32         2.4111    3.1946   -7.0181 H         1 <0>         0.0697
     57 H33        -0.9545    3.5378   -3.9651 H         1 <0>         0.0787
     58 H34        -1.4471    4.7532   -5.1686 H         1 <0>         0.0795
     59 H35        -2.0577    3.0854   -5.2867 H         1 <0>         0.0688
     60 N1         -2.2463    0.9941   -1.3124 N.4       1 <0>        -0.3879
     61 H36        -2.2468   -0.0323   -1.2847 H         1 <0>         0.4267
@<TRIPOS>BOND
     1    1    2 1
     2    1   33 1
     3    1   34 1
     4    1   35 1
     5    2    3 1
     6    2    4 1
     7    2   60 1
     8    4    5 1
     9    4   36 1
    10    4   37 1
    11    5    6 1
    12    5   38 1
    13    5   39 1
    14    6    7 1
    15    6   40 1
    16    6   41 1
    17    7    8 1
    18    7   10 1
    19    7   60 1
    20    9   42 1
    21    9   43 1
    22    9   44 1
    23    9   60 1
    24   10   11 2
    25   10   45 1
    26   11   12 1
    27   11   46 1
    28   12   13 1
    29   12   25 1
    30   12   14 1
    31   14   15 1
    32   14   20 1
    33   14   16 1
    34   16   17 1
    35   16   47 1
    36   16   48 1
    37   17   18 1
    38   17   49 1
    39   17   50 1
    40   18   19 1
    41   18   51 1
    42   18   52 1
    43   19   20 1
    44   19   53 1
    45   19   54 1
    46   20   21 1
    47   20   22 1
    48   22   23 1
    49   22   55 1
    50   22   56 1
    51   23   24 1
    52   23   30 1
    53   23   25 1
    54   25   26 1
    55   25   27 1
    56   27   28 1
    57   27   29 1
    58   27   32 1
    59   29   30 1
    60   30   31 2
    61   32   57 1
    62   32   58 1
    63   32   59 1
    64   60   61 1
@<TRIPOS>MOLECULE
ZINC05821656
   37    38     0     0     0
SMALL
USER_CHARGES
3-(4-butylsulfanyl-1,2,5-thiadiazol-3-yl)-1-methyl-5,6-dihydro-2H-pyridine
@<TRIPOS>ATOM
      1 C1         -0.2128    2.3968   -3.6723 C.3       1 <0>        -0.1549
      2 C2          0.4230    1.7438   -2.4434 C.3       1 <0>        -0.1192
      3 C3         -0.3636    2.1384   -1.1918 C.3       1 <0>        -0.1058
      4 C4          0.2722    1.4854    0.0371 C.3       1 <0>        -0.1076
      5 S1         -0.6604    1.9533    1.5210 S.3       1 <0>        -0.0033
      6 C5          0.1847    1.1334    2.8318 C.2       1 <0>         0.0620
      7 C6         -0.2116    1.2274    4.1655 C.2       1 <0>         0.0728
      8 N1          0.5086    0.5639    5.0464 N.2       1 <0>        -0.4587
      9 S2          1.6393   -0.1471    4.2117 S.3       1 <0>         0.5406
     10 N2          1.2442    0.3726    2.6367 N.2       1 <0>        -0.4550
     11 C7         -1.3820    2.0324    4.5706 C.2       1 <0>        -0.0914
     12 C8         -2.5658    1.6962    4.1057 C.2       1 <0>        -0.0867
     13 C9         -3.8188    2.4497    4.4551 C.3       1 <0>        -0.1196
     14 C10        -3.5659    3.3360    5.6772 C.3       1 <0>        -0.0051
     15 C11        -1.1644    3.2002    5.4893 C.3       1 <0>         0.0533
     16 C12        -2.1869    5.1775    6.4405 C.3       1 <0>        -0.0408
     17 H1          0.3476    2.1156   -4.5640 H         1 <0>         0.0612
     18 H2         -1.2446    2.0593   -3.7702 H         1 <0>         0.0567
     19 H3         -0.1943    3.4806   -3.5583 H         1 <0>         0.0562
     20 H4          1.4548    2.0813   -2.3455 H         1 <0>         0.0671
     21 H5          0.4045    0.6599   -2.5574 H         1 <0>         0.0675
     22 H6         -1.3954    1.8009   -1.2897 H         1 <0>         0.0758
     23 H7         -0.3451    3.2223   -1.0778 H         1 <0>         0.0749
     24 H8          0.2537    0.4015   -0.0769 H         1 <0>         0.0986
     25 H9          1.3040    1.8229    0.1350 H         1 <0>         0.0979
     26 H10        -2.6412    0.8416    3.4496 H         1 <0>         0.1451
     27 H11        -4.6191    1.7441    4.6782 H         1 <0>         0.1318
     28 H12        -4.1108    3.0726    3.6096 H         1 <0>         0.1154
     29 H13        -3.4583    2.7132    6.5652 H         1 <0>         0.1346
     30 H14        -4.3996    4.0251    5.8122 H         1 <0>         0.1400
     31 H15        -1.0195    2.8369    6.5068 H         1 <0>         0.1452
     32 H16        -0.2759    3.7471    5.1738 H         1 <0>         0.1380
     33 H17        -1.2904    5.7572    6.2205 H         1 <0>         0.1243
     34 H18        -3.0606    5.8275    6.3933 H         1 <0>         0.1270
     35 H19        -2.1063    4.7490    7.4395 H         1 <0>         0.1245
     36 N3         -2.3285    4.1039    5.4308 N.4       1 <0>        -0.3956
     37 H20        -2.3775    4.5278    4.4970 H         1 <0>         0.4333
@<TRIPOS>BOND
     1    1    2 1
     2    1   17 1
     3    1   18 1
     4    1   19 1
     5    2    3 1
     6    2   20 1
     7    2   21 1
     8    3    4 1
     9    3   22 1
    10    3   23 1
    11    4    5 1
    12    4   24 1
    13    4   25 1
    14    5    6 1
    15    6   10 2
    16    6    7 1
    17    7    8 2
    18    7   11 1
    19    8    9 1
    20    9   10 1
    21   11   15 1
    22   11   12 2
    23   12   13 1
    24   12   26 1
    25   13   14 1
    26   13   27 1
    27   13   28 1
    28   14   29 1
    29   14   30 1
    30   14   36 1
    31   15   31 1
    32   15   32 1
    33   15   36 1
    34   16   33 1
    35   16   34 1
    36   16   35 1
    37   16   36 1
    38   36   37 1
@<TRIPOS>MOLECULE
ZINC00017560
   32    34     0     0     0
SMALL
USER_CHARGES
3-(6-chloro-3-pyridyl)-8-methyl-8-azabicyclo[3.2.1]oct-3-ene
@<TRIPOS>ATOM
      1 C1          0.9322    9.9909   -0.3809 C.3       1 <0>        -0.0372
      2 C2          0.4196    8.1428    1.1221 C.3       1 <0>         0.0338
      3 H1          1.0401    8.6682    1.8481 H         1 <0>         0.1584
      4 C3         -1.0682    8.5023    1.2967 C.3       1 <0>        -0.1437
      5 C4         -1.6422    8.5436   -0.1355 C.3       1 <0>        -0.1386
      6 C5         -0.4584    8.0985   -1.0341 C.3       1 <0>         0.0715
      7 H2         -0.5044    8.5176   -2.0392 H         1 <0>         0.1681
      8 C6         -0.4590    6.5824   -1.0102 C.2       1 <0>        -0.1770
      9 C7          0.0173    5.9339    0.0338 C.2       1 <0>        -0.0424
     10 C8          0.6068    6.6278    1.2291 C.3       1 <0>        -0.1128
     11 C9         -0.0250    4.4565    0.0258 C.ar      1 <0>        -0.1353
     12 C10        -1.2506    3.7798    0.0338 C.ar      1 <0>        -0.0393
     13 C11        -1.2363    2.3969    0.0210 C.ar      1 <0>        -0.1496
     14 C12        -0.0215    1.7317    0.0116 C.ar      1 <0>         0.1882
     15 N1          1.1186    2.3969    0.0043 N.ar      1 <0>        -0.4717
     16 C13         1.1553    3.7137    0.0105 C.ar      1 <0>         0.1421
     17 Cl1         0.0021   -0.0041    0.0020 Cl        1 <0>        -0.0075
     18 H3          1.7509   10.2999    0.2691 H         1 <0>         0.1251
     19 H4          1.1686   10.2524   -1.4123 H         1 <0>         0.1266
     20 H5          0.0164   10.4987   -0.0780 H         1 <0>         0.1190
     21 H6         -1.5755    7.7384    1.8859 H         1 <0>         0.1100
     22 H7         -1.1686    9.4775    1.7730 H         1 <0>         0.1031
     23 H8         -2.4765    7.8488   -0.2321 H         1 <0>         0.1130
     24 H9         -1.9580    9.5551   -0.3907 H         1 <0>         0.1015
     25 H10        -0.8549    6.0316   -1.8506 H         1 <0>         0.1527
     26 H11         0.1139    6.2681    2.1323 H         1 <0>         0.1253
     27 H12         1.6713    6.4008    1.2871 H         1 <0>         0.1103
     28 H13        -2.1834    4.3239    0.0457 H         1 <0>         0.1490
     29 H14        -2.1626    1.8415    0.0223 H         1 <0>         0.1559
     30 H15         2.1079    4.2226    0.0042 H         1 <0>         0.1658
     31 N2          0.7119    8.5119   -0.2566 N.4       1 <0>        -0.3947
     32 H16         1.5493    8.0170   -0.5854 H         1 <0>         0.4302
@<TRIPOS>BOND
     1    1   18 1
     2    1   19 1
     3    1   20 1
     4    1   31 1
     5    2    3 1
     6    2   10 1
     7    2    4 1
     8    2   31 1
     9    4    5 1
    10    4   21 1
    11    4   22 1
    12    5    6 1
    13    5   23 1
    14    5   24 1
    15    6    7 1
    16    6    8 1
    17    6   31 1
    18    8    9 2
    19    8   25 1
    20    9   10 1
    21    9   11 1
    22   10   26 1
    23   10   27 1
    24   11   16 ar
    25   11   12 ar
    26   12   13 ar
    27   12   28 1
    28   13   14 ar
    29   13   29 1
    30   14   15 ar
    31   14   17 1
    32   15   16 ar
    33   16   30 1
    34   31   32 1
@<TRIPOS>MOLECULE
ZINC03642651
   30    30     0     0     0
SMALL
USER_CHARGES
1-(4-dimethylaminobut-2-ynyl)pyrrolidin-2-one
@<TRIPOS>ATOM
      1 C1         -2.5128    4.4457   -4.6014 C.3       1 <0>        -0.0425
      2 C2         -2.8278    4.4283   -2.2008 C.3       1 <0>        -0.0433
      3 C3         -2.0044    2.4500   -3.3282 C.3       1 <0>         0.1385
      4 C4         -1.2925    1.9623   -2.1356 C.1       1 <0>        -0.2743
      5 C5         -0.7246    1.5734   -1.1845 C.1       1 <0>        -0.0616
      6 C6         -0.0127    1.0858    0.0080 C.3       1 <0>         0.2154
      7 N1         -0.6984    1.5583    1.2133 N.am      1 <0>        -0.6251
      8 C7         -0.3960    2.8214    1.8968 C.3       1 <0>         0.0986
      9 C8         -1.6171    3.0993    2.8044 C.3       1 <0>        -0.1320
     10 C9         -2.1642    1.6721    3.0389 C.3       1 <0>        -0.1569
     11 C10        -1.6815    0.8879    1.8387 C.2       1 <0>         0.5175
     12 O1         -2.1177   -0.1892    1.4915 O.2       1 <0>        -0.5189
     13 H1         -3.5250    4.0835   -4.7811 H         1 <0>         0.1267
     14 H2         -2.5173    5.5352   -4.5682 H         1 <0>         0.1260
     15 H3         -1.8584    4.1095   -5.4057 H         1 <0>         0.1244
     16 H4         -2.4024    4.0793   -1.2598 H         1 <0>         0.1171
     17 H5         -2.8257    5.5181   -2.2184 H         1 <0>         0.1248
     18 H6         -3.8514    4.0653   -2.2935 H         1 <0>         0.1262
     19 H7         -1.4942    2.0984   -4.2250 H         1 <0>         0.1480
     20 H8         -3.0270    2.0727   -3.3204 H         1 <0>         0.1491
     21 H9          0.0021   -0.0041    0.0020 H         1 <0>         0.1228
     22 H10         1.0099    1.4631    0.0003 H         1 <0>         0.1222
     23 H11         0.5080    2.7185    2.4970 H         1 <0>         0.0842
     24 H12        -0.2774    3.6247    1.1696 H         1 <0>         0.0790
     25 H13        -2.3536    3.7205    2.2949 H         1 <0>         0.0808
     26 H14        -1.3063    3.5571    3.7435 H         1 <0>         0.0993
     27 H15        -3.2535    1.6824    3.0750 H         1 <0>         0.1065
     28 H16        -1.7569    1.2516    3.9584 H         1 <0>         0.1137
     29 N2         -1.9974    3.9280   -3.3165 N.4       1 <0>        -0.3988
     30 H17        -1.0330    4.2559   -3.1876 H         1 <0>         0.4324
@<TRIPOS>BOND
     1    1   13 1
     2    1   14 1
     3    1   15 1
     4    1   29 1
     5    2   16 1
     6    2   17 1
     7    2   18 1
     8    2   29 1
     9    3    4 1
    10    3   19 1
    11    3   20 1
    12    3   29 1
    13    4    5 3
    14    5    6 1
    15    6    7 1
    16    6   21 1
    17    6   22 1
    18    7   11 am
    19    7    8 1
    20    8    9 1
    21    8   23 1
    22    8   24 1
    23    9   10 1
    24    9   25 1
    25    9   26 1
    26   10   11 1
    27   10   27 1
    28   10   28 1
    29   11   12 2
    30   29   30 1
@<TRIPOS>MOLECULE
ZINC19796155
   42    45     0     0     0
SMALL
USER_CHARGES

@<TRIPOS>ATOM
      1 C1         -0.0670    1.4396   -0.3852 C.3       1 <0>         0.0243
      2 N1         -0.0229   -0.0169   -0.1987 N.3       1 <0>        -0.5428
      3 C2          0.3808   -0.6943   -1.4380 C.3       1 <0>         0.0399
      4 C3          0.2401   -2.2095   -1.2572 C.3       1 <0>         0.1263
      5 N2          0.9912   -2.6085   -0.0572 N.pl3     1 <0>        -0.5953
      6 C4          0.7394   -1.8803    1.1955 C.3       1 <0>         0.1122
      7 C5          0.8604   -0.3781    0.9181 C.3       1 <0>         0.0393
      8 C6          1.9051   -3.6365   -0.1053 C.2       1 <0>         0.5098
      9 N3          2.1670   -4.1290   -1.2643 N.2       1 <0>        -0.6041
     10 C7          3.0130   -5.1503   -1.5719 C.ar      1 <0>         0.1655
     11 C8          2.6280   -6.0848   -2.5372 C.ar      1 <0>        -0.1058
     12 C9          3.4872   -7.1047   -2.8991 C.ar      1 <0>        -0.0230
     13 C10         4.7348   -7.2069   -2.3106 C.ar      1 <0>        -0.1209
     14 C11         5.1212   -6.2977   -1.3402 C.ar      1 <0>        -0.1017
     15 C12         4.2618   -5.2835   -0.9546 C.ar      1 <0>         0.1117
     16 N4          4.6314   -4.4326    0.1003 N.pl3     1 <0>        -0.7261
     17 C13         3.8434   -4.4184    1.2519 C.ar      1 <0>         0.2140
     18 C14         2.4943   -4.0640    1.1729 C.ar      1 <0>        -0.1453
     19 C15         1.7072   -4.1133    2.3240 C.ar      1 <0>        -0.0723
     20 C16         2.2727   -4.4729    3.5311 C.ar      1 <0>        -0.1389
     21 C17         3.6189   -4.7825    3.6069 C.ar      1 <0>        -0.0765
     22 C18         4.3974   -4.7629    2.4751 C.ar      1 <0>        -0.1433
     23 Cl1         2.9987   -8.2627   -4.0966 Cl        1 <0>        -0.0679
     24 H1          0.9359    1.8090   -0.5992 H         1 <0>         0.0255
     25 H2         -0.7279    1.6794   -1.2181 H         1 <0>         0.0711
     26 H3         -0.4416    1.9111    0.5233 H         1 <0>         0.0709
     27 H4         -0.2581   -0.3649   -2.2574 H         1 <0>         0.0878
     28 H5          1.4186   -0.4499   -1.6647 H         1 <0>         0.0378
     29 H6         -0.8117   -2.4673   -1.1334 H         1 <0>         0.0720
     30 H7          0.6453   -2.7216   -2.1299 H         1 <0>         0.1060
     31 H8         -0.2645   -2.1065    1.5551 H         1 <0>         0.0792
     32 H9          1.4746   -2.1748    1.9444 H         1 <0>         0.0984
     33 H10         1.8915   -0.1381    0.6586 H         1 <0>         0.0379
     34 H11         0.5693    0.1807    1.8075 H         1 <0>         0.0892
     35 H12         1.6558   -6.0097   -3.0016 H         1 <0>         0.1375
     36 H13         5.4083   -7.9971   -2.6081 H         1 <0>         0.1357
     37 H14         6.0961   -6.3802   -0.8829 H         1 <0>         0.1326
     38 H15         5.4169   -3.8679    0.0299 H         1 <0>         0.4097
     39 H16         0.6563   -3.8699    2.2709 H         1 <0>         0.1344
     40 H17         1.6613   -4.5124    4.4205 H         1 <0>         0.1323
     41 H18         4.0571   -5.0467    4.5580 H         1 <0>         0.1317
     42 H19         5.4473   -5.0071    2.5424 H         1 <0>         0.1313
@<TRIPOS>BOND
     1    1    2 1
     2    1   24 1
     3    1   25 1
     4    1   26 1
     5    2    7 1
     6    2    3 1
     7    3    4 1
     8    3   27 1
     9    3   28 1
    10    4    5 1
    11    4   29 1
    12    4   30 1
    13    5    6 1
    14    5    8 1
    15    6    7 1
    16    6   31 1
    17    6   32 1
    18    7   33 1
    19    7   34 1
    20    8   18 1
    21    8    9 2
    22    9   10 1
    23   10   15 ar
    24   10   11 ar
    25   11   12 ar
    26   11   35 1
    27   12   13 ar
    28   12   23 1
    29   13   14 ar
    30   13   36 1
    31   14   15 ar
    32   14   37 1
    33   15   16 1
    34   16   17 1
    35   16   38 1
    36   17   22 ar
    37   17   18 ar
    38   18   19 ar
    39   19   20 ar
    40   19   39 1
    41   20   21 ar
    42   20   40 1
    43   21   22 ar
    44   21   41 1
    45   22   42 1
@<TRIPOS>MOLECULE
ZINC19796155
   44    47     0     0     0
SMALL
USER_CHARGES

@<TRIPOS>ATOM
      1 C1         -1.5703   -0.0018   -1.9302 C.3       1 <0>        -0.0497
      2 N1         -0.7527   -0.7171   -0.9414 N.4       1 <0>        -0.3854
      3 C2         -1.0498   -2.1535   -1.0104 C.3       1 <0>        -0.0252
      4 C3         -0.2839   -2.8861    0.0962 C.3       1 <0>         0.1048
      5 N2          1.1441   -2.5548   -0.0269 N.pl3     1 <0>        -0.7052
      6 C4          1.5202   -1.1363   -0.1296 C.3       1 <0>         0.1049
      7 C5          0.6692   -0.4862   -1.2256 C.3       1 <0>        -0.0251
      8 C6          2.0831   -3.5253   -0.0448 C.2       1 <0>         0.6309
      9 C7          2.6112   -3.9094    1.2074 C.ar      1 <0>        -0.2438
     10 C8          2.0495   -3.1929    2.2728 C.ar      1 <0>         0.0055
     11 C9          2.4602   -3.4528    3.5483 C.ar      1 <0>        -0.1817
     12 C10         3.4265   -4.4148    3.8208 C.ar      1 <0>         0.0489
     13 C11         4.0101   -5.1439    2.8276 C.ar      1 <0>        -0.2233
     14 C12         3.6302   -4.9235    1.4921 C.ar      1 <0>         0.3343
     15 N3          4.2865   -5.7106    0.6358 N.pl3     1 <0>        -0.6131
     16 C13         4.1767   -5.7728   -0.7271 C.ar      1 <0>         0.1589
     17 C14         5.0408   -6.7320   -1.2562 C.ar      1 <0>        -0.1157
     18 C15         5.0795   -6.9478   -2.6222 C.ar      1 <0>        -0.0495
     19 C16         4.2642   -6.2154   -3.4643 C.ar      1 <0>        -0.0338
     20 C17         3.4016   -5.2585   -2.9468 C.ar      1 <0>        -0.0846
     21 C18         3.3520   -5.0321   -1.5848 C.ar      1 <0>         0.0769
     22 N4          2.4115   -4.0290   -1.2719 N.pl3     1 <0>        -0.5773
     23 Cl1         4.3195   -6.4929   -5.1771 Cl        1 <0>        -0.0159
     24 H1         -1.3348   -0.3678   -2.9295 H         1 <0>         0.1246
     25 H2         -2.6262   -0.1724   -1.7203 H         1 <0>         0.1321
     26 H3         -1.3566    1.0656   -1.8745 H         1 <0>         0.1321
     27 H4         -2.1201   -2.3101   -0.8766 H         1 <0>         0.1569
     28 H5         -0.7442   -2.5415   -1.9820 H         1 <0>         0.1344
     29 H6         -0.6518   -2.5648    1.0707 H         1 <0>         0.1155
     30 H7         -0.4211   -3.9618   -0.0138 H         1 <0>         0.1302
     31 H8          1.3345   -0.6383    0.8220 H         1 <0>         0.1155
     32 H9          2.5758   -1.0551   -0.3891 H         1 <0>         0.1302
     33 H10         0.9228   -0.9247   -2.1907 H         1 <0>         0.1344
     34 H11         0.8655    0.5856   -1.2504 H         1 <0>         0.1569
     35 H12         1.2975   -2.4405    2.0860 H         1 <0>         0.1502
     36 H13         2.0243   -2.8976    4.3657 H         1 <0>         0.1496
     37 H14         3.7223   -4.5886    4.8448 H         1 <0>         0.1558
     38 H15         4.7590   -5.8851    3.0650 H         1 <0>         0.1623
     39 H16         5.6790   -7.3052   -0.6001 H         1 <0>         0.1677
     40 H17         5.7487   -7.6901   -3.0316 H         1 <0>         0.1653
     41 H18         2.7675   -4.6896   -3.6107 H         1 <0>         0.1565
     42 H19         1.9393   -3.6432   -2.0263 H         1 <0>         0.4255
     43 H20         4.9278   -6.3202    1.0333 H         1 <0>         0.4372
     44 H21        -0.9695   -0.3754   -0.0171 H         1 <0>         0.4310
@<TRIPOS>BOND
     1    1    2 1
     2    1   24 1
     3    1   25 1
     4    1   26 1
     5    2    7 1
     6    2    3 1
     7    2   44 1
     8    3    4 1
     9    3   27 1
    10    3   28 1
    11    4    5 1
    12    4   29 1
    13    4   30 1
    14    5    6 1
    15    5    8 1
    16    6    7 1
    17    6   31 1
    18    6   32 1
    19    7   33 1
    20    7   34 1
    21    8   22 1
    22    8    9 2
    23    9   14 ar
    24    9   10 ar
    25   10   11 ar
    26   10   35 1
    27   11   12 ar
    28   11   36 1
    29   12   13 ar
    30   12   37 1
    31   13   14 ar
    32   13   38 1
    33   14   15 2
    34   15   16 1
    35   15   43 1
    36   16   21 ar
    37   16   17 ar
    38   17   18 ar
    39   17   39 1
    40   18   19 ar
    41   18   40 1
    42   19   20 ar
    43   19   23 1
    44   20   21 ar
    45   20   41 1
    46   21   22 1
    47   22   42 1
@<TRIPOS>MOLECULE
ZINC19796155
   43    46     0     0     0
SMALL
USER_CHARGES

@<TRIPOS>ATOM
      1 C1         -0.0523    1.4387   -0.3863 C.3       1 <0>        -0.0469
      2 N1         -0.0147   -0.0168   -0.1908 N.4       1 <0>        -0.3852
      3 C2          0.4863   -0.6601   -1.4120 C.3       1 <0>        -0.0213
      4 C3          0.4181   -2.1823   -1.2510 C.3       1 <0>         0.1002
      5 N2          1.1441   -2.5548   -0.0269 N.pl3     1 <0>        -0.6180
      6 C4          0.8178   -1.8405    1.2170 C.3       1 <0>         0.0860
      7 C5          0.8671   -0.3344    0.9395 C.3       1 <0>        -0.0221
      8 C6          2.1017   -3.5432   -0.0451 C.2       1 <0>         0.5019
      9 N3          2.4234   -4.0210   -1.1951 N.2       1 <0>        -0.5760
     10 C7          3.3217   -5.0050   -1.4750 C.ar      1 <0>         0.1390
     11 C8          3.0096   -5.9522   -2.4541 C.ar      1 <0>        -0.0932
     12 C9          3.9229   -6.9340   -2.7877 C.ar      1 <0>        -0.0267
     13 C10         5.1529   -6.9852   -2.1572 C.ar      1 <0>        -0.1032
     14 C11         5.4673   -6.0631   -1.1730 C.ar      1 <0>        -0.1031
     15 C12         4.5533   -5.0871   -0.8155 C.ar      1 <0>         0.1235
     16 N4          4.8505   -4.2243    0.2524 N.pl3     1 <0>        -0.7273
     17 C13         4.0239   -4.2464    1.3765 C.ar      1 <0>         0.2173
     18 C14         2.6645   -3.9489    1.2520 C.ar      1 <0>        -0.1537
     19 C15         1.8414   -4.0345    2.3754 C.ar      1 <0>        -0.0841
     20 C16         2.3802   -4.3733    3.6007 C.ar      1 <0>        -0.1334
     21 C17         3.7349   -4.6261    3.7220 C.ar      1 <0>        -0.0692
     22 C18         4.5500   -4.5705    2.6174 C.ar      1 <0>        -0.1369
     23 Cl1         3.5248   -8.1083   -4.0027 Cl        1 <0>        -0.0551
     24 H1          0.9534    1.8033   -0.5956 H         1 <0>         0.1211
     25 H2         -0.7066    1.6758   -1.2253 H         1 <0>         0.1256
     26 H3         -0.4316    1.9169    0.5167 H         1 <0>         0.1252
     27 H4         -0.1269   -0.3565   -2.2605 H         1 <0>         0.1425
     28 H5          1.5196   -0.3587   -1.5839 H         1 <0>         0.1315
     29 H6         -0.6226   -2.4957   -1.1694 H         1 <0>         0.0898
     30 H7          0.8819   -2.6629   -2.1125 H         1 <0>         0.1431
     31 H8         -0.1827   -2.1194    1.5479 H         1 <0>         0.0960
     32 H9          1.5457   -2.0950    1.9873 H         1 <0>         0.1385
     33 H10         1.8889   -0.0428    0.6965 H         1 <0>         0.1320
     34 H11         0.5345    0.2092    1.8238 H         1 <0>         0.1439
     35 H12         2.0515   -5.9169   -2.9512 H         1 <0>         0.1396
     36 H13         5.8689   -7.7454   -2.4325 H         1 <0>         0.1422
     37 H14         6.4287   -6.1057   -0.6827 H         1 <0>         0.1382
     38 H15         5.6134   -3.6267    0.2096 H         1 <0>         0.4129
     39 H16         0.7836   -3.8354    2.2868 H         1 <0>         0.1314
     40 H17         1.7411   -4.4409    4.4686 H         1 <0>         0.1357
     41 H18         4.1512   -4.8742    4.6872 H         1 <0>         0.1370
     42 H19         5.6063   -4.7705    2.7202 H         1 <0>         0.1363
     43 H20        -0.9456   -0.3526    0.0057 H         1 <0>         0.4250
@<TRIPOS>BOND
     1    1    2 1
     2    1   24 1
     3    1   25 1
     4    1   26 1
     5    2    7 1
     6    2    3 1
     7    2   43 1
     8    3    4 1
     9    3   27 1
    10    3   28 1
    11    4    5 1
    12    4   29 1
    13    4   30 1
    14    5    6 1
    15    5    8 1
    16    6    7 1
    17    6   31 1
    18    6   32 1
    19    7   33 1
    20    7   34 1
    21    8   18 1
    22    8    9 2
    23    9   10 1
    24   10   15 ar
    25   10   11 ar
    26   11   12 ar
    27   11   35 1
    28   12   13 ar
    29   12   23 1
    30   13   14 ar
    31   13   36 1
    32   14   15 ar
    33   14   37 1
    34   15   16 1
    35   16   17 1
    36   16   38 1
    37   17   22 ar
    38   17   18 ar
    39   18   19 ar
    40   19   20 ar
    41   19   39 1
    42   20   21 ar
    43   20   40 1
    44   21   22 ar
    45   21   41 1
    46   22   42 1
@<TRIPOS>MOLECULE
ZINC03794612
   73    76     0     0     0
SMALL
USER_CHARGES

@<TRIPOS>ATOM
      1 C1         -2.2632    1.5621    0.5937 C.3       1 <0>        -0.1908
      2 C2         -2.1841    0.0741    0.9409 C.3       1 <0>        -0.0141
      3 N1         -1.4380   -0.6344   -0.1076 N.4       1 <0>        -0.3871
      4 C3         -0.0464   -0.1639   -0.1213 C.3       1 <0>        -0.0169
      5 C4          0.6886   -0.7803   -1.3132 C.3       1 <0>        -0.1888
      6 C5         -1.4642   -2.0780    0.1631 C.3       1 <0>        -0.0147
      7 C6         -2.9005   -2.5924    0.0482 C.3       1 <0>        -0.1504
      8 C7         -2.9127   -4.1130    0.2172 C.3       1 <0>        -0.1202
      9 C8         -4.3490   -4.6275    0.1022 C.3       1 <0>        -0.1173
     10 C9         -4.3612   -6.1481    0.2713 C.3       1 <0>        -0.1020
     11 C10        -3.9243   -6.5086    1.6941 C.3       1 <0>        -0.1424
     12 C11        -4.0149   -8.0247    1.8808 C.3       1 <0>        -0.0073
     13 N2         -5.3982   -8.4660    1.6655 N.4       1 <0>        -0.3693
     14 C12        -5.7998   -8.1882    0.2813 C.3       1 <0>        -0.0219
     15 C13        -5.7779   -6.6785    0.0330 C.3       1 <0>        -0.1371
     16 C14        -5.4957   -9.9091    1.9219 C.3       1 <0>        -0.0265
     17 C15        -6.9360  -10.3410    1.8213 C.2       1 <0>         0.5228
     18 O1         -7.7965   -9.5267    1.5616 O.2       1 <0>        -0.4964
     19 N3         -7.2679  -11.6321    2.0200 N.am      1 <0>        -0.4816
     20 C16        -8.5959  -12.0438    1.9237 C.ar      1 <0>         0.1454
     21 C17        -9.5557  -11.4947    2.7618 C.ar      1 <0>        -0.1001
     22 C18       -10.8646  -11.9297    2.6944 C.ar      1 <0>        -0.0736
     23 C19       -11.2268  -12.9173    1.7932 C.ar      1 <0>        -0.1046
     24 C20       -10.2892  -13.4622    0.9432 C.ar      1 <0>        -0.0446
     25 C21        -8.9637  -13.0188    0.9863 C.ar      1 <0>        -0.1309
     26 C22        -7.9884  -13.5375    0.0200 C.2       1 <0>         0.5655
     27 O2         -8.3871  -13.7482   -1.1090 O.2       1 <0>        -0.5006
     28 N4         -6.7131  -13.7964    0.2664 N.am      1 <0>        -0.6568
     29 C23        -6.0495  -13.6592    1.4821 C.ar      1 <0>         0.1250
     30 C24        -6.2849  -12.5788    2.3197 C.ar      1 <0>         0.2750
     31 N5         -5.5803  -12.4388    3.4344 N.ar      1 <0>        -0.4758
     32 C25        -4.6764  -13.3247    3.8046 C.ar      1 <0>         0.1154
     33 C26        -4.4257  -14.4449    3.0378 C.ar      1 <0>        -0.1214
     34 C27        -5.1177  -14.6203    1.8626 C.ar      1 <0>        -0.0789
     35 H1         -2.8169    2.0877    1.3717 H         1 <0>         0.1078
     36 H2         -1.2561    1.9729    0.5238 H         1 <0>         0.0821
     37 H3         -2.7732    1.6856   -0.3617 H         1 <0>         0.0811
     38 H4         -1.6741   -0.0494    1.8963 H         1 <0>         0.1288
     39 H5         -3.1913   -0.3368    1.0109 H         1 <0>         0.1294
     40 H6         -0.0310    0.9226   -0.2073 H         1 <0>         0.1348
     41 H7          0.4471   -0.4622    0.8037 H         1 <0>         0.1292
     42 H8          1.7313   -0.4629   -1.3007 H         1 <0>         0.1084
     43 H9          0.6389   -1.8673   -1.2482 H         1 <0>         0.0776
     44 H10         0.2193   -0.4499   -2.2399 H         1 <0>         0.0814
     45 H11        -0.8341   -2.5949   -0.5607 H         1 <0>         0.1322
     46 H12        -1.0905   -2.2657    1.1697 H         1 <0>         0.1288
     47 H13        -3.5134   -2.1356    0.8252 H         1 <0>         0.0887
     48 H14        -3.3022   -2.3325   -0.9312 H         1 <0>         0.0880
     49 H15        -2.2998   -4.5699   -0.5598 H         1 <0>         0.0771
     50 H16        -2.5110   -4.3729    1.1966 H         1 <0>         0.0757
     51 H17        -4.9619   -4.1706    0.8792 H         1 <0>         0.0745
     52 H18        -4.7507   -4.3676   -0.8771 H         1 <0>         0.0789
     53 H19        -3.6771   -6.6001   -0.4469 H         1 <0>         0.0917
     54 H20        -2.8962   -6.1832    1.8526 H         1 <0>         0.1133
     55 H21        -4.5782   -6.0137    2.4121 H         1 <0>         0.0914
     56 H22        -3.3605   -8.5186    1.1626 H         1 <0>         0.1309
     57 H23        -3.7044   -8.2849    2.8927 H         1 <0>         0.1351
     58 H24        -5.1074   -8.6786   -0.4029 H         1 <0>         0.1259
     59 H25        -6.8070   -8.5692    0.1123 H         1 <0>         0.1473
     60 H26        -6.4703   -6.1871    0.7165 H         1 <0>         0.0915
     61 H27        -6.0746   -6.4745   -0.9958 H         1 <0>         0.1137
     62 H28        -4.9019  -10.4500    1.1851 H         1 <0>         0.1564
     63 H29        -5.1202  -10.1267    2.9218 H         1 <0>         0.1745
     64 H30        -9.2786  -10.7262    3.4682 H         1 <0>         0.1348
     65 H31       -11.6089  -11.4983    3.3473 H         1 <0>         0.1452
     66 H32       -12.2496  -13.2623    1.7568 H         1 <0>         0.1475
     67 H33       -10.5780  -14.2325    0.2435 H         1 <0>         0.1481
     68 H34        -6.1845  -14.1166   -0.4812 H         1 <0>         0.4187
     69 H35        -4.1243  -13.1716    4.7201 H         1 <0>         0.1796
     70 H36        -3.6969  -15.1746    3.3585 H         1 <0>         0.1610
     71 H37        -4.9356  -15.4871    1.2446 H         1 <0>         0.1595
     72 H38        -6.0100   -7.9720    2.2977 H         1 <0>         0.4299
     73 H39        -1.8633   -0.4526   -1.0043 H         1 <0>         0.4227
@<TRIPOS>BOND
     1    1    2 1
     2    1   35 1
     3    1   36 1
     4    1   37 1
     5    2    3 1
     6    2   38 1
     7    2   39 1
     8    3    4 1
     9    3    6 1
    10    3   73 1
    11    4    5 1
    12    4   40 1
    13    4   41 1
    14    5   42 1
    15    5   43 1
    16    5   44 1
    17    6    7 1
    18    6   45 1
    19    6   46 1
    20    7    8 1
    21    7   47 1
    22    7   48 1
    23    8    9 1
    24    8   49 1
    25    8   50 1
    26    9   10 1
    27    9   51 1
    28    9   52 1
    29   10   15 1
    30   10   11 1
    31   10   53 1
    32   11   12 1
    33   11   54 1
    34   11   55 1
    35   12   13 1
    36   12   56 1
    37   12   57 1
    38   13   14 1
    39   13   16 1
    40   13   72 1
    41   14   15 1
    42   14   58 1
    43   14   59 1
    44   15   60 1
    45   15   61 1
    46   16   17 1
    47   16   62 1
    48   16   63 1
    49   17   18 2
    50   17   19 am
    51   19   30 1
    52   19   20 1
    53   20   25 ar
    54   20   21 ar
    55   21   22 ar
    56   21   64 1
    57   22   23 ar
    58   22   65 1
    59   23   24 ar
    60   23   66 1
    61   24   25 ar
    62   24   67 1
    63   25   26 1
    64   26   27 2
    65   26   28 am
    66   28   29 1
    67   28   68 1
    68   29   34 ar
    69   29   30 ar
    70   30   31 ar
    71   31   32 ar
    72   32   33 ar
    73   32   69 1
    74   33   34 ar
    75   33   70 1
    76   34   71 1
@<TRIPOS>MOLECULE
ZINC40828817
   32    34     0     0     0
SMALL
USER_CHARGES

@<TRIPOS>ATOM
      1 C1          0.0235    1.3553    0.6562 C.ar      1 <0>        -0.1410
      2 C2          1.1712    2.0683    0.3742 C.ar      1 <0>         0.0044
      3 C3          2.3701    1.3904    0.1545 C.ar      1 <0>        -0.2259
      4 C4          2.4143   -0.0117    0.2188 C.ar      1 <0>         0.2059
      5 C5          1.2477   -0.7099    0.5052 C.ar      1 <0>        -0.0761
      6 C6          0.0635   -0.0272    0.7204 C.ar      1 <0>        -0.0311
      7 Cl1         1.2752   -2.4436    0.5900 Cl        1 <0>        -0.0447
      8 N1          3.7122   -0.4510   -0.0354 N.am      1 <0>        -0.5380
      9 C7          4.5431    0.5800   -0.2671 C.2       1 <0>         0.4932
     10 O1          5.7278    0.5041   -0.5168 O.2       1 <0>        -0.4328
     11 C8          3.7382    1.8412   -0.1616 C.2       1 <0>         0.3934
     12 O2          4.1271    2.9817   -0.3053 O.2       1 <0>        -0.3587
     13 C9          4.1196   -1.8581   -0.0479 C.3       1 <0>         0.1326
     14 C10         4.1208   -2.3682   -1.4659 C.ar      1 <0>        -0.0895
     15 C11         2.9474   -2.8227   -2.0380 C.ar      1 <0>        -0.1087
     16 C12         2.9485   -3.2905   -3.3388 C.ar      1 <0>        -0.0717
     17 C13         4.1231   -3.3034   -4.0676 C.ar      1 <0>        -0.1719
     18 C14         5.2964   -2.8480   -3.4958 C.ar      1 <0>        -0.0707
     19 C15         5.2943   -2.3762   -2.1965 C.ar      1 <0>        -0.0938
     20 C16         4.1245   -3.8143   -5.4854 C.3       1 <0>         0.5075
     21 F1          3.8661   -2.7558   -6.3628 F         1 <0>        -0.1747
     22 F2          5.3745   -4.3694   -5.7797 F         1 <0>        -0.1750
     23 F3          3.1344   -4.7920   -5.6297 F         1 <0>        -0.1754
     24 H1         -0.9060    1.8766    0.8314 H         1 <0>         0.1516
     25 H2          1.1410    3.1467    0.3235 H         1 <0>         0.1488
     26 H3         -0.8384   -0.5784    0.9420 H         1 <0>         0.1525
     27 H4          5.1211   -1.9502    0.3723 H         1 <0>         0.1087
     28 H5          3.4202   -2.4442    0.5484 H         1 <0>         0.1189
     29 H6          2.0297   -2.8126   -1.4686 H         1 <0>         0.1406
     30 H7          2.0319   -3.6463   -3.7855 H         1 <0>         0.1398
     31 H8          6.2141   -2.8584   -4.0652 H         1 <0>         0.1407
     32 H9          6.2102   -2.0170   -1.7510 H         1 <0>         0.1411
@<TRIPOS>BOND
     1    1    6 ar
     2    1    2 ar
     3    1   24 1
     4    2    3 ar
     5    2   25 1
     6    3   11 1
     7    3    4 ar
     8    4    5 ar
     9    4    8 1
    10    5    6 ar
    11    5    7 1
    12    6   26 1
    13    8    9 am
    14    8   13 1
    15    9   10 2
    16    9   11 1
    17   11   12 2
    18   13   14 1
    19   13   27 1
    20   13   28 1
    21   14   19 ar
    22   14   15 ar
    23   15   16 ar
    24   15   29 1
    25   16   17 ar
    26   16   30 1
    27   17   18 ar
    28   17   20 1
    29   18   19 ar
    30   18   31 1
    31   19   32 1
    32   20   21 1
    33   20   22 1
    34   20   23 1
@<TRIPOS>MOLECULE
ZINC03786156
   21    21     0     0     0
SMALL
USER_CHARGES
methyl 1,4,5,6-tetrahydropyrimidine-5-carboxylate
@<TRIPOS>ATOM
      1 C1         -0.0176    1.4478    0.0100 C.3       1 <0>         0.0338
      2 O1          0.0021   -0.0041    0.0020 O.3       1 <0>        -0.3519
      3 C2          0.6181   -0.6108    1.0287 C.2       1 <0>         0.4729
      4 O2          1.1242    0.0494    1.9050 O.2       1 <0>        -0.4790
      5 C3          0.6786   -2.1154    1.0883 C.3       1 <0>        -0.1161
      6 H1          1.1904   -2.4976    0.2051 H         1 <0>         0.1404
      7 C4          1.4325   -2.5533    2.3534 C.3       1 <0>         0.0888
      8 N1          1.4356   -4.0243    2.3746 N.pl3     1 <0>        -0.6512
      9 C5          0.2889   -4.6908    2.0332 C.cat     1 <0>         0.5013
     10 C6         -0.7400   -2.6864    1.1506 C.3       1 <0>         0.0711
     11 H2          1.0050    1.8251    0.0023 H         1 <0>         0.0730
     12 H3         -0.5448    1.8089   -0.8731 H         1 <0>         0.1143
     13 H4         -0.5278    1.7993    0.9068 H         1 <0>         0.0722
     14 H5          2.4564   -2.1808    2.3224 H         1 <0>         0.1344
     15 H6          0.9253   -2.1698    3.2387 H         1 <0>         0.1175
     16 H7          2.2349   -4.5131    2.6261 H         1 <0>         0.4550
     17 H8          0.2204   -5.7479    2.2436 H         1 <0>         0.2227
     18 H9         -1.3073   -2.1572    1.9162 H         1 <0>         0.1162
     19 H10        -1.2257   -2.5486    0.1845 H         1 <0>         0.1329
     20 N2         -0.7825   -4.1645    1.4520 N.pl3     1 <0>        -0.6270
     21 H11        -1.6023   -4.7368    1.2182 H         1 <0>         0.4786
@<TRIPOS>BOND
     1    1    2 1
     2    1   11 1
     3    1   12 1
     4    1   13 1
     5    2    3 1
     6    3    4 2
     7    3    5 1
     8    5    6 1
     9    5   10 1
    10    5    7 1
    11    7    8 1
    12    7   14 1
    13    7   15 1
    14    8    9 1
    15    8   16 1
    16    9   17 1
    17    9   20 2
    18   10   18 1
    19   10   19 1
    20   10   20 1
    21   20   21 1
@<TRIPOS>MOLECULE
ZINC13738330
   21    21     0     0     0
SMALL
USER_CHARGES
methyl (5R)-1,4,5,6-tetrahydropyrimidine-5-carboxylate
@<TRIPOS>ATOM
      1 C1         -3.7794    5.5037   -1.6828 C.3       1 <0>         0.0339
      2 O1         -2.5238    4.7758   -1.7294 O.3       1 <0>        -0.3519
      3 C2         -2.4251    3.6812   -0.9588 C.2       1 <0>         0.4731
      4 O2         -3.3570    3.3424   -0.2683 O.2       1 <0>        -0.4789
      5 C3         -1.1521    2.8747   -0.9550 C.3       1 <0>        -0.1161
      6 H1         -0.9533    2.4976   -1.9582 H         1 <0>         0.1402
      7 C4         -1.2871    1.6978    0.0173 C.3       1 <0>         0.0884
      8 N1         -0.0111    0.9658    0.0074 N.pl3     1 <0>        -0.6508
      9 C5          1.1579    1.6794    0.0000 C.cat     1 <0>         0.5011
     10 C6          0.0134    3.7533   -0.4942 C.3       1 <0>         0.0712
     11 H2         -3.9640    5.8449   -0.6642 H         1 <0>         0.0723
     12 H3         -3.7256    6.3640   -2.3500 H         1 <0>         0.1143
     13 H4         -4.5911    4.8486   -1.9993 H         1 <0>         0.0730
     14 H5         -2.0941    1.0406   -0.3066 H         1 <0>         0.1346
     15 H6         -1.4923    2.0716    1.0204 H         1 <0>         0.1170
     16 H7          0.0021   -0.0041    0.0020 H         1 <0>         0.4551
     17 H8          2.0845    1.1601    0.1957 H         1 <0>         0.2227
     18 H9         -0.2717    4.2800    0.4165 H         1 <0>         0.1162
     19 H10         0.2447    4.4808   -1.2722 H         1 <0>         0.1330
     20 N2          1.2826    2.9812   -0.2288 N.pl3     1 <0>        -0.6271
     21 H11         2.2004    3.4415   -0.2254 H         1 <0>         0.4786
@<TRIPOS>BOND
     1    1    2 1
     2    1   11 1
     3    1   12 1
     4    1   13 1
     5    2    3 1
     6    3    4 2
     7    3    5 1
     8    5    6 1
     9    5   10 1
    10    5    7 1
    11    7    8 1
    12    7   14 1
    13    7   15 1
    14    8    9 1
    15    8   16 1
    16    9   17 1
    17    9   20 2
    18   10   18 1
    19   10   19 1
    20   10   20 1
    21   20   21 1
@<TRIPOS>MOLECULE
ZINC00537822
   50    52     0     0     0
SMALL
USER_CHARGES

@<TRIPOS>ATOM
      1 C1         -0.0169    1.3952    0.0097 C.ar      1 <0>        -0.0260
      2 C2          1.1683    2.0970    0.0022 C.ar      1 <0>        -0.1650
      3 C3          2.3789    1.4198   -0.0130 C.ar      1 <0>         0.1439
      4 C4          2.4047    0.0329   -0.0212 C.ar      1 <0>        -0.1670
      5 C5          1.2267   -0.6810   -0.0142 C.ar      1 <0>        -0.0432
      6 C6          0.0021   -0.0041    0.0020 C.ar      1 <0>        -0.1967
      7 C7         -1.2591   -0.7596    0.0105 C.2       1 <0>         0.4038
      8 O1         -2.3189   -0.1702    0.0242 O.2       1 <0>        -0.4483
      9 C8         -1.2348   -2.2664    0.0022 C.3       1 <0>        -0.1653
     10 C9         -2.6689   -2.7996    0.0135 C.3       1 <0>        -0.1429
     11 C10        -2.6443   -4.3293    0.0051 C.3       1 <0>        -0.0092
     12 N1         -4.0211   -4.8413    0.0160 N.4       1 <0>        -0.3830
     13 C11        -4.6726   -4.4620    1.2755 C.3       1 <0>        -0.0093
     14 C12        -6.1318   -4.9225    1.2582 C.3       1 <0>        -0.1330
     15 C13        -6.1791   -6.4445    1.0954 C.3       1 <0>         0.1746
     16 C14        -5.4322   -6.8346   -0.1834 C.3       1 <0>        -0.1706
     17 C15        -3.9990   -6.3033   -0.1127 C.3       1 <0>        -0.0017
     18 C16        -7.6135   -6.8966    0.9991 C.ar      1 <0>        -0.1262
     19 C17        -8.5661   -6.0599    0.4482 C.ar      1 <0>        -0.1006
     20 C18        -9.8818   -6.4740    0.3596 C.ar      1 <0>        -0.1039
     21 C19       -10.2453   -7.7262    0.8224 C.ar      1 <0>        -0.0247
     22 C20        -9.2914   -8.5631    1.3735 C.ar      1 <0>        -0.1016
     23 C21        -7.9750   -8.1501    1.4564 C.ar      1 <0>        -0.0934
     24 Cl1       -11.8977   -8.2468    0.7119 Cl        1 <0>        -0.0500
     25 O2         -5.5554   -7.0652    2.2213 O.3       1 <0>        -0.5474
     26 F1          3.5378    2.1141   -0.0204 F         1 <0>        -0.1258
     27 H1         -0.9587    1.9236    0.0260 H         1 <0>         0.1459
     28 H2          1.1551    3.1769    0.0077 H         1 <0>         0.1477
     29 H3          3.3506   -0.4883   -0.0334 H         1 <0>         0.1469
     30 H4          1.2482   -1.7608   -0.0213 H         1 <0>         0.1412
     31 H5         -0.7241   -2.6166   -0.8948 H         1 <0>         0.1127
     32 H6         -0.7064   -2.6261    0.8850 H         1 <0>         0.1127
     33 H7         -3.1796   -2.4493    0.9105 H         1 <0>         0.0952
     34 H8         -3.1973   -2.4398   -0.8693 H         1 <0>         0.0947
     35 H9         -2.1335   -4.6796   -0.8919 H         1 <0>         0.1333
     36 H10        -2.1158   -4.6891    0.8880 H         1 <0>         0.1327
     37 H11        -4.1530   -4.9339    2.1093 H         1 <0>         0.1388
     38 H12        -4.6353   -3.3788    1.3915 H         1 <0>         0.1356
     39 H13        -6.6132   -4.6415    2.1949 H         1 <0>         0.1238
     40 H14        -6.6524   -4.4509    0.4248 H         1 <0>         0.1045
     41 H15        -5.4137   -7.9204   -0.2771 H         1 <0>         0.1175
     42 H16        -5.9384   -6.4027   -1.0467 H         1 <0>         0.1009
     43 H17        -3.4644   -6.5795   -1.0215 H         1 <0>         0.1329
     44 H18        -3.4937   -6.7360    0.7507 H         1 <0>         0.1354
     45 H19        -8.2824   -5.0823    0.0874 H         1 <0>         0.1334
     46 H20       -10.6260   -5.8201   -0.0704 H         1 <0>         0.1408
     47 H21        -9.5746   -9.5405    1.7352 H         1 <0>         0.1414
     48 H22        -7.2294   -8.8051    1.8823 H         1 <0>         0.1323
     49 H23        -5.5495   -8.0314    2.1846 H         1 <0>         0.3907
     50 H24        -4.5327   -4.4442   -0.7578 H         1 <0>         0.4215
@<TRIPOS>BOND
     1    1    6 ar
     2    1    2 ar
     3    1   27 1
     4    2    3 ar
     5    2   28 1
     6    3    4 ar
     7    3   26 1
     8    4    5 ar
     9    4   29 1
    10    5    6 ar
    11    5   30 1
    12    6    7 1
    13    7    8 2
    14    7    9 1
    15    9   10 1
    16    9   31 1
    17    9   32 1
    18   10   11 1
    19   10   33 1
    20   10   34 1
    21   11   12 1
    22   11   35 1
    23   11   36 1
    24   12   17 1
    25   12   13 1
    26   12   50 1
    27   13   14 1
    28   13   37 1
    29   13   38 1
    30   14   15 1
    31   14   39 1
    32   14   40 1
    33   15   16 1
    34   15   18 1
    35   15   25 1
    36   16   17 1
    37   16   41 1
    38   16   42 1
    39   17   43 1
    40   17   44 1
    41   18   23 ar
    42   18   19 ar
    43   19   20 ar
    44   19   45 1
    45   20   21 ar
    46   20   46 1
    47   21   22 ar
    48   21   24 1
    49   22   23 ar
    50   22   47 1
    51   23   48 1
    52   25   49 1
@<TRIPOS>MOLECULE
ZINC03786169
   24    24     0     0     0
SMALL
USER_CHARGES
ethyl 1,4,5,6-tetrahydropyrimidine-5-carboxylate
@<TRIPOS>ATOM
      1 C1         -0.0187    1.5258    0.0104 C.3       1 <0>        -0.1573
      2 C2          0.0021   -0.0041    0.0020 C.3       1 <0>         0.0634
      3 O1         -1.3601   -0.5067    0.0123 O.3       1 <0>        -0.3518
      4 C3         -1.5179   -1.8396    0.0067 C.2       1 <0>         0.4747
      5 O2         -0.5499   -2.5625   -0.0065 O.2       1 <0>        -0.4803
      6 C4         -2.9025   -2.4345    0.0167 C.3       1 <0>        -0.1163
      7 H1         -3.4508   -2.1032   -0.8652 H         1 <0>         0.1400
      8 C5         -2.8070   -3.9679    0.0209 C.3       1 <0>         0.0888
      9 N1         -4.1808   -4.4926    0.0600 N.pl3     1 <0>        -0.6510
     10 C6         -5.0923   -3.8920    0.8872 C.cat     1 <0>         0.5010
     11 C7         -3.6441   -1.9934    1.2808 C.3       1 <0>         0.0713
     12 H2          1.0039    1.9031    0.0027 H         1 <0>         0.0898
     13 H3         -0.5459    1.8868   -0.8726 H         1 <0>         0.0705
     14 H4         -0.5289    1.8773    0.9072 H         1 <0>         0.0695
     15 H5          0.5123   -0.3556   -0.8948 H         1 <0>         0.0793
     16 H6          0.5293   -0.3651    0.8851 H         1 <0>         0.0787
     17 H7         -2.3049   -4.3106   -0.8839 H         1 <0>         0.1345
     18 H8         -2.2559   -4.3026    0.8998 H         1 <0>         0.1174
     19 H9         -4.4363   -5.2500   -0.4895 H         1 <0>         0.4549
     20 H10        -6.0310   -4.3918    1.0755 H         1 <0>         0.2226
     21 H11        -3.0027   -2.1521    2.1477 H         1 <0>         0.1160
     22 H12        -3.8873   -0.9337    1.2036 H         1 <0>         0.1328
     23 N2         -4.9458   -2.7246    1.5025 N.pl3     1 <0>        -0.6271
     24 H13        -5.6840   -2.3370    2.1016 H         1 <0>         0.4784
@<TRIPOS>BOND
     1    1    2 1
     2    1   12 1
     3    1   13 1
     4    1   14 1
     5    2    3 1
     6    2   15 1
     7    2   16 1
     8    3    4 1
     9    4    5 2
    10    4    6 1
    11    6    7 1
    12    6   11 1
    13    6    8 1
    14    8    9 1
    15    8   17 1
    16    8   18 1
    17    9   10 1
    18    9   19 1
    19   10   20 1
    20   10   23 2
    21   11   21 1
    22   11   22 1
    23   11   23 1
    24   23   24 1
@<TRIPOS>MOLECULE
ZINC13738331
   24    24     0     0     0
SMALL
USER_CHARGES
ethyl (5R)-1,4,5,6-tetrahydropyrimidine-5-carboxylate
@<TRIPOS>ATOM
      1 C1         -0.7527    1.5927   -1.2315 C.3       1 <0>        -0.1573
      2 C2         -0.0127    1.0858    0.0080 C.3       1 <0>         0.0634
      3 O1         -0.6923    1.5541    1.2026 O.3       1 <0>        -0.3518
      4 C3         -0.1661    1.1940    2.3838 C.2       1 <0>         0.4747
      5 O2          0.8294    0.5102    2.4184 O.2       1 <0>        -0.4803
      6 C4         -0.8170    1.6426    3.6668 C.3       1 <0>        -0.1163
      7 H1         -0.8326    2.7317    3.7093 H         1 <0>         0.1401
      8 C5         -0.0326    1.0891    4.8663 C.3       1 <0>         0.0888
      9 N1         -0.7262    1.5320    6.0857 N.pl3     1 <0>        -0.6510
     10 C6         -2.0944    1.4829    6.1204 C.cat     1 <0>         0.5011
     11 C7         -2.2478    1.1035    3.7351 C.3       1 <0>         0.0714
     12 H2         -1.7753    1.2154   -1.2238 H         1 <0>         0.0695
     13 H3         -0.7675    2.6825   -1.2255 H         1 <0>         0.0705
     14 H4         -0.2425    1.2411   -2.1283 H         1 <0>         0.0898
     15 H5          0.0021   -0.0041    0.0020 H         1 <0>         0.0787
     16 H6          1.0099    1.4631    0.0003 H         1 <0>         0.0793
     17 H7         -0.0130   -0.0000    4.8257 H         1 <0>         0.1172
     18 H8          0.9854    1.4786    4.8552 H         1 <0>         0.1346
     19 H9         -0.2238    1.8525    6.8511 H         1 <0>         0.4549
     20 H10        -2.5946    1.6067    7.0695 H         1 <0>         0.2226
     21 H11        -2.8656    1.6304    3.0080 H         1 <0>         0.1328
     22 H12        -2.2428    0.0396    3.4979 H         1 <0>         0.1160
     23 N2         -2.9007    1.2949    5.0824 N.pl3     1 <0>        -0.6271
     24 H13        -3.9216    1.2805    5.1912 H         1 <0>         0.4784
@<TRIPOS>BOND
     1    1    2 1
     2    1   12 1
     3    1   13 1
     4    1   14 1
     5    2    3 1
     6    2   15 1
     7    2   16 1
     8    3    4 1
     9    4    5 2
    10    4    6 1
    11    6    7 1
    12    6   11 1
    13    6    8 1
    14    8    9 1
    15    8   17 1
    16    8   18 1
    17    9   10 1
    18    9   19 1
    19   10   20 1
    20   10   23 2
    21   11   21 1
    22   11   22 1
    23   11   23 1
    24   23   24 1
@<TRIPOS>MOLECULE
ZINC13741159
   25    26     0     0     0
SMALL
USER_CHARGES
1-oxa-8-azaspiro[4.5]decan-3-one
@<TRIPOS>ATOM
      1 C1         -0.0127    1.0858    0.0080 C.3       1 <0>        -0.1390
      2 C2         -0.7309    1.5804    1.2665 C.3       1 <0>        -0.0004
      3 C3         -1.5448    3.5471    0.1045 C.3       1 <0>         0.0014
      4 C4         -0.8520    3.1169   -1.1913 C.3       1 <0>        -0.1609
      5 C5         -0.7532    1.5927   -1.2285 C.3       1 <0>         0.0894
      6 C6         -0.0119    1.1482   -2.5007 C.3       1 <0>        -0.2024
      7 C7         -1.0397    0.3202   -3.2644 C.2       1 <0>         0.3455
      8 O1         -0.8534   -0.5144   -4.1171 O.2       1 <0>        -0.3928
      9 C8         -2.3625    0.8093   -2.6816 C.3       1 <0>         0.0033
     10 O2         -2.0674    1.0177   -1.2831 O.3       1 <0>        -0.3437
     11 H1          0.0021   -0.0041    0.0020 H         1 <0>         0.1219
     12 H2          1.0097    1.4637    0.0003 H         1 <0>         0.1058
     13 H3         -1.7452    1.1818    1.2862 H         1 <0>         0.1372
     14 H4         -0.1902    1.2415    2.1502 H         1 <0>         0.1360
     15 H5         -1.5946    4.6352    0.1459 H         1 <0>         0.1350
     16 H6         -2.5539    3.1359    0.1307 H         1 <0>         0.1365
     17 H7          0.1487    3.5475   -1.2293 H         1 <0>         0.1037
     18 H8         -1.4306    3.4651   -2.0469 H         1 <0>         0.1175
     19 H9          0.2872    1.9545   -3.0111 H         1 <0>         0.1118
     20 H10         0.8543    0.5383   -2.2439 H         1 <0>         0.1164
     21 H11        -2.6423    1.6483   -3.1482 H         1 <0>         0.0955
     22 H12        -3.1367    0.0514   -2.8006 H         1 <0>         0.1285
     23 N1         -0.7771    3.0555    1.2651 N.4       1 <0>        -0.5164
     24 H13         0.1803    3.4235    1.2175 H         1 <0>         0.4312
     25 H14        -1.2260    3.3803    2.1295 H         1 <0>         0.4390
@<TRIPOS>BOND
     1    1    5 1
     2    1    2 1
     3    1   11 1
     4    1   12 1
     5    2   13 1
     6    2   14 1
     7    2   23 1
     8    3    4 1
     9    3   15 1
    10    3   16 1
    11    3   23 1
    12    4    5 1
    13    4   17 1
    14    4   18 1
    15    5   10 1
    16    5    6 1
    17    6    7 1
    18    6   19 1
    19    6   20 1
    20    7    8 2
    21    7    9 1
    22    9   10 1
    23    9   21 1
    24    9   22 1
    25   23   24 1
    26   23   25 1
