@<TRIPOS>MOLECULE
ZINC00614420
   35    36     0     0     0
SMALL
USER_CHARGES
7-amino-N-isopropyl-3,5-dimethyl-9-thia-2-azabicyclo[4.3.0]nona-1,3,5,7-tetraene-8-carboxamide
@<TRIPOS>ATOM
      1 C1         -1.3253   -0.7211    0.0415 C.3       1 <0>        -0.1404
      2 C2         -0.0337    0.0553    0.0302 C.ar      1 <0>         0.0275
      3 C3          1.1750   -0.6002    0.0539 C.ar      1 <0>        -0.1913
      4 C4          2.3621    0.1165    0.0439 C.ar      1 <0>         0.1877
      5 N1          2.3465    1.4349    0.0111 N.ar      1 <0>        -0.4597
      6 C5          1.2161    2.1074   -0.0121 C.ar      1 <0>         0.1383
      7 C6         -0.0463    1.4716   -0.0045 C.ar      1 <0>        -0.1942
      8 C7         -1.1906    2.3694   -0.0396 C.2       1 <0>         0.2983
      9 C8         -0.9562    3.7263   -0.0654 C.2       1 <0>        -0.3335
     10 S1          0.8223    3.8383   -0.0568 S.3       1 <0>         0.1076
     11 C9         -1.9027    4.7810   -0.0971 C.2       1 <0>         0.6193
     12 O1         -3.0943    4.5298   -0.0990 O.2       1 <0>        -0.5500
     13 N2         -1.4839    6.0617   -0.1252 N.am      1 <0>        -0.7242
     14 C10        -2.4621    7.1517   -0.1580 C.3       1 <0>         0.1384
     15 C11        -2.9059    7.4819    1.2685 C.3       1 <0>        -0.1643
     16 C12        -1.8255    8.3894   -0.7935 C.3       1 <0>        -0.1626
     17 N3         -2.4859    1.8711   -0.0423 N.pl3     1 <0>        -0.8374
     18 C13         3.6788   -0.6159    0.0701 C.3       1 <0>        -0.1086
     19 H1         -1.6902   -0.8340   -0.9794 H         1 <0>         0.0877
     20 H2         -1.1537   -1.7055    0.4770 H         1 <0>         0.0851
     21 H3         -2.0661   -0.1853    0.6350 H         1 <0>         0.0843
     22 H4          1.1999   -1.6796    0.0808 H         1 <0>         0.1461
     23 H5         -0.5347    6.2617   -0.1237 H         1 <0>         0.3984
     24 H6         -3.3274    6.8457   -0.7461 H         1 <0>         0.0897
     25 H7         -2.0406    7.7878    1.8565 H         1 <0>         0.0570
     26 H8         -3.6337    8.2929    1.2441 H         1 <0>         0.0665
     27 H9         -3.3594    6.6001    1.7212 H         1 <0>         0.0604
     28 H10        -1.5094    8.1542   -1.8097 H         1 <0>         0.0626
     29 H11        -2.5534    9.2004   -0.8179 H         1 <0>         0.0744
     30 H12        -0.9602    8.6953   -0.2054 H         1 <0>         0.0618
     31 H13        -3.2149    2.4134    0.2976 H         1 <0>         0.4183
     32 H14        -2.6623    0.9806   -0.3840 H         1 <0>         0.4007
     33 H15         4.0028   -0.8176   -0.9509 H         1 <0>         0.0881
     34 H16         4.4259   -0.0025    0.5739 H         1 <0>         0.0846
     35 H17         3.5603   -1.5575    0.6064 H         1 <0>         0.0834
@<TRIPOS>BOND
     1    1    2 1
     2    1   19 1
     3    1   20 1
     4    1   21 1
     5    2    7 ar
     6    2    3 ar
     7    3    4 ar
     8    3   22 1
     9    4    5 ar
    10    4   18 1
    11    5    6 ar
    12    6   10 1
    13    6    7 ar
    14    7    8 1
    15    8    9 2
    16    8   17 1
    17    9   10 1
    18    9   11 1
    19   11   12 2
    20   11   13 am
    21   13   14 1
    22   13   23 1
    23   14   15 1
    24   14   16 1
    25   14   24 1
    26   15   25 1
    27   15   26 1
    28   15   27 1
    29   16   28 1
    30   16   29 1
    31   16   30 1
    32   17   31 1
    33   17   32 1
    34   18   33 1
    35   18   34 1
    36   18   35 1
@<TRIPOS>MOLECULE
ZINC00149918
   39    41     0     0     0
SMALL
USER_CHARGES
7-amino-N-benzyl-3,5-dimethyl-9-thia-2-azabicyclo[4.3.0]nona-1,3,5,7-tetraene-8-carboxamide
@<TRIPOS>ATOM
      1 C1         -3.0168    3.2026    1.7135 C.3       1 <0>        -0.1389
      2 C2         -1.6599    2.5692    1.5440 C.ar      1 <0>         0.0284
      3 C3         -1.5077    1.2064    1.6493 C.ar      1 <0>        -0.1914
      4 C4         -0.2571    0.6265    1.4986 C.ar      1 <0>         0.1872
      5 N1          0.7992    1.3733    1.2415 N.ar      1 <0>        -0.4598
      6 C5          0.7040    2.6802    1.1261 C.ar      1 <0>         0.1365
      7 C6         -0.5229    3.3679    1.2678 C.ar      1 <0>        -0.1927
      8 C7         -0.4438    4.8120    1.1090 C.2       1 <0>         0.2948
      9 C8          0.7849    5.3737    0.8413 C.2       1 <0>        -0.3229
     10 S1          1.8800    3.9687    0.7944 S.3       1 <0>         0.1087
     11 C9          1.1023    6.7417    0.6488 C.2       1 <0>         0.6172
     12 O1          0.2262    7.5850    0.7142 O.2       1 <0>        -0.5454
     13 N2          2.3736    7.1091    0.3935 N.am      1 <0>        -0.7239
     14 C10         2.7016    8.5230    0.1945 C.3       1 <0>         0.1647
     15 C11         4.1780    8.6633   -0.0731 C.ar      1 <0>        -0.1128
     16 C12         5.0561    8.8517    0.9777 C.ar      1 <0>        -0.0999
     17 C13         6.4109    8.9752    0.7327 C.ar      1 <0>        -0.1215
     18 C14         6.8865    8.9211   -0.5642 C.ar      1 <0>        -0.1107
     19 C15         6.0078    8.7383   -1.6155 C.ar      1 <0>        -0.1214
     20 C16         4.6535    8.6092   -1.3700 C.ar      1 <0>        -0.0999
     21 N3         -1.5779    5.6035    1.2247 N.pl3     1 <0>        -0.8419
     22 C17        -0.1050   -0.8676    1.6231 C.3       1 <0>        -0.1085
     23 H1         -3.4640    3.3713    0.7339 H         1 <0>         0.0864
     24 H2         -3.6570    2.5399    2.2958 H         1 <0>         0.0831
     25 H3         -2.9109    4.1547    2.2334 H         1 <0>         0.0855
     26 H4         -2.3665    0.5846    1.8549 H         1 <0>         0.1459
     27 H5          3.0714    6.4373    0.3414 H         1 <0>         0.4008
     28 H6          2.1398    8.9101   -0.6555 H         1 <0>         0.0784
     29 H7          2.4396    9.0863    1.0901 H         1 <0>         0.0784
     30 H8          4.6841    8.8985    1.9906 H         1 <0>         0.1243
     31 H9          7.0975    9.1176    1.5541 H         1 <0>         0.1249
     32 H10         7.9446    9.0212   -0.7560 H         1 <0>         0.1240
     33 H11         6.3793    8.6960   -2.6287 H         1 <0>         0.1249
     34 H12         3.9670    8.4664   -2.1914 H         1 <0>         0.1243
     35 H13        -2.4400    5.2601    0.9424 H         1 <0>         0.4010
     36 H14        -1.5084    6.5003    1.5880 H         1 <0>         0.4165
     37 H15         0.1050   -1.1262    2.6609 H         1 <0>         0.0879
     38 H16        -1.0276   -1.3543    1.3069 H         1 <0>         0.0833
     39 H17         0.7176   -1.2029    0.9915 H         1 <0>         0.0845
@<TRIPOS>BOND
     1    1    2 1
     2    1   23 1
     3    1   24 1
     4    1   25 1
     5    2    7 ar
     6    2    3 ar
     7    3    4 ar
     8    3   26 1
     9    4    5 ar
    10    4   22 1
    11    5    6 ar
    12    6   10 1
    13    6    7 ar
    14    7    8 1
    15    8    9 2
    16    8   21 1
    17    9   10 1
    18    9   11 1
    19   11   12 2
    20   11   13 am
    21   13   14 1
    22   13   27 1
    23   14   15 1
    24   14   28 1
    25   14   29 1
    26   15   20 ar
    27   15   16 ar
    28   16   17 ar
    29   16   30 1
    30   17   18 ar
    31   17   31 1
    32   18   19 ar
    33   18   32 1
    34   19   20 ar
    35   19   33 1
    36   20   34 1
    37   21   35 1
    38   21   36 1
    39   22   37 1
    40   22   38 1
    41   22   39 1
@<TRIPOS>MOLECULE
ZINC00109066
   39    41     0     0     0
SMALL
USER_CHARGES
7-amino-N-[(4-chlorophenyl)methyl]-3,5-dimethyl-9-thia-2-azabicyclo[4.3.0]nona-1,3,5,7-tetraene-8-carboxamide
@<TRIPOS>ATOM
      1 C1         -3.0168    3.2026    1.7135 C.3       1 <0>        -0.1390
      2 C2         -1.6599    2.5692    1.5440 C.ar      1 <0>         0.0287
      3 C3         -1.5077    1.2064    1.6493 C.ar      1 <0>        -0.1913
      4 C4         -0.2571    0.6265    1.4986 C.ar      1 <0>         0.1878
      5 N1          0.7992    1.3733    1.2415 N.ar      1 <0>        -0.4599
      6 C5          0.7040    2.6802    1.1261 C.ar      1 <0>         0.1372
      7 C6         -0.5229    3.3679    1.2678 C.ar      1 <0>        -0.1933
      8 C7         -0.4438    4.8120    1.1090 C.2       1 <0>         0.2961
      9 C8          0.7849    5.3737    0.8413 C.2       1 <0>        -0.3244
     10 S1          1.8800    3.9687    0.7944 S.3       1 <0>         0.1084
     11 C9          1.1023    6.7417    0.6488 C.2       1 <0>         0.6184
     12 O1          0.2262    7.5850    0.7142 O.2       1 <0>        -0.5444
     13 N2          2.3736    7.1091    0.3935 N.am      1 <0>        -0.7252
     14 C10         2.7016    8.5230    0.1945 C.3       1 <0>         0.1644
     15 C11         4.1780    8.6633   -0.0731 C.ar      1 <0>        -0.1082
     16 C12         5.0559    8.8517    0.9780 C.ar      1 <0>        -0.0863
     17 C13         6.4107    8.9748    0.7336 C.ar      1 <0>        -0.1117
     18 C14         6.8869    8.9207   -0.5642 C.ar      1 <0>        -0.0265
     19 C15         6.0072    8.7378   -1.6162 C.ar      1 <0>        -0.1117
     20 C16         4.6533    8.6091   -1.3701 C.ar      1 <0>        -0.0863
     21 Cl1         8.5877    9.0818   -0.8725 Cl        1 <0>        -0.0653
     22 N3         -1.5779    5.6035    1.2247 N.pl3     1 <0>        -0.8417
     23 C17        -0.1050   -0.8676    1.6231 C.3       1 <0>        -0.1088
     24 H1         -3.4640    3.3713    0.7339 H         1 <0>         0.0865
     25 H2         -3.6570    2.5399    2.2958 H         1 <0>         0.0832
     26 H3         -2.9109    4.1547    2.2334 H         1 <0>         0.0855
     27 H4         -2.3665    0.5846    1.8549 H         1 <0>         0.1460
     28 H5          3.0714    6.4373    0.3414 H         1 <0>         0.4012
     29 H6          2.1398    8.9101   -0.6555 H         1 <0>         0.0812
     30 H7          2.4396    9.0863    1.0901 H         1 <0>         0.0812
     31 H8          4.6835    8.8984    1.9907 H         1 <0>         0.1352
     32 H9          7.0969    9.1177    1.5553 H         1 <0>         0.1368
     33 H10         6.3784    8.6951   -2.6295 H         1 <0>         0.1368
     34 H11         3.9665    8.4659   -2.1913 H         1 <0>         0.1353
     35 H12        -2.4400    5.2601    0.9424 H         1 <0>         0.4012
     36 H13        -1.5084    6.5003    1.5880 H         1 <0>         0.4166
     37 H14         0.1050   -1.1262    2.6609 H         1 <0>         0.0881
     38 H15        -1.0276   -1.3543    1.3069 H         1 <0>         0.0835
     39 H16         0.7176   -1.2029    0.9915 H         1 <0>         0.0846
@<TRIPOS>BOND
     1    1    2 1
     2    1   24 1
     3    1   25 1
     4    1   26 1
     5    2    7 ar
     6    2    3 ar
     7    3    4 ar
     8    3   27 1
     9    4    5 ar
    10    4   23 1
    11    5    6 ar
    12    6   10 1
    13    6    7 ar
    14    7    8 1
    15    8    9 2
    16    8   22 1
    17    9   10 1
    18    9   11 1
    19   11   12 2
    20   11   13 am
    21   13   14 1
    22   13   28 1
    23   14   15 1
    24   14   29 1
    25   14   30 1
    26   15   20 ar
    27   15   16 ar
    28   16   17 ar
    29   16   31 1
    30   17   18 ar
    31   17   32 1
    32   18   19 ar
    33   18   21 1
    34   19   20 ar
    35   19   33 1
    36   20   34 1
    37   22   35 1
    38   22   36 1
    39   23   37 1
    40   23   38 1
    41   23   39 1
@<TRIPOS>MOLECULE
ZINC02516022
   32    32     0     0     0
SMALL
USER_CHARGES

@<TRIPOS>ATOM
      1 C1          0.3388    1.5532   -0.3086 C.3       1 <0>        -0.1547
      2 C2          0.2600    0.0293   -0.1965 C.3       1 <0>         0.0410
      3 H1         -0.7802   -0.2950   -0.1665 H         1 <0>         0.0876
      4 C3          0.9967   -0.6357   -1.3804 C.3       1 <0>         0.0764
      5 H2          1.7493    0.0385   -1.7892 H         1 <0>         0.0826
      6 C4          1.6669   -1.8794   -0.7546 C.3       1 <0>        -0.1422
      7 C5          1.2558   -1.8186    0.7333 C.3       1 <0>         0.0485
      8 H3          0.3688   -2.4278    0.9070 H         1 <0>         0.0956
      9 O1          0.9626   -0.4252    0.9806 O.3       1 <0>        -0.3661
     10 C6          2.4072   -2.2900    1.6237 C.3       1 <0>        -0.0004
     11 N1          1.9433   -2.3862    3.0141 N.4       1 <0>        -0.2703
     12 C7          0.8951   -3.4108    3.1108 C.3       1 <0>        -0.0519
     13 C8          3.0698   -2.7548    3.8819 C.3       1 <0>        -0.0450
     14 C9          1.4009   -1.0892    3.4403 C.3       1 <0>        -0.0444
     15 O2          0.0676   -1.0216   -2.3952 O.3       1 <0>        -0.5551
     16 H4          1.3838    1.8628   -0.3250 H         1 <0>         0.0696
     17 H5         -0.1501    1.8756   -1.2279 H         1 <0>         0.0797
     18 H6         -0.1612    2.0067    0.5472 H         1 <0>         0.0718
     19 H7          1.2892   -2.7907   -1.2183 H         1 <0>         0.1053
     20 H8          2.7507   -1.8200   -0.8541 H         1 <0>         0.0963
     21 H9          2.7503   -3.2681    1.2866 H         1 <0>         0.1420
     22 H10         3.2288   -1.5762    1.5634 H         1 <0>         0.1379
     23 H11         1.2975   -4.3732    2.7946 H         1 <0>         0.1227
     24 H12         0.5508   -3.4823    4.1425 H         1 <0>         0.1247
     25 H13         0.0592   -3.1373    2.4669 H         1 <0>         0.1205
     26 H14         3.8476   -1.9945    3.8102 H         1 <0>         0.1217
     27 H15         2.7256   -2.8262    4.9136 H         1 <0>         0.1236
     28 H16         3.4723   -3.7172    3.5657 H         1 <0>         0.1213
     29 H17         0.4767   -0.8864    2.8992 H         1 <0>         0.1324
     30 H18         1.1972   -1.1146    4.5107 H         1 <0>         0.1162
     31 H19         2.1265   -0.3042    3.2270 H         1 <0>         0.1220
     32 H20        -0.4239   -0.2829   -2.7799 H         1 <0>         0.3910
@<TRIPOS>BOND
     1    1    2 1
     2    1   16 1
     3    1   17 1
     4    1   18 1
     5    2    3 1
     6    2    9 1
     7    2    4 1
     8    4    5 1
     9    4    6 1
    10    4   15 1
    11    6    7 1
    12    6   19 1
    13    6   20 1
    14    7    8 1
    15    7    9 1
    16    7   10 1
    17   10   11 1
    18   10   21 1
    19   10   22 1
    20   11   12 1
    21   11   13 1
    22   11   14 1
    23   12   23 1
    24   12   24 1
    25   12   25 1
    26   13   26 1
    27   13   27 1
    28   13   28 1
    29   14   29 1
    30   14   30 1
    31   14   31 1
    32   15   32 1
@<TRIPOS>MOLECULE
ZINC13603574
   46    48     0     0     0
SMALL
USER_CHARGES
[(3R)-quinuclidin-3-yl] (E,2R)-2-hydroxy-5-iodo-2-phenyl-pent-4-enoate
@<TRIPOS>ATOM
      1 C1         -5.1893    6.3355    1.0245 C.ar      1 <0>        -0.1001
      2 C2         -5.4435    4.9883    1.2013 C.ar      1 <0>        -0.1127
      3 C3         -4.4329    4.1434    1.6203 C.ar      1 <0>        -0.1019
      4 C4         -3.1680    4.6457    1.8626 C.ar      1 <0>        -0.1254
      5 C5         -2.9151    5.9938    1.6909 C.ar      1 <0>        -0.0921
      6 C6         -3.9243    6.8378    1.2664 C.ar      1 <0>        -0.1136
      7 C7         -2.0663    3.7247    2.3198 C.3       1 <0>         0.2118
      8 C8         -1.0818    4.5024    3.1955 C.3       1 <0>        -0.0873
      9 C9          0.0831    3.6152    3.5516 C.2       1 <0>        -0.0763
     10 C10         1.3070    4.0024    3.2861 C.2       1 <0>        -0.1862
     11 I1          2.9264    2.7689    3.7812 I         1 <0>        -0.0688
     12 C11        -1.3425    3.1724    1.1189 C.2       1 <0>         0.4377
     13 O1         -1.3460    3.7844    0.0772 O.2       1 <0>        -0.4709
     14 O2         -0.6938    2.0005    1.2066 O.3       1 <0>        -0.3276
     15 C12        -0.0187    1.5296    0.0105 C.3       1 <0>         0.0746
     16 H1         -0.5425    1.8927   -0.8738 H         1 <0>         0.1226
     17 C13         1.4239    2.0435   -0.0006 C.3       1 <0>        -0.0230
     18 C14         2.1675    0.0927   -1.2294 C.3       1 <0>        -0.0053
     19 C15         0.7461   -0.4763   -1.2535 C.3       1 <0>        -0.1347
     20 C16         0.0021   -0.0041    0.0020 C.3       1 <0>        -0.0950
     21 C17         0.7703   -0.4897    1.2377 C.3       1 <0>        -0.1331
     22 C18         2.1911    0.0794    1.1921 C.3       1 <0>        -0.0116
     23 O3         -2.6275    2.6486    3.0742 O.3       1 <0>        -0.5231
     24 H2         -5.9789    6.9956    0.6972 H         1 <0>         0.1308
     25 H3         -6.4318    4.5959    1.0124 H         1 <0>         0.1311
     26 H4         -4.6315    3.0909    1.7588 H         1 <0>         0.1218
     27 H5         -1.9280    6.3870    1.8844 H         1 <0>         0.1259
     28 H6         -3.7256    7.8903    1.1279 H         1 <0>         0.1312
     29 H7         -0.7210    5.3745    2.6501 H         1 <0>         0.1024
     30 H8         -1.5839    4.8263    4.1071 H         1 <0>         0.1240
     31 H9         -0.0905    2.6604    4.0255 H         1 <0>         0.1367
     32 H10         1.4805    4.9572    2.8122 H         1 <0>         0.1419
     33 H11         1.5856    2.6540   -0.8889 H         1 <0>         0.1432
     34 H12         1.6028    2.6441    0.8913 H         1 <0>         0.1291
     35 H13         2.8871   -0.7261   -1.2310 H         1 <0>         0.1354
     36 H14         2.3244    0.7169   -2.1090 H         1 <0>         0.1319
     37 H15         0.7888   -1.5654   -1.2647 H         1 <0>         0.1133
     38 H16         0.2240   -0.1221   -2.1423 H         1 <0>         0.1049
     39 H17        -1.0163   -0.3928    0.0027 H         1 <0>         0.1270
     40 H18         0.2668   -0.1432    2.1402 H         1 <0>         0.1095
     41 H19         0.8129   -1.5789    1.2364 H         1 <0>         0.1070
     42 H20         2.9103   -0.7393    1.1706 H         1 <0>         0.1344
     43 H21         2.3657    0.6938    2.0753 H         1 <0>         0.1246
     44 H22        -3.2622    2.1113    2.5807 H         1 <0>         0.3880
     45 N1          2.3753    0.9115   -0.0161 N.4       1 <0>        -0.3879
     46 H23         3.3331    1.2813   -0.0235 H         1 <0>         0.4357
@<TRIPOS>BOND
     1    1    6 ar
     2    1    2 ar
     3    1   24 1
     4    2    3 ar
     5    2   25 1
     6    3    4 ar
     7    3   26 1
     8    4    5 ar
     9    4    7 1
    10    5    6 ar
    11    5   27 1
    12    6   28 1
    13    7    8 1
    14    7   12 1
    15    7   23 1
    16    8    9 1
    17    8   29 1
    18    8   30 1
    19    9   10 2
    20    9   31 1
    21   10   11 1
    22   10   32 1
    23   12   13 2
    24   12   14 1
    25   14   15 1
    26   15   16 1
    27   15   20 1
    28   15   17 1
    29   17   33 1
    30   17   34 1
    31   17   45 1
    32   18   19 1
    33   18   35 1
    34   18   36 1
    35   18   45 1
    36   19   20 1
    37   19   37 1
    38   19   38 1
    39   20   21 1
    40   20   39 1
    41   21   22 1
    42   21   40 1
    43   21   41 1
    44   22   42 1
    45   22   43 1
    46   22   45 1
    47   23   44 1
    48   45   46 1
@<TRIPOS>MOLECULE
ZINC01851108
   40    42     0     0     0
SMALL
USER_CHARGES
3-(4-butylsulfanyl-1,2,5-thiadiazol-3-yl)quinuclidine
@<TRIPOS>ATOM
      1 C1          0.7390   -2.0273   -1.2652 C.3       1 <0>        -0.1552
      2 C2          0.7182   -0.4975   -1.2568 C.3       1 <0>        -0.1185
      3 C3          0.0021   -0.0041    0.0020 C.3       1 <0>        -0.1074
      4 C4         -0.0187    1.5258    0.0104 C.3       1 <0>        -0.1066
      5 S1         -0.8677    2.1108    1.5029 S.3       1 <0>         0.0009
      6 C5         -0.8089    3.8665    1.3663 C.2       1 <0>         0.0592
      7 C6         -1.3583    4.7125    2.3122 C.2       1 <0>         0.0408
      8 N1         -1.2478    5.9985    2.1018 N.2       1 <0>        -0.4740
      9 S2         -0.4771    6.1330    0.7342 S.3       1 <0>         0.5250
     10 N2         -0.2412    4.4885    0.3486 N.2       1 <0>        -0.4484
     11 C7         -2.0512    4.1747    3.5377 C.3       1 <0>        -0.0177
     12 H1         -2.0333    3.0850    3.5188 H         1 <0>         0.1298
     13 C8         -1.3352    4.6780    4.7944 C.3       1 <0>         0.0093
     14 C9         -3.4032    4.6385    6.0555 C.3       1 <0>        -0.0026
     15 C10        -4.1776    4.1333    4.8349 C.3       1 <0>        -0.1343
     16 C11        -3.5035    4.6672    3.5647 C.3       1 <0>        -0.0904
     17 C12        -3.4993    6.2001    3.6205 C.3       1 <0>        -0.1443
     18 C13        -2.7437    6.6473    4.8750 C.3       1 <0>         0.0050
     19 H2         -0.2836   -2.4046   -1.2575 H         1 <0>         0.0569
     20 H3          1.2492   -2.3788   -2.1620 H         1 <0>         0.0609
     21 H4          1.2661   -2.3884   -0.3821 H         1 <0>         0.0567
     22 H5          0.1910   -0.1364   -2.1398 H         1 <0>         0.0671
     23 H6          1.7408   -0.1202   -1.2645 H         1 <0>         0.0668
     24 H7          0.5293   -0.3651    0.8851 H         1 <0>         0.0761
     25 H8         -1.0205   -0.3814    0.0098 H         1 <0>         0.0765
     26 H9          1.0039    1.9031    0.0027 H         1 <0>         0.0981
     27 H10        -0.5459    1.8868   -0.8726 H         1 <0>         0.0984
     28 H11        -0.9761    3.8273    5.3736 H         1 <0>         0.1389
     29 H12        -0.4910    5.3042    4.5058 H         1 <0>         0.1285
     30 H13        -3.0292    3.7885    6.6263 H         1 <0>         0.1304
     31 H14        -4.0638    5.2363    6.6835 H         1 <0>         0.1303
     32 H15        -5.2060    4.4918    4.8809 H         1 <0>         0.1056
     33 H16        -4.1690    3.0434    4.8224 H         1 <0>         0.1042
     34 H17        -4.0317    4.3260    2.6744 H         1 <0>         0.1177
     35 H18        -4.5249    6.5669    3.6617 H         1 <0>         0.0987
     36 H19        -3.0044    6.5983    2.7347 H         1 <0>         0.1179
     37 H20        -3.4096    7.2287    5.5127 H         1 <0>         0.1270
     38 H21        -1.8896    7.2600    4.5866 H         1 <0>         0.1275
     39 N3         -2.2590    5.4732    5.6316 N.4       1 <0>        -0.3895
     40 H22        -1.7565    5.7984    6.4659 H         1 <0>         0.4345
@<TRIPOS>BOND
     1    1    2 1
     2    1   19 1
     3    1   20 1
     4    1   21 1
     5    2    3 1
     6    2   22 1
     7    2   23 1
     8    3    4 1
     9    3   24 1
    10    3   25 1
    11    4    5 1
    12    4   26 1
    13    4   27 1
    14    5    6 1
    15    6   10 2
    16    6    7 1
    17    7    8 2
    18    7   11 1
    19    8    9 1
    20    9   10 1
    21   11   12 1
    22   11   16 1
    23   11   13 1
    24   13   28 1
    25   13   29 1
    26   13   39 1
    27   14   15 1
    28   14   30 1
    29   14   31 1
    30   14   39 1
    31   15   16 1
    32   15   32 1
    33   15   33 1
    34   16   17 1
    35   16   34 1
    36   17   18 1
    37   17   35 1
    38   17   36 1
    39   18   37 1
    40   18   38 1
    41   18   39 1
    42   39   40 1
@<TRIPOS>MOLECULE
ZINC01851109
   40    42     0     0     0
SMALL
USER_CHARGES
3-(4-butylsulfanyl-1,2,5-thiadiazol-3-yl)quinuclidine
@<TRIPOS>ATOM
      1 C1          3.6299   -8.2026   -2.3747 C.3       1 <0>        -0.1552
      2 C2          2.3898   -7.3828   -2.7368 C.3       1 <0>        -0.1185
      3 C3          2.5352   -5.9651   -2.1802 C.3       1 <0>        -0.1074
      4 C4          1.2951   -5.1454   -2.5423 C.3       1 <0>        -0.1066
      5 S1          1.4675   -3.4645   -1.8823 S.3       1 <0>         0.0008
      6 C5         -0.0193   -2.6581   -2.3763 C.2       1 <0>         0.0593
      7 C6         -0.2952   -1.3380   -2.0705 C.2       1 <0>         0.0408
      8 N1         -1.4304   -0.8489   -2.4976 N.2       1 <0>        -0.4739
      9 S2         -2.1343   -2.0336   -3.2615 S.3       1 <0>         0.5247
     10 N2         -0.9687   -3.2634   -3.0669 N.2       1 <0>        -0.4483
     11 C7          0.6750   -0.4958   -1.2827 C.3       1 <0>        -0.0174
     12 H1          1.5533   -1.0900   -1.0306 H         1 <0>         0.1297
     13 C8          0.0021   -0.0041    0.0020 C.3       1 <0>         0.0093
     14 C9          1.3461    2.0114    0.0000 C.3       1 <0>        -0.0055
     15 C10         2.0731    1.5660   -1.2918 C.3       1 <0>        -0.1302
     16 C11         1.0959    0.7200   -2.1177 C.3       1 <0>        -0.0930
     17 C12        -0.1530    1.5529   -2.4331 C.3       1 <0>        -0.1435
     18 C13        -0.8025    1.9884   -1.1166 C.3       1 <0>         0.0050
     19 H2          4.5144   -7.7324   -2.8045 H         1 <0>         0.0569
     20 H3          3.7324   -8.2467   -1.2905 H         1 <0>         0.0567
     21 H4          3.5263   -9.2126   -2.7713 H         1 <0>         0.0609
     22 H5          1.5053   -7.8530   -2.3071 H         1 <0>         0.0668
     23 H6          2.2873   -7.3387   -3.8211 H         1 <0>         0.0670
     24 H7          3.4197   -5.4950   -2.6100 H         1 <0>         0.0765
     25 H8          2.6377   -6.0092   -1.0959 H         1 <0>         0.0761
     26 H9          0.4106   -5.6155   -2.1125 H         1 <0>         0.0981
     27 H10         1.1926   -5.1013   -3.6266 H         1 <0>         0.0984
     28 H11         0.5602   -0.3649    0.8659 H         1 <0>         0.1388
     29 H12        -1.0194   -0.3818    0.0454 H         1 <0>         0.1284
     30 H13         1.3021    3.0998    0.0407 H         1 <0>         0.1307
     31 H14         1.8945    1.6366    0.8643 H         1 <0>         0.1298
     32 H15         2.9559    0.9737   -1.0512 H         1 <0>         0.1057
     33 H16         2.3684    2.4456   -1.8638 H         1 <0>         0.1049
     34 H17         1.5718    0.3932   -3.0422 H         1 <0>         0.1166
     35 H18         0.1312    2.4336   -3.0090 H         1 <0>         0.0986
     36 H19        -0.8571    0.9518   -3.0086 H         1 <0>         0.1183
     37 H20        -1.8185    1.5969   -1.0653 H         1 <0>         0.1274
     38 H21        -0.8289    3.0769   -1.0667 H         1 <0>         0.1271
     39 N3         -0.0307    1.4740    0.0347 N.4       1 <0>        -0.3889
     40 H22        -0.4854    1.7781    0.9036 H         1 <0>         0.4347
@<TRIPOS>BOND
     1    1    2 1
     2    1   19 1
     3    1   20 1
     4    1   21 1
     5    2    3 1
     6    2   22 1
     7    2   23 1
     8    3    4 1
     9    3   24 1
    10    3   25 1
    11    4    5 1
    12    4   26 1
    13    4   27 1
    14    5    6 1
    15    6   10 2
    16    6    7 1
    17    7    8 2
    18    7   11 1
    19    8    9 1
    20    9   10 1
    21   11   12 1
    22   11   16 1
    23   11   13 1
    24   13   28 1
    25   13   29 1
    26   13   39 1
    27   14   15 1
    28   14   30 1
    29   14   31 1
    30   14   39 1
    31   15   16 1
    32   15   32 1
    33   15   33 1
    34   16   17 1
    35   16   34 1
    36   17   18 1
    37   17   35 1
    38   17   36 1
    39   18   37 1
    40   18   38 1
    41   18   39 1
    42   39   40 1
@<TRIPOS>MOLECULE
ZINC04424121
   37    39     0     0     0
SMALL
USER_CHARGES
6-(4-propylsulfanyl-1,2,5-thiadiazol-3-yl)-1-azabicyclo[3.2.1]octane
@<TRIPOS>ATOM
      1 C1         -0.7527    1.5927   -1.2315 C.3       1 <0>        -0.1494
      2 C2         -0.0127    1.0858    0.0080 C.3       1 <0>        -0.1107
      3 C3         -0.7288    1.5792    1.2668 C.3       1 <0>        -0.1065
      4 S1          0.1485    0.9783    2.7364 S.3       1 <0>        -0.0009
      5 C4         -0.7864    1.6222    4.0840 C.2       1 <0>         0.0592
      6 C5         -0.4559    1.3901    5.4066 C.2       1 <0>         0.0399
      7 N1         -1.2252    1.9249    6.3190 N.2       1 <0>        -0.4783
      8 S2         -2.3459    2.6935    5.5217 S.3       1 <0>         0.5345
      9 N2         -1.8670    2.3636    3.9184 N.2       1 <0>        -0.4498
     10 C6          0.7444    0.5593    5.7811 C.3       1 <0>        -0.0264
     11 H1          1.2634    0.2181    4.8854 H         1 <0>         0.1356
     12 C7          1.6990    1.3699    6.6784 C.3       1 <0>         0.0031
     13 C8          2.8970   -0.3575    7.8549 C.3       1 <0>        -0.0020
     14 C9          2.7590   -1.1234    6.5377 C.3       1 <0>        -0.1577
     15 C10         1.3549   -1.7625    6.4221 C.3       1 <0>        -0.1302
     16 C11         0.3139   -0.6504    6.6492 C.3       1 <0>        -0.0937
     17 H2         -0.7078   -0.9764    6.4549 H         1 <0>         0.1305
     18 C12         0.5214   -0.1125    8.0911 C.3       1 <0>        -0.0053
     19 H3         -0.2425    1.2411   -2.1283 H         1 <0>         0.0683
     20 H4         -1.7753    1.2154   -1.2238 H         1 <0>         0.0604
     21 H5         -0.7675    2.6825   -1.2255 H         1 <0>         0.0602
     22 H6          0.0021   -0.0041    0.0020 H         1 <0>         0.0761
     23 H7          1.0099    1.4631    0.0003 H         1 <0>         0.0758
     24 H8         -0.7436    2.6691    1.2728 H         1 <0>         0.0983
     25 H9         -1.7514    1.2020    1.2746 H         1 <0>         0.0985
     26 H10         2.6793    1.4453    6.2078 H         1 <0>         0.1445
     27 H11         1.2912    2.3655    6.8534 H         1 <0>         0.1340
     28 H12         3.8571    0.1582    7.8772 H         1 <0>         0.1351
     29 H13         2.8390   -1.0559    8.6897 H         1 <0>         0.1324
     30 H14         2.9045   -0.4370    5.7035 H         1 <0>         0.0900
     31 H15         3.5152   -1.9073    6.4944 H         1 <0>         0.1135
     32 H16         1.2463   -2.5282    7.1902 H         1 <0>         0.0898
     33 H17         1.2089   -2.2050    5.4367 H         1 <0>         0.1016
     34 H18        -0.2893    0.5576    8.3772 H         1 <0>         0.1403
     35 H19         0.6164   -0.9326    8.8028 H         1 <0>         0.1417
     36 N3          1.7809    0.6126    7.9329 N.4       1 <0>        -0.3849
     37 H20         1.9271    1.2504    8.7242 H         1 <0>         0.4325
@<TRIPOS>BOND
     1    1    2 1
     2    1   19 1
     3    1   20 1
     4    1   21 1
     5    2    3 1
     6    2   22 1
     7    2   23 1
     8    3    4 1
     9    3   24 1
    10    3   25 1
    11    4    5 1
    12    5    9 2
    13    5    6 1
    14    6    7 2
    15    6   10 1
    16    7    8 1
    17    8    9 1
    18   10   11 1
    19   10   16 1
    20   10   12 1
    21   12   26 1
    22   12   27 1
    23   12   36 1
    24   13   14 1
    25   13   28 1
    26   13   29 1
    27   13   36 1
    28   14   15 1
    29   14   30 1
    30   14   31 1
    31   15   16 1
    32   15   32 1
    33   15   33 1
    34   16   17 1
    35   16   18 1
    36   18   34 1
    37   18   35 1
    38   18   36 1
    39   36   37 1
@<TRIPOS>MOLECULE
ZINC03079342
   25    24     0     0     0
SMALL
USER_CHARGES

@<TRIPOS>ATOM
      1 C1          0.5385    1.3265   -0.0156 C.3       1 <0>        -0.0552
      2 N1          0.0207   -0.0467    0.0478 N.4       1 <0>        -0.2722
      3 C2          0.5070   -0.6974    1.2718 C.3       1 <0>        -0.0471
      4 C3         -1.4480   -0.0161    0.0600 C.3       1 <0>        -0.0454
      5 C4          0.4850   -0.7999   -1.1248 C.3       1 <0>        -0.0017
      6 C5          2.0115   -0.7313   -1.2033 C.3       1 <0>         0.0515
      7 O1          2.5777   -1.4543   -0.1084 O.3       1 <0>        -0.3772
      8 C6          3.9213   -1.4920   -0.0303 C.2       1 <0>         0.6511
      9 O2          4.5947   -0.9264   -0.8688 O.2       1 <0>        -0.5552
     10 N2          4.5193   -2.1570    0.9780 N.am      1 <0>        -0.8167
     11 H1          1.6283    1.3038   -0.0246 H         1 <0>         0.1211
     12 H2          0.1776    1.8093   -0.9238 H         1 <0>         0.1253
     13 H3          0.1939    1.8853    0.8545 H         1 <0>         0.1262
     14 H4          0.0211   -0.2500    2.1388 H         1 <0>         0.1189
     15 H5          0.2750   -1.7618    1.2342 H         1 <0>         0.1224
     16 H6          1.5859   -0.5633    1.3504 H         1 <0>         0.1286
     17 H7         -1.8089    0.4667   -0.8482 H         1 <0>         0.1227
     18 H8         -1.8322   -1.0351    0.1071 H         1 <0>         0.1229
     19 H9         -1.7926    0.5427    0.9301 H         1 <0>         0.1241
     20 H10         0.1722   -1.8402   -1.0357 H         1 <0>         0.1419
     21 H11         0.0550   -0.3672   -2.0281 H         1 <0>         0.1522
     22 H12         2.3472   -1.1718   -2.1420 H         1 <0>         0.1171
     23 H13         2.3314    0.3096   -1.1555 H         1 <0>         0.0971
     24 H14         3.9817   -2.6085    1.6473 H         1 <0>         0.4117
     25 H15         5.4873   -2.1841    1.0343 H         1 <0>         0.4360
@<TRIPOS>BOND
     1    1    2 1
     2    1   11 1
     3    1   12 1
     4    1   13 1
     5    2    3 1
     6    2    4 1
     7    2    5 1
     8    3   14 1
     9    3   15 1
    10    3   16 1
    11    4   17 1
    12    4   18 1
    13    4   19 1
    14    5    6 1
    15    5   20 1
    16    5   21 1
    17    6    7 1
    18    6   22 1
    19    6   23 1
    20    7    8 1
    21    8    9 2
    22    8   10 am
    23   10   24 1
    24   10   25 1
@<TRIPOS>MOLECULE
ZINC00492792
   28    29     0     0     0
SMALL
USER_CHARGES

@<TRIPOS>ATOM
      1 C1         -0.0184    1.5028    0.0103 C.3       1 <0>        -0.1507
      2 C2          0.0021   -0.0041    0.0020 C.2       1 <0>         0.4617
      3 O1          1.0565   -0.5939   -0.0112 O.2       1 <0>        -0.4976
      4 O2         -1.1511   -0.6910    0.0093 O.3       1 <0>        -0.3413
      5 C3         -1.0570   -2.1168    0.0008 C.3       1 <0>         0.0740
      6 H1         -0.1406   -2.4254    0.5039 H         1 <0>         0.1192
      7 C4         -1.0436   -2.6212   -1.4440 C.3       1 <0>        -0.0258
      8 N1         -2.1853   -3.5092   -1.6758 N.4       1 <0>        -0.3730
      9 C5         -2.1124   -4.6819   -0.8010 C.3       1 <0>        -0.0109
     10 C6         -2.1611   -4.2459    0.6651 C.3       1 <0>        -0.1372
     11 C7         -2.2688   -2.7165    0.7262 C.3       1 <0>        -0.0970
     12 C8         -3.5392   -2.2936   -0.0230 C.3       1 <0>        -0.1352
     13 C9         -3.4462   -2.7917   -1.4728 C.3       1 <0>        -0.0082
     14 H2          1.0042    1.8801    0.0026 H         1 <0>         0.1107
     15 H3         -0.5455    1.8639   -0.8728 H         1 <0>         0.1059
     16 H4         -0.5286    1.8543    0.9071 H         1 <0>         0.1083
     17 H5         -1.1023   -1.7716   -2.1242 H         1 <0>         0.1374
     18 H6         -0.1180   -3.1666   -1.6281 H         1 <0>         0.1421
     19 H7         -2.9541   -5.3420   -1.0102 H         1 <0>         0.1357
     20 H8         -1.1808   -5.2158   -0.9888 H         1 <0>         0.1328
     21 H9         -3.0288   -4.6929    1.1504 H         1 <0>         0.1116
     22 H10        -1.2510   -4.5667    1.1720 H         1 <0>         0.1041
     23 H11        -2.2938   -2.3788    1.7623 H         1 <0>         0.1265
     24 H12        -4.4119   -2.7319    0.4612 H         1 <0>         0.1047
     25 H13        -3.6227   -1.2068   -0.0162 H         1 <0>         0.1079
     26 H14        -3.4916   -1.9409   -2.1526 H         1 <0>         0.1310
     27 H15        -4.2808   -3.4619   -1.6787 H         1 <0>         0.1334
     28 H16        -2.1511   -3.8304   -2.6317 H         1 <0>         0.4298
@<TRIPOS>BOND
     1    1    2 1
     2    1   14 1
     3    1   15 1
     4    1   16 1
     5    2    3 2
     6    2    4 1
     7    4    5 1
     8    5    6 1
     9    5   11 1
    10    5    7 1
    11    7    8 1
    12    7   17 1
    13    7   18 1
    14    8   13 1
    15    8    9 1
    16    8   28 1
    17    9   10 1
    18    9   19 1
    19    9   20 1
    20   10   11 1
    21   10   21 1
    22   10   22 1
    23   11   12 1
    24   11   23 1
    25   12   13 1
    26   12   24 1
    27   12   25 1
    28   13   26 1
    29   13   27 1
@<TRIPOS>MOLECULE
ZINC01089661
   28    29     0     0     0
SMALL
USER_CHARGES

@<TRIPOS>ATOM
      1 C1         -0.0184    1.5028    0.0103 C.3       1 <0>        -0.1507
      2 C2          0.0021   -0.0041    0.0020 C.2       1 <0>         0.4617
      3 O1          1.0565   -0.5939   -0.0112 O.2       1 <0>        -0.4975
      4 O2         -1.1511   -0.6910    0.0093 O.3       1 <0>        -0.3414
      5 C3         -1.0570   -2.1168    0.0008 C.3       1 <0>         0.0738
      6 H1         -0.1504   -2.4199   -0.5230 H         1 <0>         0.1192
      7 C4         -1.0161   -2.6367    1.4395 C.3       1 <0>        -0.0258
      8 N1         -2.1528   -3.5279    1.6833 N.4       1 <0>        -0.3729
      9 C5         -3.4175   -2.8089    1.5124 C.3       1 <0>        -0.0083
     10 C6         -3.5382   -2.2946    0.0762 C.3       1 <0>        -0.1370
     11 C7         -2.2824   -2.7088   -0.7078 C.3       1 <0>        -0.0970
     12 C8         -2.1720   -4.2387   -0.6685 C.3       1 <0>        -0.1356
     13 C9         -2.0963   -4.6908    0.7944 C.3       1 <0>        -0.0107
     14 H2          1.0042    1.8801    0.0026 H         1 <0>         0.1107
     15 H3         -0.5455    1.8639   -0.8728 H         1 <0>         0.1083
     16 H4         -0.5286    1.8543    0.9071 H         1 <0>         0.1059
     17 H5         -0.0869   -3.1835    1.6002 H         1 <0>         0.1422
     18 H6         -1.0623   -1.7945    2.1299 H         1 <0>         0.1374
     19 H7         -4.2479   -3.4818    1.7266 H         1 <0>         0.1335
     20 H8         -3.4503   -1.9657    2.2025 H         1 <0>         0.1310
     21 H9         -4.4210   -2.7278   -0.3940 H         1 <0>         0.1044
     22 H10        -3.6217   -1.2078    0.0831 H         1 <0>         0.1080
     23 H11        -2.3372   -2.3458   -1.7341 H         1 <0>         0.1267
     24 H12        -3.0477   -4.6805   -1.1439 H         1 <0>         0.1117
     25 H13        -1.2706   -4.5534   -1.1944 H         1 <0>         0.1042
     26 H14        -1.1610   -5.2261    0.9583 H         1 <0>         0.1327
     27 H15        -2.9335   -5.3538    1.0125 H         1 <0>         0.1357
     28 H16        -2.1050   -3.8527    2.6374 H         1 <0>         0.4299
@<TRIPOS>BOND
     1    1    2 1
     2    1   14 1
     3    1   15 1
     4    1   16 1
     5    2    3 2
     6    2    4 1
     7    4    5 1
     8    5    6 1
     9    5   11 1
    10    5    7 1
    11    7    8 1
    12    7   17 1
    13    7   18 1
    14    8   13 1
    15    8    9 1
    16    8   28 1
    17    9   10 1
    18    9   19 1
    19    9   20 1
    20   10   11 1
    21   10   21 1
    22   10   22 1
    23   11   12 1
    24   11   23 1
    25   12   13 1
    26   12   24 1
    27   12   25 1
    28   13   26 1
    29   13   27 1
@<TRIPOS>MOLECULE
ZINC05821656
   37    38     0     0     0
SMALL
USER_CHARGES
3-(4-butylsulfanyl-1,2,5-thiadiazol-3-yl)-1-methyl-5,6-dihydro-2H-pyridine
@<TRIPOS>ATOM
      1 C1         -0.2128    2.3968   -3.6723 C.3       1 <0>        -0.1549
      2 C2          0.4230    1.7438   -2.4434 C.3       1 <0>        -0.1192
      3 C3         -0.3636    2.1384   -1.1918 C.3       1 <0>        -0.1058
      4 C4          0.2722    1.4854    0.0371 C.3       1 <0>        -0.1076
      5 S1         -0.6604    1.9533    1.5210 S.3       1 <0>        -0.0033
      6 C5          0.1847    1.1334    2.8318 C.2       1 <0>         0.0620
      7 C6         -0.2116    1.2274    4.1655 C.2       1 <0>         0.0728
      8 N1          0.5086    0.5639    5.0464 N.2       1 <0>        -0.4587
      9 S2          1.6393   -0.1471    4.2117 S.3       1 <0>         0.5406
     10 N2          1.2442    0.3726    2.6367 N.2       1 <0>        -0.4550
     11 C7         -1.3820    2.0324    4.5706 C.2       1 <0>        -0.0914
     12 C8         -2.5658    1.6962    4.1057 C.2       1 <0>        -0.0867
     13 C9         -3.8188    2.4497    4.4551 C.3       1 <0>        -0.1196
     14 C10        -3.5659    3.3360    5.6772 C.3       1 <0>        -0.0051
     15 C11        -1.1644    3.2002    5.4893 C.3       1 <0>         0.0533
     16 C12        -2.1869    5.1775    6.4405 C.3       1 <0>        -0.0408
     17 H1          0.3476    2.1156   -4.5640 H         1 <0>         0.0612
     18 H2         -1.2446    2.0593   -3.7702 H         1 <0>         0.0567
     19 H3         -0.1943    3.4806   -3.5583 H         1 <0>         0.0562
     20 H4          1.4548    2.0813   -2.3455 H         1 <0>         0.0671
     21 H5          0.4045    0.6599   -2.5574 H         1 <0>         0.0675
     22 H6         -1.3954    1.8009   -1.2897 H         1 <0>         0.0758
     23 H7         -0.3451    3.2223   -1.0778 H         1 <0>         0.0749
     24 H8          0.2537    0.4015   -0.0769 H         1 <0>         0.0986
     25 H9          1.3040    1.8229    0.1350 H         1 <0>         0.0979
     26 H10        -2.6412    0.8416    3.4496 H         1 <0>         0.1451
     27 H11        -4.6191    1.7441    4.6782 H         1 <0>         0.1318
     28 H12        -4.1108    3.0726    3.6096 H         1 <0>         0.1154
     29 H13        -3.4583    2.7132    6.5652 H         1 <0>         0.1346
     30 H14        -4.3996    4.0251    5.8122 H         1 <0>         0.1400
     31 H15        -1.0195    2.8369    6.5068 H         1 <0>         0.1452
     32 H16        -0.2759    3.7471    5.1738 H         1 <0>         0.1380
     33 H17        -1.2904    5.7572    6.2205 H         1 <0>         0.1243
     34 H18        -3.0606    5.8275    6.3933 H         1 <0>         0.1270
     35 H19        -2.1063    4.7490    7.4395 H         1 <0>         0.1245
     36 N3         -2.3285    4.1039    5.4308 N.4       1 <0>        -0.3956
     37 H20        -2.3775    4.5278    4.4970 H         1 <0>         0.4333
@<TRIPOS>BOND
     1    1    2 1
     2    1   17 1
     3    1   18 1
     4    1   19 1
     5    2    3 1
     6    2   20 1
     7    2   21 1
     8    3    4 1
     9    3   22 1
    10    3   23 1
    11    4    5 1
    12    4   24 1
    13    4   25 1
    14    5    6 1
    15    6   10 2
    16    6    7 1
    17    7    8 2
    18    7   11 1
    19    8    9 1
    20    9   10 1
    21   11   15 1
    22   11   12 2
    23   12   13 1
    24   12   26 1
    25   13   14 1
    26   13   27 1
    27   13   28 1
    28   14   29 1
    29   14   30 1
    30   14   36 1
    31   15   31 1
    32   15   32 1
    33   15   36 1
    34   16   33 1
    35   16   34 1
    36   16   35 1
    37   16   36 1
    38   36   37 1
@<TRIPOS>MOLECULE
ZINC19796155
   42    45     0     0     0
SMALL
USER_CHARGES

@<TRIPOS>ATOM
      1 C1         -0.0670    1.4396   -0.3852 C.3       1 <0>         0.0243
      2 N1         -0.0229   -0.0169   -0.1987 N.3       1 <0>        -0.5428
      3 C2          0.3808   -0.6943   -1.4380 C.3       1 <0>         0.0399
      4 C3          0.2401   -2.2095   -1.2572 C.3       1 <0>         0.1263
      5 N2          0.9912   -2.6085   -0.0572 N.pl3     1 <0>        -0.5953
      6 C4          0.7394   -1.8803    1.1955 C.3       1 <0>         0.1122
      7 C5          0.8604   -0.3781    0.9181 C.3       1 <0>         0.0393
      8 C6          1.9051   -3.6365   -0.1053 C.2       1 <0>         0.5098
      9 N3          2.1670   -4.1290   -1.2643 N.2       1 <0>        -0.6041
     10 C7          3.0130   -5.1503   -1.5719 C.ar      1 <0>         0.1655
     11 C8          2.6280   -6.0848   -2.5372 C.ar      1 <0>        -0.1058
     12 C9          3.4872   -7.1047   -2.8991 C.ar      1 <0>        -0.0230
     13 C10         4.7348   -7.2069   -2.3106 C.ar      1 <0>        -0.1209
     14 C11         5.1212   -6.2977   -1.3402 C.ar      1 <0>        -0.1017
     15 C12         4.2618   -5.2835   -0.9546 C.ar      1 <0>         0.1117
     16 N4          4.6314   -4.4326    0.1003 N.pl3     1 <0>        -0.7261
     17 C13         3.8434   -4.4184    1.2519 C.ar      1 <0>         0.2140
     18 C14         2.4943   -4.0640    1.1729 C.ar      1 <0>        -0.1453
     19 C15         1.7072   -4.1133    2.3240 C.ar      1 <0>        -0.0723
     20 C16         2.2727   -4.4729    3.5311 C.ar      1 <0>        -0.1389
     21 C17         3.6189   -4.7825    3.6069 C.ar      1 <0>        -0.0765
     22 C18         4.3974   -4.7629    2.4751 C.ar      1 <0>        -0.1433
     23 Cl1         2.9987   -8.2627   -4.0966 Cl        1 <0>        -0.0679
     24 H1          0.9359    1.8090   -0.5992 H         1 <0>         0.0255
     25 H2         -0.7279    1.6794   -1.2181 H         1 <0>         0.0711
     26 H3         -0.4416    1.9111    0.5233 H         1 <0>         0.0709
     27 H4         -0.2581   -0.3649   -2.2574 H         1 <0>         0.0878
     28 H5          1.4186   -0.4499   -1.6647 H         1 <0>         0.0378
     29 H6         -0.8117   -2.4673   -1.1334 H         1 <0>         0.0720
     30 H7          0.6453   -2.7216   -2.1299 H         1 <0>         0.1060
     31 H8         -0.2645   -2.1065    1.5551 H         1 <0>         0.0792
     32 H9          1.4746   -2.1748    1.9444 H         1 <0>         0.0984
     33 H10         1.8915   -0.1381    0.6586 H         1 <0>         0.0379
     34 H11         0.5693    0.1807    1.8075 H         1 <0>         0.0892
     35 H12         1.6558   -6.0097   -3.0016 H         1 <0>         0.1375
     36 H13         5.4083   -7.9971   -2.6081 H         1 <0>         0.1357
     37 H14         6.0961   -6.3802   -0.8829 H         1 <0>         0.1326
     38 H15         5.4169   -3.8679    0.0299 H         1 <0>         0.4097
     39 H16         0.6563   -3.8699    2.2709 H         1 <0>         0.1344
     40 H17         1.6613   -4.5124    4.4205 H         1 <0>         0.1323
     41 H18         4.0571   -5.0467    4.5580 H         1 <0>         0.1317
     42 H19         5.4473   -5.0071    2.5424 H         1 <0>         0.1313
@<TRIPOS>BOND
     1    1    2 1
     2    1   24 1
     3    1   25 1
     4    1   26 1
     5    2    7 1
     6    2    3 1
     7    3    4 1
     8    3   27 1
     9    3   28 1
    10    4    5 1
    11    4   29 1
    12    4   30 1
    13    5    6 1
    14    5    8 1
    15    6    7 1
    16    6   31 1
    17    6   32 1
    18    7   33 1
    19    7   34 1
    20    8   18 1
    21    8    9 2
    22    9   10 1
    23   10   15 ar
    24   10   11 ar
    25   11   12 ar
    26   11   35 1
    27   12   13 ar
    28   12   23 1
    29   13   14 ar
    30   13   36 1
    31   14   15 ar
    32   14   37 1
    33   15   16 1
    34   16   17 1
    35   16   38 1
    36   17   22 ar
    37   17   18 ar
    38   18   19 ar
    39   19   20 ar
    40   19   39 1
    41   20   21 ar
    42   20   40 1
    43   21   22 ar
    44   21   41 1
    45   22   42 1
@<TRIPOS>MOLECULE
ZINC19796155
   44    47     0     0     0
SMALL
USER_CHARGES

@<TRIPOS>ATOM
      1 C1         -1.5703   -0.0018   -1.9302 C.3       1 <0>        -0.0497
      2 N1         -0.7527   -0.7171   -0.9414 N.4       1 <0>        -0.3854
      3 C2         -1.0498   -2.1535   -1.0104 C.3       1 <0>        -0.0252
      4 C3         -0.2839   -2.8861    0.0962 C.3       1 <0>         0.1048
      5 N2          1.1441   -2.5548   -0.0269 N.pl3     1 <0>        -0.7052
      6 C4          1.5202   -1.1363   -0.1296 C.3       1 <0>         0.1049
      7 C5          0.6692   -0.4862   -1.2256 C.3       1 <0>        -0.0251
      8 C6          2.0831   -3.5253   -0.0448 C.2       1 <0>         0.6309
      9 C7          2.6112   -3.9094    1.2074 C.ar      1 <0>        -0.2438
     10 C8          2.0495   -3.1929    2.2728 C.ar      1 <0>         0.0055
     11 C9          2.4602   -3.4528    3.5483 C.ar      1 <0>        -0.1817
     12 C10         3.4265   -4.4148    3.8208 C.ar      1 <0>         0.0489
     13 C11         4.0101   -5.1439    2.8276 C.ar      1 <0>        -0.2233
     14 C12         3.6302   -4.9235    1.4921 C.ar      1 <0>         0.3343
     15 N3          4.2865   -5.7106    0.6358 N.pl3     1 <0>        -0.6131
     16 C13         4.1767   -5.7728   -0.7271 C.ar      1 <0>         0.1589
     17 C14         5.0408   -6.7320   -1.2562 C.ar      1 <0>        -0.1157
     18 C15         5.0795   -6.9478   -2.6222 C.ar      1 <0>        -0.0495
     19 C16         4.2642   -6.2154   -3.4643 C.ar      1 <0>        -0.0338
     20 C17         3.4016   -5.2585   -2.9468 C.ar      1 <0>        -0.0846
     21 C18         3.3520   -5.0321   -1.5848 C.ar      1 <0>         0.0769
     22 N4          2.4115   -4.0290   -1.2719 N.pl3     1 <0>        -0.5773
     23 Cl1         4.3195   -6.4929   -5.1771 Cl        1 <0>        -0.0159
     24 H1         -1.3348   -0.3678   -2.9295 H         1 <0>         0.1246
     25 H2         -2.6262   -0.1724   -1.7203 H         1 <0>         0.1321
     26 H3         -1.3566    1.0656   -1.8745 H         1 <0>         0.1321
     27 H4         -2.1201   -2.3101   -0.8766 H         1 <0>         0.1569
     28 H5         -0.7442   -2.5415   -1.9820 H         1 <0>         0.1344
     29 H6         -0.6518   -2.5648    1.0707 H         1 <0>         0.1155
     30 H7         -0.4211   -3.9618   -0.0138 H         1 <0>         0.1302
     31 H8          1.3345   -0.6383    0.8220 H         1 <0>         0.1155
     32 H9          2.5758   -1.0551   -0.3891 H         1 <0>         0.1302
     33 H10         0.9228   -0.9247   -2.1907 H         1 <0>         0.1344
     34 H11         0.8655    0.5856   -1.2504 H         1 <0>         0.1569
     35 H12         1.2975   -2.4405    2.0860 H         1 <0>         0.1502
     36 H13         2.0243   -2.8976    4.3657 H         1 <0>         0.1496
     37 H14         3.7223   -4.5886    4.8448 H         1 <0>         0.1558
     38 H15         4.7590   -5.8851    3.0650 H         1 <0>         0.1623
     39 H16         5.6790   -7.3052   -0.6001 H         1 <0>         0.1677
     40 H17         5.7487   -7.6901   -3.0316 H         1 <0>         0.1653
     41 H18         2.7675   -4.6896   -3.6107 H         1 <0>         0.1565
     42 H19         1.9393   -3.6432   -2.0263 H         1 <0>         0.4255
     43 H20         4.9278   -6.3202    1.0333 H         1 <0>         0.4372
     44 H21        -0.9695   -0.3754   -0.0171 H         1 <0>         0.4310
@<TRIPOS>BOND
     1    1    2 1
     2    1   24 1
     3    1   25 1
     4    1   26 1
     5    2    7 1
     6    2    3 1
     7    2   44 1
     8    3    4 1
     9    3   27 1
    10    3   28 1
    11    4    5 1
    12    4   29 1
    13    4   30 1
    14    5    6 1
    15    5    8 1
    16    6    7 1
    17    6   31 1
    18    6   32 1
    19    7   33 1
    20    7   34 1
    21    8   22 1
    22    8    9 2
    23    9   14 ar
    24    9   10 ar
    25   10   11 ar
    26   10   35 1
    27   11   12 ar
    28   11   36 1
    29   12   13 ar
    30   12   37 1
    31   13   14 ar
    32   13   38 1
    33   14   15 2
    34   15   16 1
    35   15   43 1
    36   16   21 ar
    37   16   17 ar
    38   17   18 ar
    39   17   39 1
    40   18   19 ar
    41   18   40 1
    42   19   20 ar
    43   19   23 1
    44   20   21 ar
    45   20   41 1
    46   21   22 1
    47   22   42 1
@<TRIPOS>MOLECULE
ZINC19796155
   43    46     0     0     0
SMALL
USER_CHARGES

@<TRIPOS>ATOM
      1 C1         -0.0523    1.4387   -0.3863 C.3       1 <0>        -0.0469
      2 N1         -0.0147   -0.0168   -0.1908 N.4       1 <0>        -0.3852
      3 C2          0.4863   -0.6601   -1.4120 C.3       1 <0>        -0.0213
      4 C3          0.4181   -2.1823   -1.2510 C.3       1 <0>         0.1002
      5 N2          1.1441   -2.5548   -0.0269 N.pl3     1 <0>        -0.6180
      6 C4          0.8178   -1.8405    1.2170 C.3       1 <0>         0.0860
      7 C5          0.8671   -0.3344    0.9395 C.3       1 <0>        -0.0221
      8 C6          2.1017   -3.5432   -0.0451 C.2       1 <0>         0.5019
      9 N3          2.4234   -4.0210   -1.1951 N.2       1 <0>        -0.5760
     10 C7          3.3217   -5.0050   -1.4750 C.ar      1 <0>         0.1390
     11 C8          3.0096   -5.9522   -2.4541 C.ar      1 <0>        -0.0932
     12 C9          3.9229   -6.9340   -2.7877 C.ar      1 <0>        -0.0267
     13 C10         5.1529   -6.9852   -2.1572 C.ar      1 <0>        -0.1032
     14 C11         5.4673   -6.0631   -1.1730 C.ar      1 <0>        -0.1031
     15 C12         4.5533   -5.0871   -0.8155 C.ar      1 <0>         0.1235
     16 N4          4.8505   -4.2243    0.2524 N.pl3     1 <0>        -0.7273
     17 C13         4.0239   -4.2464    1.3765 C.ar      1 <0>         0.2173
     18 C14         2.6645   -3.9489    1.2520 C.ar      1 <0>        -0.1537
     19 C15         1.8414   -4.0345    2.3754 C.ar      1 <0>        -0.0841
     20 C16         2.3802   -4.3733    3.6007 C.ar      1 <0>        -0.1334
     21 C17         3.7349   -4.6261    3.7220 C.ar      1 <0>        -0.0692
     22 C18         4.5500   -4.5705    2.6174 C.ar      1 <0>        -0.1369
     23 Cl1         3.5248   -8.1083   -4.0027 Cl        1 <0>        -0.0551
     24 H1          0.9534    1.8033   -0.5956 H         1 <0>         0.1211
     25 H2         -0.7066    1.6758   -1.2253 H         1 <0>         0.1256
     26 H3         -0.4316    1.9169    0.5167 H         1 <0>         0.1252
     27 H4         -0.1269   -0.3565   -2.2605 H         1 <0>         0.1425
     28 H5          1.5196   -0.3587   -1.5839 H         1 <0>         0.1315
     29 H6         -0.6226   -2.4957   -1.1694 H         1 <0>         0.0898
     30 H7          0.8819   -2.6629   -2.1125 H         1 <0>         0.1431
     31 H8         -0.1827   -2.1194    1.5479 H         1 <0>         0.0960
     32 H9          1.5457   -2.0950    1.9873 H         1 <0>         0.1385
     33 H10         1.8889   -0.0428    0.6965 H         1 <0>         0.1320
     34 H11         0.5345    0.2092    1.8238 H         1 <0>         0.1439
     35 H12         2.0515   -5.9169   -2.9512 H         1 <0>         0.1396
     36 H13         5.8689   -7.7454   -2.4325 H         1 <0>         0.1422
     37 H14         6.4287   -6.1057   -0.6827 H         1 <0>         0.1382
     38 H15         5.6134   -3.6267    0.2096 H         1 <0>         0.4129
     39 H16         0.7836   -3.8354    2.2868 H         1 <0>         0.1314
     40 H17         1.7411   -4.4409    4.4686 H         1 <0>         0.1357
     41 H18         4.1512   -4.8742    4.6872 H         1 <0>         0.1370
     42 H19         5.6063   -4.7705    2.7202 H         1 <0>         0.1363
     43 H20        -0.9456   -0.3526    0.0057 H         1 <0>         0.4250
@<TRIPOS>BOND
     1    1    2 1
     2    1   24 1
     3    1   25 1
     4    1   26 1
     5    2    7 1
     6    2    3 1
     7    2   43 1
     8    3    4 1
     9    3   27 1
    10    3   28 1
    11    4    5 1
    12    4   29 1
    13    4   30 1
    14    5    6 1
    15    5    8 1
    16    6    7 1
    17    6   31 1
    18    6   32 1
    19    7   33 1
    20    7   34 1
    21    8   18 1
    22    8    9 2
    23    9   10 1
    24   10   15 ar
    25   10   11 ar
    26   11   12 ar
    27   11   35 1
    28   12   13 ar
    29   12   23 1
    30   13   14 ar
    31   13   36 1
    32   14   15 ar
    33   14   37 1
    34   15   16 1
    35   16   17 1
    36   16   38 1
    37   17   22 ar
    38   17   18 ar
    39   18   19 ar
    40   19   20 ar
    41   19   39 1
    42   20   21 ar
    43   20   40 1
    44   21   22 ar
    45   21   41 1
    46   22   42 1
@<TRIPOS>MOLECULE
ZINC03786156
   21    21     0     0     0
SMALL
USER_CHARGES
methyl 1,4,5,6-tetrahydropyrimidine-5-carboxylate
@<TRIPOS>ATOM
      1 C1         -0.0176    1.4478    0.0100 C.3       1 <0>         0.0338
      2 O1          0.0021   -0.0041    0.0020 O.3       1 <0>        -0.3519
      3 C2          0.6181   -0.6108    1.0287 C.2       1 <0>         0.4729
      4 O2          1.1242    0.0494    1.9050 O.2       1 <0>        -0.4790
      5 C3          0.6786   -2.1154    1.0883 C.3       1 <0>        -0.1161
      6 H1          1.1904   -2.4976    0.2051 H         1 <0>         0.1404
      7 C4          1.4325   -2.5533    2.3534 C.3       1 <0>         0.0888
      8 N1          1.4356   -4.0243    2.3746 N.pl3     1 <0>        -0.6512
      9 C5          0.2889   -4.6908    2.0332 C.cat     1 <0>         0.5013
     10 C6         -0.7400   -2.6864    1.1506 C.3       1 <0>         0.0711
     11 H2          1.0050    1.8251    0.0023 H         1 <0>         0.0730
     12 H3         -0.5448    1.8089   -0.8731 H         1 <0>         0.1143
     13 H4         -0.5278    1.7993    0.9068 H         1 <0>         0.0722
     14 H5          2.4564   -2.1808    2.3224 H         1 <0>         0.1344
     15 H6          0.9253   -2.1698    3.2387 H         1 <0>         0.1175
     16 H7          2.2349   -4.5131    2.6261 H         1 <0>         0.4550
     17 H8          0.2204   -5.7479    2.2436 H         1 <0>         0.2227
     18 H9         -1.3073   -2.1572    1.9162 H         1 <0>         0.1162
     19 H10        -1.2257   -2.5486    0.1845 H         1 <0>         0.1329
     20 N2         -0.7825   -4.1645    1.4520 N.pl3     1 <0>        -0.6270
     21 H11        -1.6023   -4.7368    1.2182 H         1 <0>         0.4786
@<TRIPOS>BOND
     1    1    2 1
     2    1   11 1
     3    1   12 1
     4    1   13 1
     5    2    3 1
     6    3    4 2
     7    3    5 1
     8    5    6 1
     9    5   10 1
    10    5    7 1
    11    7    8 1
    12    7   14 1
    13    7   15 1
    14    8    9 1
    15    8   16 1
    16    9   17 1
    17    9   20 2
    18   10   18 1
    19   10   19 1
    20   10   20 1
    21   20   21 1
@<TRIPOS>MOLECULE
ZINC13738330
   21    21     0     0     0
SMALL
USER_CHARGES
methyl (5R)-1,4,5,6-tetrahydropyrimidine-5-carboxylate
@<TRIPOS>ATOM
      1 C1         -3.7794    5.5037   -1.6828 C.3       1 <0>         0.0339
      2 O1         -2.5238    4.7758   -1.7294 O.3       1 <0>        -0.3519
      3 C2         -2.4251    3.6812   -0.9588 C.2       1 <0>         0.4731
      4 O2         -3.3570    3.3424   -0.2683 O.2       1 <0>        -0.4789
      5 C3         -1.1521    2.8747   -0.9550 C.3       1 <0>        -0.1161
      6 H1         -0.9533    2.4976   -1.9582 H         1 <0>         0.1402
      7 C4         -1.2871    1.6978    0.0173 C.3       1 <0>         0.0884
      8 N1         -0.0111    0.9658    0.0074 N.pl3     1 <0>        -0.6508
      9 C5          1.1579    1.6794    0.0000 C.cat     1 <0>         0.5011
     10 C6          0.0134    3.7533   -0.4942 C.3       1 <0>         0.0712
     11 H2         -3.9640    5.8449   -0.6642 H         1 <0>         0.0723
     12 H3         -3.7256    6.3640   -2.3500 H         1 <0>         0.1143
     13 H4         -4.5911    4.8486   -1.9993 H         1 <0>         0.0730
     14 H5         -2.0941    1.0406   -0.3066 H         1 <0>         0.1346
     15 H6         -1.4923    2.0716    1.0204 H         1 <0>         0.1170
     16 H7          0.0021   -0.0041    0.0020 H         1 <0>         0.4551
     17 H8          2.0845    1.1601    0.1957 H         1 <0>         0.2227
     18 H9         -0.2717    4.2800    0.4165 H         1 <0>         0.1162
     19 H10         0.2447    4.4808   -1.2722 H         1 <0>         0.1330
     20 N2          1.2826    2.9812   -0.2288 N.pl3     1 <0>        -0.6271
     21 H11         2.2004    3.4415   -0.2254 H         1 <0>         0.4786
@<TRIPOS>BOND
     1    1    2 1
     2    1   11 1
     3    1   12 1
     4    1   13 1
     5    2    3 1
     6    3    4 2
     7    3    5 1
     8    5    6 1
     9    5   10 1
    10    5    7 1
    11    7    8 1
    12    7   14 1
    13    7   15 1
    14    8    9 1
    15    8   16 1
    16    9   17 1
    17    9   20 2
    18   10   18 1
    19   10   19 1
    20   10   20 1
    21   20   21 1
@<TRIPOS>MOLECULE
ZINC03786169
   24    24     0     0     0
SMALL
USER_CHARGES
ethyl 1,4,5,6-tetrahydropyrimidine-5-carboxylate
@<TRIPOS>ATOM
      1 C1         -0.0187    1.5258    0.0104 C.3       1 <0>        -0.1573
      2 C2          0.0021   -0.0041    0.0020 C.3       1 <0>         0.0634
      3 O1         -1.3601   -0.5067    0.0123 O.3       1 <0>        -0.3518
      4 C3         -1.5179   -1.8396    0.0067 C.2       1 <0>         0.4747
      5 O2         -0.5499   -2.5625   -0.0065 O.2       1 <0>        -0.4803
      6 C4         -2.9025   -2.4345    0.0167 C.3       1 <0>        -0.1163
      7 H1         -3.4508   -2.1032   -0.8652 H         1 <0>         0.1400
      8 C5         -2.8070   -3.9679    0.0209 C.3       1 <0>         0.0888
      9 N1         -4.1808   -4.4926    0.0600 N.pl3     1 <0>        -0.6510
     10 C6         -5.0923   -3.8920    0.8872 C.cat     1 <0>         0.5010
     11 C7         -3.6441   -1.9934    1.2808 C.3       1 <0>         0.0713
     12 H2          1.0039    1.9031    0.0027 H         1 <0>         0.0898
     13 H3         -0.5459    1.8868   -0.8726 H         1 <0>         0.0705
     14 H4         -0.5289    1.8773    0.9072 H         1 <0>         0.0695
     15 H5          0.5123   -0.3556   -0.8948 H         1 <0>         0.0793
     16 H6          0.5293   -0.3651    0.8851 H         1 <0>         0.0787
     17 H7         -2.3049   -4.3106   -0.8839 H         1 <0>         0.1345
     18 H8         -2.2559   -4.3026    0.8998 H         1 <0>         0.1174
     19 H9         -4.4363   -5.2500   -0.4895 H         1 <0>         0.4549
     20 H10        -6.0310   -4.3918    1.0755 H         1 <0>         0.2226
     21 H11        -3.0027   -2.1521    2.1477 H         1 <0>         0.1160
     22 H12        -3.8873   -0.9337    1.2036 H         1 <0>         0.1328
     23 N2         -4.9458   -2.7246    1.5025 N.pl3     1 <0>        -0.6271
     24 H13        -5.6840   -2.3370    2.1016 H         1 <0>         0.4784
@<TRIPOS>BOND
     1    1    2 1
     2    1   12 1
     3    1   13 1
     4    1   14 1
     5    2    3 1
     6    2   15 1
     7    2   16 1
     8    3    4 1
     9    4    5 2
    10    4    6 1
    11    6    7 1
    12    6   11 1
    13    6    8 1
    14    8    9 1
    15    8   17 1
    16    8   18 1
    17    9   10 1
    18    9   19 1
    19   10   20 1
    20   10   23 2
    21   11   21 1
    22   11   22 1
    23   11   23 1
    24   23   24 1
@<TRIPOS>MOLECULE
ZINC13738331
   24    24     0     0     0
SMALL
USER_CHARGES
ethyl (5R)-1,4,5,6-tetrahydropyrimidine-5-carboxylate
@<TRIPOS>ATOM
      1 C1         -0.7527    1.5927   -1.2315 C.3       1 <0>        -0.1573
      2 C2         -0.0127    1.0858    0.0080 C.3       1 <0>         0.0634
      3 O1         -0.6923    1.5541    1.2026 O.3       1 <0>        -0.3518
      4 C3         -0.1661    1.1940    2.3838 C.2       1 <0>         0.4747
      5 O2          0.8294    0.5102    2.4184 O.2       1 <0>        -0.4803
      6 C4         -0.8170    1.6426    3.6668 C.3       1 <0>        -0.1163
      7 H1         -0.8326    2.7317    3.7093 H         1 <0>         0.1401
      8 C5         -0.0326    1.0891    4.8663 C.3       1 <0>         0.0888
      9 N1         -0.7262    1.5320    6.0857 N.pl3     1 <0>        -0.6510
     10 C6         -2.0944    1.4829    6.1204 C.cat     1 <0>         0.5011
     11 C7         -2.2478    1.1035    3.7351 C.3       1 <0>         0.0714
     12 H2         -1.7753    1.2154   -1.2238 H         1 <0>         0.0695
     13 H3         -0.7675    2.6825   -1.2255 H         1 <0>         0.0705
     14 H4         -0.2425    1.2411   -2.1283 H         1 <0>         0.0898
     15 H5          0.0021   -0.0041    0.0020 H         1 <0>         0.0787
     16 H6          1.0099    1.4631    0.0003 H         1 <0>         0.0793
     17 H7         -0.0130   -0.0000    4.8257 H         1 <0>         0.1172
     18 H8          0.9854    1.4786    4.8552 H         1 <0>         0.1346
     19 H9         -0.2238    1.8525    6.8511 H         1 <0>         0.4549
     20 H10        -2.5946    1.6067    7.0695 H         1 <0>         0.2226
     21 H11        -2.8656    1.6304    3.0080 H         1 <0>         0.1328
     22 H12        -2.2428    0.0396    3.4979 H         1 <0>         0.1160
     23 N2         -2.9007    1.2949    5.0824 N.pl3     1 <0>        -0.6271
     24 H13        -3.9216    1.2805    5.1912 H         1 <0>         0.4784
@<TRIPOS>BOND
     1    1    2 1
     2    1   12 1
     3    1   13 1
     4    1   14 1
     5    2    3 1
     6    2   15 1
     7    2   16 1
     8    3    4 1
     9    4    5 2
    10    4    6 1
    11    6    7 1
    12    6   11 1
    13    6    8 1
    14    8    9 1
    15    8   17 1
    16    8   18 1
    17    9   10 1
    18    9   19 1
    19   10   20 1
    20   10   23 2
    21   11   21 1
    22   11   22 1
    23   11   23 1
    24   23   24 1
@<TRIPOS>MOLECULE
ZINC13741159
   25    26     0     0     0
SMALL
USER_CHARGES
1-oxa-8-azaspiro[4.5]decan-3-one
@<TRIPOS>ATOM
      1 C1         -0.0127    1.0858    0.0080 C.3       1 <0>        -0.1390
      2 C2         -0.7309    1.5804    1.2665 C.3       1 <0>        -0.0004
      3 C3         -1.5448    3.5471    0.1045 C.3       1 <0>         0.0014
      4 C4         -0.8520    3.1169   -1.1913 C.3       1 <0>        -0.1609
      5 C5         -0.7532    1.5927   -1.2285 C.3       1 <0>         0.0894
      6 C6         -0.0119    1.1482   -2.5007 C.3       1 <0>        -0.2024
      7 C7         -1.0397    0.3202   -3.2644 C.2       1 <0>         0.3455
      8 O1         -0.8534   -0.5144   -4.1171 O.2       1 <0>        -0.3928
      9 C8         -2.3625    0.8093   -2.6816 C.3       1 <0>         0.0033
     10 O2         -2.0674    1.0177   -1.2831 O.3       1 <0>        -0.3437
     11 H1          0.0021   -0.0041    0.0020 H         1 <0>         0.1219
     12 H2          1.0097    1.4637    0.0003 H         1 <0>         0.1058
     13 H3         -1.7452    1.1818    1.2862 H         1 <0>         0.1372
     14 H4         -0.1902    1.2415    2.1502 H         1 <0>         0.1360
     15 H5         -1.5946    4.6352    0.1459 H         1 <0>         0.1350
     16 H6         -2.5539    3.1359    0.1307 H         1 <0>         0.1365
     17 H7          0.1487    3.5475   -1.2293 H         1 <0>         0.1037
     18 H8         -1.4306    3.4651   -2.0469 H         1 <0>         0.1175
     19 H9          0.2872    1.9545   -3.0111 H         1 <0>         0.1118
     20 H10         0.8543    0.5383   -2.2439 H         1 <0>         0.1164
     21 H11        -2.6423    1.6483   -3.1482 H         1 <0>         0.0955
     22 H12        -3.1367    0.0514   -2.8006 H         1 <0>         0.1285
     23 N1         -0.7771    3.0555    1.2651 N.4       1 <0>        -0.5164
     24 H13         0.1803    3.4235    1.2175 H         1 <0>         0.4312
     25 H14        -1.2260    3.3803    2.1295 H         1 <0>         0.4390
@<TRIPOS>BOND
     1    1    5 1
     2    1    2 1
     3    1   11 1
     4    1   12 1
     5    2   13 1
     6    2   14 1
     7    2   23 1
     8    3    4 1
     9    3   15 1
    10    3   16 1
    11    3   23 1
    12    4    5 1
    13    4   17 1
    14    4   18 1
    15    5   10 1
    16    5    6 1
    17    6    7 1
    18    6   19 1
    19    6   20 1
    20    7    8 2
    21    7    9 1
    22    9   10 1
    23    9   21 1
    24    9   22 1
    25   23   24 1
    26   23   25 1
@<TRIPOS>MOLECULE
ZINC00075008
   32    33     0     0     0
SMALL
USER_CHARGES

@<TRIPOS>ATOM
      1 C1         -0.0187    1.5258    0.0104 C.3       1 <0>        -0.1692
      2 C2          0.0021   -0.0041    0.0020 C.3       1 <0>        -0.1119
      3 C3          0.7421   -0.5109    1.2415 C.3       1 <0>        -0.1479
      4 H1          0.3057   -0.0870    2.1460 H         1 <0>         0.1287
      5 C4          0.7115   -2.0596    1.2975 C.3       1 <0>        -0.1233
      6 H2          0.6061   -2.4144    2.3227 H         1 <0>         0.1134
      7 C5          2.1164   -2.3969    0.7292 C.3       1 <0>         0.0516
      8 O1          2.9309   -1.3180    1.2350 O.3       1 <0>        -0.3401
      9 C6          2.2184   -0.1737    1.1547 C.2       1 <0>         0.4815
     10 O2          2.6790    0.9365    1.0319 O.2       1 <0>        -0.4208
     11 C7         -0.3962   -2.6229    0.4051 C.3       1 <0>        -0.0523
     12 C8         -0.4722   -4.1176    0.5817 C.2       1 <0>         0.0491
     13 C9         -1.1569   -4.7798    1.5337 C.2       1 <0>         0.0090
     14 N1         -0.9664   -6.0938    1.3437 N.pl3     1 <0>        -0.4734
     15 C10        -0.1897   -6.2711    0.3101 C.cat     1 <0>         0.2921
     16 N2          0.1367   -5.0634   -0.1984 N.pl3     1 <0>        -0.4081
     17 C11         0.9865   -4.8122   -1.3650 C.3       1 <0>         0.0465
     18 H3          1.0039    1.9031    0.0027 H         1 <0>         0.0730
     19 H4         -0.5459    1.8868   -0.8726 H         1 <0>         0.0645
     20 H5         -0.5289    1.8773    0.9072 H         1 <0>         0.0616
     21 H6         -1.0205   -0.3814    0.0098 H         1 <0>         0.0832
     22 H7          0.5123   -0.3556   -0.8948 H         1 <0>         0.0669
     23 H8          2.4668   -3.3565    1.1094 H         1 <0>         0.1088
     24 H9          2.1035   -2.3932   -0.3607 H         1 <0>         0.0818
     25 H10        -1.3502   -2.1752    0.6837 H         1 <0>         0.1267
     26 H11        -0.1766   -2.3909   -0.6370 H         1 <0>         0.1041
     27 H12        -1.7546   -4.3313    2.3135 H         1 <0>         0.2243
     28 H13         0.1349   -7.2257   -0.0769 H         1 <0>         0.2626
     29 H14         2.0244   -4.7197   -1.0453 H         1 <0>         0.1126
     30 H15         0.8950   -5.6415   -2.0664 H         1 <0>         0.1212
     31 H16         0.6724   -3.8887   -1.8512 H         1 <0>         0.1168
     32 H17        -1.3459   -6.8007    1.8888 H         1 <0>         0.4669
@<TRIPOS>BOND
     1    1    2 1
     2    1   18 1
     3    1   19 1
     4    1   20 1
     5    2    3 1
     6    2   21 1
     7    2   22 1
     8    3    4 1
     9    3    9 1
    10    3    5 1
    11    5    6 1
    12    5    7 1
    13    5   11 1
    14    7    8 1
    15    7   23 1
    16    7   24 1
    17    8    9 1
    18    9   10 2
    19   11   12 1
    20   11   25 1
    21   11   26 1
    22   12   16 1
    23   12   13 2
    24   13   14 1
    25   13   27 1
    26   14   15 2
    27   14   32 1
    28   15   16 1
    29   15   28 1
    30   16   17 1
    31   17   29 1
    32   17   30 1
    33   17   31 1
@<TRIPOS>MOLECULE
ZINC00075008
   31    32     0     0     0
SMALL
USER_CHARGES

@<TRIPOS>ATOM
      1 C1         -0.0187    1.5258    0.0104 C.3       1 <0>        -0.1655
      2 C2          0.0021   -0.0041    0.0020 C.3       1 <0>        -0.1099
      3 C3          0.7182   -0.4975   -1.2568 C.3       1 <0>        -0.1502
      4 H1          1.7087   -0.0489   -1.3325 H         1 <0>         0.1225
      5 C4          0.8208   -2.0441   -1.2529 C.3       1 <0>        -0.1162
      6 H2          1.7701   -2.3766   -1.6729 H         1 <0>         0.1082
      7 C5         -0.3648   -2.4146   -2.1843 C.3       1 <0>         0.0561
      8 O1         -0.3610   -1.3385   -3.1463 O.3       1 <0>        -0.3457
      9 C6         -0.1032   -0.1851   -2.4931 C.2       1 <0>         0.4842
     10 O2         -0.4675    0.9151   -2.8345 O.2       1 <0>        -0.4382
     11 C7          0.6159   -2.6078    0.1546 C.3       1 <0>        -0.0312
     12 C8          0.8442   -4.0973    0.1373 C.2       1 <0>        -0.0343
     13 C9          2.0273   -4.7295    0.2567 C.2       1 <0>        -0.0169
     14 N1          1.8006   -6.0499    0.1913 N.2       1 <0>        -0.4919
     15 C10         0.5220   -6.2599    0.0360 C.2       1 <0>         0.1849
     16 N2         -0.1117   -5.0679    0.0033 N.pl3     1 <0>        -0.4594
     17 C11        -1.5528   -4.8533   -0.1503 C.3       1 <0>         0.0647
     18 H3          1.0039    1.9031    0.0027 H         1 <0>         0.0585
     19 H4         -0.5459    1.8868   -0.8726 H         1 <0>         0.0703
     20 H5         -0.5289    1.8773    0.9072 H         1 <0>         0.0597
     21 H6          0.5293   -0.3651    0.8851 H         1 <0>         0.0843
     22 H7         -1.0205   -0.3814    0.0098 H         1 <0>         0.0649
     23 H8         -0.1867   -3.3717   -2.6745 H         1 <0>         0.1115
     24 H9         -1.3021   -2.4325   -1.6283 H         1 <0>         0.0791
     25 H10         1.3226   -2.1398    0.8399 H         1 <0>         0.1014
     26 H11        -0.4020   -2.4001    0.4846 H         1 <0>         0.0781
     27 H12         2.9898   -4.2563    0.3829 H         1 <0>         0.1692
     28 H13         0.0486   -7.2270   -0.0483 H         1 <0>         0.2058
     29 H14        -1.7970   -4.7706   -1.2094 H         1 <0>         0.0786
     30 H15        -2.0935   -5.6949    0.2826 H         1 <0>         0.0920
     31 H16        -1.8400   -3.9349    0.3617 H         1 <0>         0.0854
@<TRIPOS>BOND
     1    1    2 1
     2    1   18 1
     3    1   19 1
     4    1   20 1
     5    2    3 1
     6    2   21 1
     7    2   22 1
     8    3    4 1
     9    3    9 1
    10    3    5 1
    11    5    6 1
    12    5    7 1
    13    5   11 1
    14    7    8 1
    15    7   23 1
    16    7   24 1
    17    8    9 1
    18    9   10 2
    19   11   12 1
    20   11   25 1
    21   11   26 1
    22   12   16 1
    23   12   13 2
    24   13   14 1
    25   13   27 1
    26   14   15 2
    27   15   16 1
    28   15   28 1
    29   16   17 1
    30   17   29 1
    31   17   30 1
    32   17   31 1
@<TRIPOS>MOLECULE
ZINC00004140
   33    34     0     0     0
SMALL
USER_CHARGES
3,8-dimethyl-2-methylene-4-oxa-8-azaspiro[4.5]decane
@<TRIPOS>ATOM
      1 C1         -0.7693    1.6007   -1.2181 C.3       1 <0>        -0.1518
      2 C2         -0.0127    1.0858    0.0080 C.3       1 <0>         0.1065
      3 H1          0.0021   -0.0041    0.0020 H         1 <0>         0.0800
      4 C3         -0.6833    1.5839    1.2743 C.2       1 <0>        -0.1757
      5 C4         -1.9189    1.3780    1.6576 C.2       1 <0>        -0.1419
      6 C5          0.3964    2.3766    2.0035 C.3       1 <0>        -0.1129
      7 C6          1.6912    1.8260    1.3701 C.3       1 <0>         0.0925
      8 O1          1.3340    1.5917   -0.0021 O.3       1 <0>        -0.3558
      9 C7          2.8067    2.8592    1.4662 C.3       1 <0>        -0.1332
     10 C8          4.0915    2.2760    0.8700 C.3       1 <0>         0.0008
     11 C9          3.4070    0.0187    1.4334 C.3       1 <0>         0.0031
     12 C10         2.0987    0.5242    2.0490 C.3       1 <0>        -0.1609
     13 C11         5.7540    0.5380    1.1458 C.3       1 <0>        -0.0415
     14 H2         -0.2806    1.2417   -2.1238 H         1 <0>         0.0676
     15 H3         -1.7963    1.2365   -1.1907 H         1 <0>         0.0758
     16 H4         -0.7701    2.6907   -1.2133 H         1 <0>         0.0662
     17 H5         -2.5850    0.7923    1.0414 H         1 <0>         0.1130
     18 H6         -2.2715    1.7939    2.5898 H         1 <0>         0.1137
     19 H7          0.3711    2.1726    3.0739 H         1 <0>         0.0918
     20 H8          0.2926    3.4439    1.8083 H         1 <0>         0.0969
     21 H9          2.5224    3.7540    0.9125 H         1 <0>         0.1209
     22 H10         2.9751    3.1164    2.5119 H         1 <0>         0.1024
     23 H11         4.8998    3.0004    0.9694 H         1 <0>         0.1310
     24 H12         3.9330    2.0505   -0.1846 H         1 <0>         0.1359
     25 H13         3.7189   -0.8939    1.9415 H         1 <0>         0.1297
     26 H14         3.2539   -0.1891    0.3744 H         1 <0>         0.1341
     27 H15         2.2423    0.6996    3.1152 H         1 <0>         0.0992
     28 H16         1.3168   -0.2214    1.9048 H         1 <0>         0.1150
     29 H17         5.6975    0.2510    0.0957 H         1 <0>         0.1230
     30 H18         6.5060    1.3173    1.2695 H         1 <0>         0.1223
     31 H19         6.0283   -0.3300    1.7454 H         1 <0>         0.1216
     32 N1          4.4507    1.0506    1.6159 N.4       1 <0>        -0.3958
     33 H20         4.5226    1.2781    2.6146 H         1 <0>         0.4269
@<TRIPOS>BOND
     1    1    2 1
     2    1   14 1
     3    1   15 1
     4    1   16 1
     5    2    3 1
     6    2    8 1
     7    2    4 1
     8    4    5 2
     9    4    6 1
    10    5   17 1
    11    5   18 1
    12    6    7 1
    13    6   19 1
    14    6   20 1
    15    7   12 1
    16    7    8 1
    17    7    9 1
    18    9   10 1
    19    9   21 1
    20    9   22 1
    21   10   23 1
    22   10   24 1
    23   10   32 1
    24   11   12 1
    25   11   25 1
    26   11   26 1
    27   11   32 1
    28   12   27 1
    29   12   28 1
    30   13   29 1
    31   13   30 1
    32   13   31 1
    33   13   32 1
    34   32   33 1
@<TRIPOS>MOLECULE
ZINC03790076
   33    34     0     0     0
SMALL
USER_CHARGES
3,8-dimethyl-2-methylene-4-oxa-8-azaspiro[4.5]decane
@<TRIPOS>ATOM
      1 C1         -0.6525   -0.5385    1.2775 C.3       1 <0>        -0.1749
      2 C2          0.0021   -0.0041    0.0020 C.3       1 <0>         0.1037
      3 H1         -0.4429   -0.4832   -0.8701 H         1 <0>         0.1082
      4 C3         -0.1892    1.4984   -0.0832 C.2       1 <0>        -0.1744
      5 C4         -1.3189    2.1560   -0.1682 C.2       1 <0>        -0.1417
      6 C5          1.2223    2.0751   -0.0551 C.3       1 <0>        -0.1132
      7 C6          2.0361    0.9196    0.5641 C.3       1 <0>         0.0930
      8 O1          1.4167   -0.2641    0.0342 O.3       1 <0>        -0.3534
      9 C7          3.4928    1.0059    0.1260 C.3       1 <0>        -0.1334
     10 C8          4.2887   -0.1247    0.7852 C.3       1 <0>         0.0008
     11 C9          2.7727   -0.1784    2.6773 C.3       1 <0>         0.0030
     12 C10         1.9247    0.9504    2.0833 C.3       1 <0>        -0.1739
     13 C11         5.0395   -0.9944    2.9162 C.3       1 <0>        -0.0416
     14 H2         -1.7322   -0.5913    1.1371 H         1 <0>         0.0761
     15 H3         -0.2653   -1.5340    1.4949 H         1 <0>         0.0693
     16 H4         -0.4264    0.1289    2.1090 H         1 <0>         0.0625
     17 H5         -2.2562    1.6196   -0.1832 H         1 <0>         0.1131
     18 H6         -1.3131    3.2346   -0.2233 H         1 <0>         0.1138
     19 H7          1.5705    2.2979   -1.0637 H         1 <0>         0.0973
     20 H8          1.2663    2.9624    0.5765 H         1 <0>         0.0916
     21 H9          3.5530    0.9090   -0.9580 H         1 <0>         0.1210
     22 H10         3.9074    1.9673    0.4293 H         1 <0>         0.1021
     23 H11         5.3379   -0.0442    0.5010 H         1 <0>         0.1309
     24 H12         3.8955   -1.0863    0.4552 H         1 <0>         0.1357
     25 H13         2.7225   -0.1367    3.7654 H         1 <0>         0.1292
     26 H14         2.3914   -1.1395    2.3325 H         1 <0>         0.1340
     27 H15         2.2846    1.9098    2.4549 H         1 <0>         0.0980
     28 H16         0.8831    0.8146    2.3744 H         1 <0>         0.1254
     29 H17         4.7103   -2.0049    2.6738 H         1 <0>         0.1230
     30 H18         6.0664   -0.8559    2.5780 H         1 <0>         0.1222
     31 H19         4.9888   -0.8446    3.9946 H         1 <0>         0.1215
     32 N1          4.1778    0.0064    2.2540 N.4       1 <0>        -0.3957
     33 H20         4.4870    0.9463    2.5284 H         1 <0>         0.4267
@<TRIPOS>BOND
     1    1    2 1
     2    1   14 1
     3    1   15 1
     4    1   16 1
     5    2    3 1
     6    2    8 1
     7    2    4 1
     8    4    5 2
     9    4    6 1
    10    5   17 1
    11    5   18 1
    12    6    7 1
    13    6   19 1
    14    6   20 1
    15    7   12 1
    16    7    8 1
    17    7    9 1
    18    9   10 1
    19    9   21 1
    20    9   22 1
    21   10   23 1
    22   10   24 1
    23   10   32 1
    24   11   12 1
    25   11   25 1
    26   11   26 1
    27   11   32 1
    28   12   27 1
    29   12   28 1
    30   13   29 1
    31   13   30 1
    32   13   31 1
    33   13   32 1
    34   32   33 1
@<TRIPOS>MOLECULE
ZINC01530795
   34    35     0     0     0
SMALL
USER_CHARGES

@<TRIPOS>ATOM
      1 C1         -0.0188    1.5357    0.0105 C.3       1 <0>        -0.1444
      2 C2          1.4678    1.9597   -0.0014 C.3       1 <0>        -0.1453
      3 C3          2.1905    0.7049    0.5496 C.3       1 <0>        -0.0056
      4 N1          1.4211   -0.4185   -0.0440 N.4       1 <0>        -0.3963
      5 C4          0.0021   -0.0041    0.0020 C.3       1 <0>        -0.0071
      6 C5          1.6177   -1.6408    0.7468 C.3       1 <0>         0.1397
      7 C6          0.9478   -2.7694    0.0803 C.1       1 <0>        -0.2723
      8 C7          0.4136   -3.6696   -0.4513 C.1       1 <0>        -0.0629
      9 C8         -0.2563   -4.7982   -1.1178 C.3       1 <0>         0.2164
     10 N2         -0.0602   -6.0172   -0.3292 N.am      1 <0>        -0.6260
     11 C9          1.0683   -6.9401   -0.4981 C.3       1 <0>         0.1002
     12 C10         1.0971   -7.7957    0.7879 C.3       1 <0>        -0.1324
     13 C11        -0.3768   -7.7207    1.2495 C.3       1 <0>        -0.1565
     14 C12        -0.8877   -6.4310    0.6460 C.2       1 <0>         0.5177
     15 O1         -1.8983   -5.8555    0.9901 O.2       1 <0>        -0.5163
     16 H1         -0.5096    1.9024    0.9120 H         1 <0>         0.1051
     17 H2         -0.5267    1.9121   -0.8775 H         1 <0>         0.1049
     18 H3          1.7979    2.1803   -1.0166 H         1 <0>         0.0985
     19 H4          1.6298    2.8165    0.6527 H         1 <0>         0.1191
     20 H5          3.2275    0.6801    0.2150 H         1 <0>         0.1387
     21 H6          2.1355    0.6761    1.6379 H         1 <0>         0.1377
     22 H7         -0.4673   -0.3868    0.9083 H         1 <0>         0.1306
     23 H8         -0.5226   -0.3777   -0.8773 H         1 <0>         0.1268
     24 H9          2.6839   -1.8504    0.8326 H         1 <0>         0.1483
     25 H10         1.1935   -1.5023    1.7412 H         1 <0>         0.1479
     26 H11        -1.3225   -4.5886   -1.2036 H         1 <0>         0.1237
     27 H12         0.1679   -4.9366   -2.1122 H         1 <0>         0.1211
     28 H13         0.9093   -7.5748   -1.3699 H         1 <0>         0.0838
     29 H14         1.9993   -6.3827   -0.6012 H         1 <0>         0.0759
     30 H15         1.3846   -8.8234    0.5663 H         1 <0>         0.0994
     31 H16         1.7619   -7.3582    1.5327 H         1 <0>         0.0801
     32 H17        -0.9394   -8.5734    0.8695 H         1 <0>         0.1140
     33 H18        -0.4342   -7.6786    2.3372 H         1 <0>         0.1068
     34 H19         1.7084   -0.5705   -0.9992 H         1 <0>         0.4287
@<TRIPOS>BOND
     1    1    5 1
     2    1    2 1
     3    1   16 1
     4    1   17 1
     5    2    3 1
     6    2   18 1
     7    2   19 1
     8    3    4 1
     9    3   20 1
    10    3   21 1
    11    4    5 1
    12    4    6 1
    13    4   34 1
    14    5   22 1
    15    5   23 1
    16    6    7 1
    17    6   24 1
    18    6   25 1
    19    7    8 3
    20    8    9 1
    21    9   10 1
    22    9   26 1
    23    9   27 1
    24   10   14 am
    25   10   11 1
    26   11   12 1
    27   11   28 1
    28   11   29 1
    29   12   13 1
    30   12   30 1
    31   12   31 1
    32   13   14 1
    33   13   32 1
    34   13   33 1
    35   14   15 2
@<TRIPOS>MOLECULE
ZINC03831050
   29    28     0     0     0
SMALL
USER_CHARGES

@<TRIPOS>ATOM
      1 C1         -0.3928    1.6474    0.1249 C.3       1 <0>        -0.1734
      2 C2         -0.2100    0.1289    0.0830 C.3       1 <0>         0.0559
      3 H1          0.2528   -0.2070    1.0110 H         1 <0>         0.1076
      4 C3         -1.5740   -0.5447   -0.0797 C.3       1 <0>        -0.0025
      5 N1         -1.4134   -2.0025    0.0048 N.4       1 <0>        -0.2723
      6 C4         -0.7209   -2.3473    1.2536 C.3       1 <0>        -0.0557
      7 C5         -2.7354   -2.6427   -0.0149 C.3       1 <0>        -0.0453
      8 C6         -0.6233   -2.4752   -1.1399 C.3       1 <0>        -0.0476
      9 O1          0.6281   -0.2197   -1.0206 O.3       1 <0>        -0.3570
     10 C7          1.9494   -0.2717   -0.7899 C.2       1 <0>         0.4581
     11 O2          2.3802   -0.0291    0.3126 O.2       1 <0>        -0.4920
     12 C8          2.8956   -0.6324   -1.9060 C.3       1 <0>        -0.1528
     13 H2          0.5790    2.1273    0.2408 H         1 <0>         0.0824
     14 H3         -0.8556    1.9833   -0.8031 H         1 <0>         0.0803
     15 H4         -1.0321    1.9133    0.9667 H         1 <0>         0.0873
     16 H5         -2.2430   -0.2065    0.7116 H         1 <0>         0.1484
     17 H6         -1.9960   -0.2813   -1.0495 H         1 <0>         0.1425
     18 H7         -1.3071   -1.9965    2.1029 H         1 <0>         0.1261
     19 H8         -0.6017   -3.4289    1.3163 H         1 <0>         0.1274
     20 H9          0.2600   -1.8722    1.2682 H         1 <0>         0.1179
     21 H10        -3.2492   -2.3869   -0.9415 H         1 <0>         0.1238
     22 H11        -2.6162   -3.7244    0.0478 H         1 <0>         0.1246
     23 H12        -3.3216   -2.2920    0.8345 H         1 <0>         0.1227
     24 H13         0.4164   -2.1734   -1.0131 H         1 <0>         0.1208
     25 H14        -0.6817   -3.5621   -1.1976 H         1 <0>         0.1201
     26 H15        -1.0184   -2.0408   -2.0582 H         1 <0>         0.1260
     27 H16         2.3282   -0.8156   -2.8184 H         1 <0>         0.0962
     28 H17         3.5933    0.1887   -2.0706 H         1 <0>         0.1169
     29 H18         3.4498   -1.5314   -1.6361 H         1 <0>         0.1137
@<TRIPOS>BOND
     1    1    2 1
     2    1   13 1
     3    1   14 1
     4    1   15 1
     5    2    3 1
     6    2    4 1
     7    2    9 1
     8    4    5 1
     9    4   16 1
    10    4   17 1
    11    5    6 1
    12    5    7 1
    13    5    8 1
    14    6   18 1
    15    6   19 1
    16    6   20 1
    17    7   21 1
    18    7   22 1
    19    7   23 1
    20    8   24 1
    21    8   25 1
    22    8   26 1
    23    9   10 1
    24   10   11 2
    25   10   12 1
    26   12   27 1
    27   12   28 1
    28   12   29 1
@<TRIPOS>MOLECULE
ZINC03831051
   29    28     0     0     0
SMALL
USER_CHARGES

@<TRIPOS>ATOM
      1 C1         -0.0441    1.7102   -0.8814 C.3       1 <0>        -0.1735
      2 C2         -0.0857    0.2133   -0.5678 C.3       1 <0>         0.0558
      3 H1          0.3181    0.0397    0.4297 H         1 <0>         0.1075
      4 C3          0.7533   -0.5469   -1.5970 C.3       1 <0>        -0.0028
      5 N1          0.8440   -1.9602   -1.2070 N.4       1 <0>        -0.2723
      6 C4         -0.4922   -2.5686   -1.2564 C.3       1 <0>        -0.0488
      7 C5          1.7385   -2.6673   -2.1332 C.3       1 <0>        -0.0453
      8 C6          1.3765   -2.0582    0.1586 C.3       1 <0>        -0.0560
      9 O1         -1.4374   -0.2472   -0.6214 O.3       1 <0>        -0.3566
     10 C7         -2.1441   -0.1964    0.5187 C.2       1 <0>         0.4582
     11 O2         -1.6320    0.2252    1.5286 O.2       1 <0>        -0.4920
     12 C8         -3.5762   -0.6650    0.5390 C.3       1 <0>        -0.1528
     13 H2          0.9870    2.0615   -0.8405 H         1 <0>         0.0873
     14 H3         -0.4478    1.8839   -1.8789 H         1 <0>         0.0804
     15 H4         -0.6418    2.2518   -0.1482 H         1 <0>         0.0824
     16 H5          0.2830   -0.4699   -2.5773 H         1 <0>         0.1427
     17 H6          1.7539   -0.1166   -1.6393 H         1 <0>         0.1486
     18 H7         -0.9549   -2.3516   -2.2191 H         1 <0>         0.1260
     19 H8         -0.4049   -3.6478   -1.1302 H         1 <0>         0.1202
     20 H9         -1.1082   -2.1579   -0.4564 H         1 <0>         0.1209
     21 H10         2.7300   -2.2159   -2.0966 H         1 <0>         0.1228
     22 H11         1.8059   -3.7160   -1.8439 H         1 <0>         0.1245
     23 H12         1.3434   -2.5946   -3.1465 H         1 <0>         0.1237
     24 H13         0.7128   -1.5335    0.8459 H         1 <0>         0.1184
     25 H14         1.4439   -3.1069    0.4480 H         1 <0>         0.1274
     26 H15         2.3680   -1.6068    0.1952 H         1 <0>         0.1262
     27 H16        -3.8606   -1.0075   -0.4560 H         1 <0>         0.0963
     28 H17        -3.6800   -1.4855    1.2490 H         1 <0>         0.1138
     29 H18        -4.2240    0.1589    0.8385 H         1 <0>         0.1169
@<TRIPOS>BOND
     1    1    2 1
     2    1   13 1
     3    1   14 1
     4    1   15 1
     5    2    3 1
     6    2    4 1
     7    2    9 1
     8    4    5 1
     9    4   16 1
    10    4   17 1
    11    5    6 1
    12    5    7 1
    13    5    8 1
    14    6   18 1
    15    6   19 1
    16    6   20 1
    17    7   21 1
    18    7   22 1
    19    7   23 1
    20    8   24 1
    21    8   25 1
    22    8   26 1
    23    9   10 1
    24   10   11 2
    25   10   12 1
    26   12   27 1
    27   12   28 1
    28   12   29 1
@<TRIPOS>MOLECULE
ZINC19632927
   48    51     0     0     0
SMALL
USER_CHARGES

@<TRIPOS>ATOM
      1 C1         -0.0178    1.4648    0.0101 C.3       1 <0>        -0.0455
      2 N1          0.0021   -0.0041    0.0020 N.4       1 <0>        -0.3894
      3 C2          0.6881   -0.4775   -1.2074 C.3       1 <0>        -0.0008
      4 C3          0.6925   -2.0076   -1.2257 C.3       1 <0>         0.0269
      5 N2          1.3783   -2.5070   -0.0254 N.3       1 <0>        -0.5225
      6 C4          0.7172   -2.0206    1.1938 C.3       1 <0>         0.0161
      7 C5          0.7125   -0.4904    1.1921 C.3       1 <0>         0.0015
      8 C6          1.4533   -3.9741   -0.0341 C.3       1 <0>         0.0426
      9 C7          2.3669   -4.4368    1.0715 C.2       1 <0>         0.5351
     10 O1          2.9027   -3.6245    1.7954 O.2       1 <0>        -0.4900
     11 N3          2.5885   -5.7534    1.2559 N.am      1 <0>        -0.5088
     12 C8          3.4268   -6.1930    2.2788 C.ar      1 <0>         0.1626
     13 C9          4.7558   -5.7953    2.3068 C.ar      1 <0>        -0.1029
     14 C10         5.5974   -6.2612    3.2975 C.ar      1 <0>        -0.0752
     15 C11         5.1221   -7.1293    4.2666 C.ar      1 <0>        -0.1148
     16 C12         3.8013   -7.5220    4.2622 C.ar      1 <0>        -0.0472
     17 C13         2.9321   -7.0440    3.2767 C.ar      1 <0>        -0.1388
     18 C14         1.5076   -7.3936    3.3274 C.2       1 <0>         0.5693
     19 O2          0.9941   -7.4628    4.4272 O.2       1 <0>        -0.5115
     20 N4          0.7308   -7.6402    2.2834 N.am      1 <0>        -0.6546
     21 C15         1.1049   -7.6466    0.9429 C.ar      1 <0>         0.1116
     22 C16         1.9766   -6.6982    0.4280 C.ar      1 <0>         0.3036
     23 N5          2.2523   -6.6867   -0.8690 N.ar      1 <0>        -0.4707
     24 C17         1.7527   -7.5835   -1.6967 C.ar      1 <0>         0.1138
     25 C18         0.9140   -8.5804   -1.2402 C.ar      1 <0>        -0.1334
     26 C19         0.5835   -8.6183    0.0940 C.ar      1 <0>        -0.0812
     27 H1          1.0047    1.8421    0.0024 H         1 <0>         0.1237
     28 H2         -0.5450    1.8259   -0.8730 H         1 <0>         0.1244
     29 H3         -0.5280    1.8163    0.9069 H         1 <0>         0.1243
     30 H4          0.1675   -0.1052   -2.0897 H         1 <0>         0.1384
     31 H5          1.7147   -0.1111   -1.2098 H         1 <0>         0.1397
     32 H6         -0.3339   -2.3742   -1.2371 H         1 <0>         0.0623
     33 H7          1.2146   -2.3592   -2.1156 H         1 <0>         0.1270
     34 H8         -0.3088   -2.3874    1.2222 H         1 <0>         0.0573
     35 H9          1.2573   -2.3817    2.0691 H         1 <0>         0.1369
     36 H10         1.7390   -0.1239    1.1774 H         1 <0>         0.1407
     37 H11         0.2100   -0.1276    2.0887 H         1 <0>         0.1368
     38 H12         0.4575   -4.3897    0.1196 H         1 <0>         0.0732
     39 H13         1.8441   -4.3122   -0.9938 H         1 <0>         0.1348
     40 H14         5.1327   -5.1207    1.5523 H         1 <0>         0.1352
     41 H15         6.6308   -5.9477    3.3166 H         1 <0>         0.1412
     42 H16         5.7903   -7.5006    5.0294 H         1 <0>         0.1426
     43 H17         3.4373   -8.1998    5.0202 H         1 <0>         0.1436
     44 H18        -0.1996   -7.8381    2.4737 H         1 <0>         0.4153
     45 H19         2.0029   -7.5372   -2.7463 H         1 <0>         0.1750
     46 H20         0.5246   -9.3217   -1.9223 H         1 <0>         0.1560
     47 H21        -0.0739   -9.3867    0.4732 H         1 <0>         0.1543
     48 H22        -0.9446   -0.3531    0.0097 H         1 <0>         0.4216
@<TRIPOS>BOND
     1    1    2 1
     2    1   27 1
     3    1   28 1
     4    1   29 1
     5    2    7 1
     6    2    3 1
     7    2   48 1
     8    3    4 1
     9    3   30 1
    10    3   31 1
    11    4    5 1
    12    4   32 1
    13    4   33 1
    14    5    6 1
    15    5    8 1
    16    6    7 1
    17    6   34 1
    18    6   35 1
    19    7   36 1
    20    7   37 1
    21    8    9 1
    22    8   38 1
    23    8   39 1
    24    9   10 2
    25    9   11 am
    26   11   22 1
    27   11   12 1
    28   12   17 ar
    29   12   13 ar
    30   13   14 ar
    31   13   40 1
    32   14   15 ar
    33   14   41 1
    34   15   16 ar
    35   15   42 1
    36   16   17 ar
    37   16   43 1
    38   17   18 1
    39   18   19 2
    40   18   20 am
    41   20   21 1
    42   20   44 1
    43   21   26 ar
    44   21   22 ar
    45   22   23 ar
    46   23   24 ar
    47   24   25 ar
    48   24   45 1
    49   25   26 ar
    50   25   46 1
    51   26   47 1
@<TRIPOS>MOLECULE
ZINC19632927
   48    51     0     0     0
SMALL
USER_CHARGES

@<TRIPOS>ATOM
      1 C1         -0.0178    1.4648    0.0101 C.3       1 <0>         0.0196
      2 N1          0.0021   -0.0041    0.0020 N.3       1 <0>        -0.5444
      3 C2          0.6054   -0.5158   -1.2366 C.3       1 <0>         0.0258
      4 C3          0.5529   -2.0452   -1.2320 C.3       1 <0>        -0.0018
      5 N2          1.2823   -2.5567   -0.0641 N.4       1 <0>        -0.3733
      6 C4          0.6533   -2.0570    1.1655 C.3       1 <0>        -0.0155
      7 C5          0.7065   -0.5278    1.1808 C.3       1 <0>         0.0300
      8 C6          1.2470   -4.0253   -0.0699 C.3       1 <0>        -0.0244
      9 C7          2.0969   -4.5526    1.0573 C.2       1 <0>         0.5235
     10 O1          2.6751   -3.7810    1.7931 O.2       1 <0>        -0.4949
     11 N3          2.2146   -5.8816    1.2479 N.am      1 <0>        -0.4846
     12 C8          2.9932   -6.3804    2.2906 C.ar      1 <0>         0.1484
     13 C9          4.3473   -6.0836    2.3497 C.ar      1 <0>        -0.1002
     14 C10         5.1280   -6.6089    3.3605 C.ar      1 <0>        -0.0741
     15 C11         4.5660   -7.4364    4.3187 C.ar      1 <0>        -0.1065
     16 C12         3.2199   -7.7288    4.2833 C.ar      1 <0>        -0.0453
     17 C13         2.4126   -7.1893    3.2772 C.ar      1 <0>        -0.1310
     18 C14         0.9650   -7.4308    3.2944 C.2       1 <0>         0.5660
     19 O2          0.4220   -7.4585    4.3818 O.2       1 <0>        -0.5020
     20 N4          0.1966   -7.6210    2.2325 N.am      1 <0>        -0.6563
     21 C15         0.6007   -7.6588    0.9012 C.ar      1 <0>         0.1240
     22 C16         1.5531   -6.7799    0.4064 C.ar      1 <0>         0.2781
     23 N5          1.8594   -6.7924   -0.8838 N.ar      1 <0>        -0.4751
     24 C17         1.3134   -7.6512   -1.7224 C.ar      1 <0>         0.1160
     25 C18         0.3916   -8.5811   -1.2851 C.ar      1 <0>        -0.1227
     26 C19         0.0278   -8.5907    0.0409 C.ar      1 <0>        -0.0791
     27 H1          1.0047    1.8421    0.0024 H         1 <0>         0.0402
     28 H2         -0.5450    1.8259   -0.8730 H         1 <0>         0.0841
     29 H3         -0.5280    1.8163    0.9069 H         1 <0>         0.0845
     30 H4          0.0516   -0.1355   -2.0950 H         1 <0>         0.1271
     31 H5          1.6430   -0.1877   -1.2984 H         1 <0>         0.0626
     32 H6         -0.4855   -2.3730   -1.1840 H         1 <0>         0.1398
     33 H7          1.0127   -2.4272   -2.1434 H         1 <0>         0.1394
     34 H8         -0.3857   -2.3847    1.2013 H         1 <0>         0.1346
     35 H9          1.1874   -2.4478    2.0316 H         1 <0>         0.1491
     36 H10         1.7458   -0.1998    1.1589 H         1 <0>         0.0634
     37 H11         0.2266   -0.1562    2.0862 H         1 <0>         0.1249
     38 H12         0.2194   -4.3646    0.0604 H         1 <0>         0.1577
     39 H13         1.6338   -4.3943   -1.0199 H         1 <0>         0.1742
     40 H14         4.7915   -5.4410    1.6039 H         1 <0>         0.1353
     41 H15         6.1812   -6.3738    3.4038 H         1 <0>         0.1444
     42 H16         5.1863   -7.8550    5.0974 H         1 <0>         0.1462
     43 H17         2.7883   -8.3754    5.0330 H         1 <0>         0.1472
     44 H18        -0.7502   -7.7480    2.4009 H         1 <0>         0.4187
     45 H19         1.5909   -7.6265   -2.7658 H         1 <0>         0.1794
     46 H20        -0.0363   -9.2928   -1.9757 H         1 <0>         0.1603
     47 H21        -0.6942   -9.3066    0.4050 H         1 <0>         0.1586
     48 H22         2.2406   -2.2435   -0.1027 H         1 <0>         0.4278
@<TRIPOS>BOND
     1    1    2 1
     2    1   27 1
     3    1   28 1
     4    1   29 1
     5    2    7 1
     6    2    3 1
     7    3    4 1
     8    3   30 1
     9    3   31 1
    10    4    5 1
    11    4   32 1
    12    4   33 1
    13    5    6 1
    14    5    8 1
    15    5   48 1
    16    6    7 1
    17    6   34 1
    18    6   35 1
    19    7   36 1
    20    7   37 1
    21    8    9 1
    22    8   38 1
    23    8   39 1
    24    9   10 2
    25    9   11 am
    26   11   22 1
    27   11   12 1
    28   12   17 ar
    29   12   13 ar
    30   13   14 ar
    31   13   40 1
    32   14   15 ar
    33   14   41 1
    34   15   16 ar
    35   15   42 1
    36   16   17 ar
    37   16   43 1
    38   17   18 1
    39   18   19 2
    40   18   20 am
    41   20   21 1
    42   20   44 1
    43   21   26 ar
    44   21   22 ar
    45   22   23 ar
    46   23   24 ar
    47   24   25 ar
    48   24   45 1
    49   25   26 ar
    50   25   46 1
    51   26   47 1
@<TRIPOS>MOLECULE
ZINC19632927
   47    50     0     0     0
SMALL
USER_CHARGES

@<TRIPOS>ATOM
      1 C1         -0.0178    1.4648    0.0101 C.3       1 <0>         0.0248
      2 N1          0.0021   -0.0041    0.0020 N.3       1 <0>        -0.5479
      3 C2          0.6031   -0.5158   -1.2375 C.3       1 <0>         0.0571
      4 C3          0.5329   -2.0447   -1.2421 C.3       1 <0>         0.0591
      5 N2          1.2373   -2.5683   -0.0634 N.3       1 <0>        -0.5228
      6 C4          0.6362   -2.0566    1.1762 C.3       1 <0>         0.0505
      7 C5          0.7064   -0.5277    1.1807 C.3       1 <0>         0.0599
      8 C6          1.2572   -4.0372   -0.0715 C.3       1 <0>         0.0451
      9 C7          2.1875   -4.5329    1.0055 C.2       1 <0>         0.5341
     10 O1          2.7761   -3.7405    1.7103 O.2       1 <0>        -0.4817
     11 N3          2.3656   -5.8566    1.1853 N.am      1 <0>        -0.5193
     12 C8          3.2191   -6.3265    2.1819 C.ar      1 <0>         0.1729
     13 C9          4.5622   -5.9787    2.1669 C.ar      1 <0>        -0.1042
     14 C10         5.4170   -6.4750    3.1313 C.ar      1 <0>        -0.0765
     15 C11         4.9406   -7.3239    4.1167 C.ar      1 <0>        -0.1213
     16 C12         3.6066   -7.6669    4.1551 C.ar      1 <0>        -0.0489
     17 C13         2.7249   -7.1575    3.1968 C.ar      1 <0>        -0.1413
     18 C14         1.2907   -7.4536    3.2934 C.2       1 <0>         0.5714
     19 O2          0.8103   -7.5027    4.4091 O.2       1 <0>        -0.5168
     20 N4          0.4724   -7.6719    2.2751 N.am      1 <0>        -0.6527
     21 C15         0.8031   -7.6933    0.9234 C.ar      1 <0>         0.1066
     22 C16         1.6928   -6.7786    0.3792 C.ar      1 <0>         0.3179
     23 N5          1.9273   -6.7785   -0.9260 N.ar      1 <0>        -0.4679
     24 C17         1.3685   -7.6566   -1.7356 C.ar      1 <0>         0.1140
     25 C18         0.5081   -8.6211   -1.2507 C.ar      1 <0>        -0.1400
     26 C19         0.2190   -8.6455    0.0935 C.ar      1 <0>        -0.0822
     27 H1          1.0047    1.8421    0.0024 H         1 <0>         0.0275
     28 H2         -0.5450    1.8259   -0.8730 H         1 <0>         0.0690
     29 H3         -0.5280    1.8163    0.9069 H         1 <0>         0.0692
     30 H4          0.0565   -0.1241   -2.0954 H         1 <0>         0.0824
     31 H5          1.6447   -0.1994   -1.2942 H         1 <0>         0.0451
     32 H6         -0.5098   -2.3609   -1.2128 H         1 <0>         0.0448
     33 H7          1.0041   -2.4277   -2.1472 H         1 <0>         0.0835
     34 H8         -0.4053   -2.3729    1.2329 H         1 <0>         0.0384
     35 H9          1.1828   -2.4483    2.0340 H         1 <0>         0.0945
     36 H10         1.7492   -0.2115    1.1515 H         1 <0>         0.0462
     37 H11         0.2352   -0.1447    2.0859 H         1 <0>         0.0803
     38 H12         0.2519   -4.4152    0.1146 H         1 <0>         0.0611
     39 H13         1.6043   -4.3905   -1.0424 H         1 <0>         0.1222
     40 H14         4.9398   -5.3192    1.3995 H         1 <0>         0.1359
     41 H15         6.4613   -6.2003    3.1169 H         1 <0>         0.1387
     42 H16         5.6185   -7.7193    4.8587 H         1 <0>         0.1391
     43 H17         3.2419   -8.3300    4.9256 H         1 <0>         0.1408
     44 H18        -0.4582   -7.8347    2.4953 H         1 <0>         0.4144
     45 H19         1.5866   -7.6205   -2.7927 H         1 <0>         0.1727
     46 H20         0.0697   -9.3478   -1.9185 H         1 <0>         0.1527
     47 H21        -0.4542   -9.3885    0.4949 H         1 <0>         0.1514
@<TRIPOS>BOND
     1    1    2 1
     2    1   27 1
     3    1   28 1
     4    1   29 1
     5    2    7 1
     6    2    3 1
     7    3    4 1
     8    3   30 1
     9    3   31 1
    10    4    5 1
    11    4   32 1
    12    4   33 1
    13    5    6 1
    14    5    8 1
    15    6    7 1
    16    6   34 1
    17    6   35 1
    18    7   36 1
    19    7   37 1
    20    8    9 1
    21    8   38 1
    22    8   39 1
    23    9   10 2
    24    9   11 am
    25   11   22 1
    26   11   12 1
    27   12   17 ar
    28   12   13 ar
    29   13   14 ar
    30   13   40 1
    31   14   15 ar
    32   14   41 1
    33   15   16 ar
    34   15   42 1
    35   16   17 ar
    36   16   43 1
    37   17   18 1
    38   18   19 2
    39   18   20 am
    40   20   21 1
    41   20   44 1
    42   21   26 ar
    43   21   22 ar
    44   22   23 ar
    45   23   24 ar
    46   24   25 ar
    47   24   45 1
    48   25   26 ar
    49   25   46 1
    50   26   47 1
