@<TRIPOS>MOLECULE
ZINC53166256
   43    46     0     0     0
SMALL
USER_CHARGES

@<TRIPOS>ATOM
      1 C1         -0.0645    1.4412   -0.3732 C.3       1 <0>         0.0245
      2 N1         -0.0216   -0.0161   -0.1927 N.3       1 <0>        -0.5427
      3 C2          0.3881   -0.6883   -1.4329 C.3       1 <0>         0.0399
      4 C3          0.2462   -2.2042   -1.2592 C.3       1 <0>         0.1270
      5 N2          0.9912   -2.6085   -0.0572 N.pl3     1 <0>        -0.5934
      6 C4          0.7333   -1.8856    1.1973 C.3       1 <0>         0.1156
      7 C5          0.8560   -0.3822    0.9269 C.3       1 <0>         0.0395
      8 C6          1.9059   -3.6360   -0.1053 C.2       1 <0>         0.5356
      9 N3          2.1874   -4.1476   -1.2567 N.2       1 <0>        -0.6206
     10 C7          2.9530   -5.2310   -1.5577 C.ar      1 <0>         0.1701
     11 C8          2.4830   -6.1190   -2.5335 C.ar      1 <0>        -0.1161
     12 C9          3.2327   -7.2189   -2.8990 C.ar      1 <0>        -0.1046
     13 C10         4.4585   -7.4578   -2.3086 C.ar      1 <0>        -0.1308
     14 C11         4.9338   -6.5952   -1.3330 C.ar      1 <0>        -0.1099
     15 C12         4.1849   -5.4996   -0.9492 C.ar      1 <0>         0.0928
     16 N4          4.6603   -4.6750    0.0974 N.pl3     1 <0>        -0.6675
     17 C13         3.8314   -4.5378    1.1992 C.2       1 <0>         0.0941
     18 C14         2.5165   -4.0886    1.1665 C.2       1 <0>        -0.2204
     19 C15         1.8382   -4.1107    2.4492 C.2       1 <0>        -0.0854
     20 C16         2.5687   -4.5058    3.5084 C.2       1 <0>        -0.1956
     21 S1          4.1544   -4.8614    2.8004 S.3       1 <0>         0.1912
     22 C17         2.1405   -4.6249    4.9484 C.3       1 <0>         0.1641
     23 O1          1.6299   -5.9381    5.1865 O.3       1 <0>        -0.5666
     24 H1          0.9395    1.8113   -0.5807 H         1 <0>         0.0253
     25 H2         -0.7212    1.6847   -1.2084 H         1 <0>         0.0709
     26 H3         -0.4436    1.9089    0.5355 H         1 <0>         0.0707
     27 H4         -0.2467   -0.3553   -2.2540 H         1 <0>         0.0875
     28 H5          1.4271   -0.4432   -1.6533 H         1 <0>         0.0376
     29 H6         -0.8063   -2.4623   -1.1417 H         1 <0>         0.0713
     30 H7          0.6556   -2.7127   -2.1321 H         1 <0>         0.1047
     31 H8         -0.2724   -2.1131    1.5509 H         1 <0>         0.0773
     32 H9          1.4647   -2.1834    1.9486 H         1 <0>         0.0976
     33 H10         1.8885   -0.1414    0.6736 H         1 <0>         0.0377
     34 H11         0.5606    0.1728    1.8173 H         1 <0>         0.0886
     35 H12         1.5267   -5.9420   -3.0033 H         1 <0>         0.1272
     36 H13         2.8583   -7.8974   -3.6513 H         1 <0>         0.1261
     37 H14         5.0449   -8.3146   -2.6060 H         1 <0>         0.1266
     38 H15         5.8924   -6.7804   -0.8713 H         1 <0>         0.1236
     39 H16         5.5203   -4.2292    0.0463 H         1 <0>         0.4183
     40 H17         0.8015   -3.8247    2.5488 H         1 <0>         0.1460
     41 H18         2.9969   -4.4447    5.5982 H         1 <0>         0.0639
     42 H19         1.3639   -3.8895    5.1585 H         1 <0>         0.0718
     43 H20         1.3347   -6.0866    6.0953 H         1 <0>         0.3866
@<TRIPOS>BOND
     1    1    2 1
     2    1   24 1
     3    1   25 1
     4    1   26 1
     5    2    7 1
     6    2    3 1
     7    3    4 1
     8    3   27 1
     9    3   28 1
    10    4    5 1
    11    4   29 1
    12    4   30 1
    13    5    6 1
    14    5    8 1
    15    6    7 1
    16    6   31 1
    17    6   32 1
    18    7   33 1
    19    7   34 1
    20    8   18 1
    21    8    9 2
    22    9   10 1
    23   10   15 ar
    24   10   11 ar
    25   11   12 ar
    26   11   35 1
    27   12   13 ar
    28   12   36 1
    29   13   14 ar
    30   13   37 1
    31   14   15 ar
    32   14   38 1
    33   15   16 1
    34   16   17 1
    35   16   39 1
    36   17   21 1
    37   17   18 2
    38   18   19 1
    39   19   20 2
    40   19   40 1
    41   20   21 1
    42   20   22 1
    43   22   23 1
    44   22   41 1
    45   22   42 1
    46   23   43 1
@<TRIPOS>MOLECULE
ZINC53166256
   44    47     0     0     0
SMALL
USER_CHARGES

@<TRIPOS>ATOM
      1 C1         -0.0503    1.4404   -0.3738 C.3       1 <0>        -0.0468
      2 N1         -0.0137   -0.0159   -0.1846 N.4       1 <0>        -0.3851
      3 C2          0.4926   -0.6538   -1.4064 C.3       1 <0>        -0.0215
      4 C3          0.4236   -2.1768   -1.2526 C.3       1 <0>         0.1009
      5 N2          1.1441   -2.5548   -0.0269 N.pl3     1 <0>        -0.6150
      6 C4          0.8123   -1.8460    1.2187 C.3       1 <0>         0.0891
      7 C5          0.8630   -0.3387    0.9482 C.3       1 <0>        -0.0221
      8 C6          2.1011   -3.5439   -0.0451 C.2       1 <0>         0.5271
      9 N3          2.4417   -4.0411   -1.1867 N.2       1 <0>        -0.5934
     10 C7          3.2607   -5.0916   -1.4627 C.ar      1 <0>         0.1438
     11 C8          2.8603   -5.9960   -2.4544 C.ar      1 <0>        -0.1034
     12 C9          3.6662   -7.0636   -2.7954 C.ar      1 <0>        -0.1053
     13 C10         4.8803   -7.2535   -2.1643 C.ar      1 <0>        -0.1121
     14 C11         5.2869   -6.3742   -1.1727 C.ar      1 <0>        -0.1118
     15 C12         4.4814   -5.3110   -0.8134 C.ar      1 <0>         0.1053
     16 N4          4.8874   -4.4699    0.2491 N.pl3     1 <0>        -0.6685
     17 C13         4.0171   -4.3690    1.3226 C.2       1 <0>         0.0970
     18 C14         2.6868   -3.9739    1.2462 C.2       1 <0>        -0.2330
     19 C15         1.9674   -4.0264    2.5054 C.2       1 <0>        -0.1010
     20 C16         2.6776   -4.3936    3.5882 C.2       1 <0>        -0.1858
     21 S1          4.2994   -4.6826    2.9336 S.3       1 <0>         0.2189
     22 C17         2.2067   -4.5331    5.0129 C.3       1 <0>         0.1600
     23 O1          1.7425   -5.8666    5.2328 O.3       1 <0>        -0.5661
     24 H1          0.9563    1.8058   -0.5769 H         1 <0>         0.1210
     25 H2         -0.7009    1.6813   -1.2145 H         1 <0>         0.1255
     26 H3         -0.4336    1.9146    0.5297 H         1 <0>         0.1251
     27 H4         -0.1168   -0.3464   -2.2563 H         1 <0>         0.1423
     28 H5          1.5267   -0.3518   -1.5724 H         1 <0>         0.1313
     29 H6         -0.6176   -2.4904   -1.1769 H         1 <0>         0.0891
     30 H7          0.8911   -2.6535   -2.1141 H         1 <0>         0.1420
     31 H8         -0.1896   -2.1263    1.5440 H         1 <0>         0.0942
     32 H9          1.5369   -2.1040    1.9911 H         1 <0>         0.1380
     33 H10         1.8859   -0.0462    0.7110 H         1 <0>         0.1319
     34 H11         0.5265    0.2010    1.8334 H         1 <0>         0.1434
     35 H12         1.9139   -5.8573   -2.9558 H         1 <0>         0.1292
     36 H13         3.3452   -7.7553   -3.5603 H         1 <0>         0.1323
     37 H14         5.5108   -8.0849   -2.4425 H         1 <0>         0.1334
     38 H15         6.2363   -6.5211   -0.6793 H         1 <0>         0.1295
     39 H16         5.7296   -3.9892    0.2272 H         1 <0>         0.4219
     40 H17         0.9172   -3.7832    2.5704 H         1 <0>         0.1434
     41 H18         3.0327   -4.3194    5.6912 H         1 <0>         0.0672
     42 H19         1.3940   -3.8304    5.1974 H         1 <0>         0.0714
     43 H20         1.4234   -6.0289    6.1311 H         1 <0>         0.3916
     44 H21        -0.9456   -0.3526    0.0063 H         1 <0>         0.4248
@<TRIPOS>BOND
     1    1    2 1
     2    1   24 1
     3    1   25 1
     4    1   26 1
     5    2    7 1
     6    2    3 1
     7    2   44 1
     8    3    4 1
     9    3   27 1
    10    3   28 1
    11    4    5 1
    12    4   29 1
    13    4   30 1
    14    5    6 1
    15    5    8 1
    16    6    7 1
    17    6   31 1
    18    6   32 1
    19    7   33 1
    20    7   34 1
    21    8   18 1
    22    8    9 2
    23    9   10 1
    24   10   15 ar
    25   10   11 ar
    26   11   12 ar
    27   11   35 1
    28   12   13 ar
    29   12   36 1
    30   13   14 ar
    31   13   37 1
    32   14   15 ar
    33   14   38 1
    34   15   16 1
    35   16   17 1
    36   16   39 1
    37   17   21 1
    38   17   18 2
    39   18   19 1
    40   19   20 2
    41   19   40 1
    42   20   21 1
    43   20   22 1
    44   22   23 1
    45   22   41 1
    46   22   42 1
    47   23   43 1
@<TRIPOS>MOLECULE
ZINC52956332
   66    69     0     0     0
SMALL
USER_CHARGES

@<TRIPOS>ATOM
      1 C1         -0.2570   -0.0396   -0.2249 C.3       1 <0>        -0.1481
      2 C2         -0.4777   -1.5512   -0.1410 C.3       1 <0>         0.0719
      3 C3          0.2510   -2.1058    1.0847 C.3       1 <0>        -0.1743
      4 O1         -1.8760   -1.8229   -0.0272 O.3       1 <0>        -0.2968
      5 C4         -2.3308   -2.9699   -0.5993 C.ar      1 <0>         0.1238
      6 C5         -1.4369   -3.8709   -1.1538 C.ar      1 <0>        -0.2108
      7 C6         -1.9007   -5.0365   -1.7356 C.ar      1 <0>        -0.0833
      8 C7         -3.2562   -5.3067   -1.7656 C.ar      1 <0>        -0.1528
      9 C8         -4.1549   -4.4130   -1.2140 C.ar      1 <0>        -0.0865
     10 C9         -3.6965   -3.2442   -0.6239 C.ar      1 <0>         0.1375
     11 N1         -4.6040   -2.3403   -0.0596 N.pl3     1 <0>        -0.6674
     12 C10        -5.1972   -1.2631   -0.8665 C.3       1 <0>         0.1547
     13 C11        -5.0050    0.0635   -0.1240 C.3       1 <0>         0.0426
     14 N2         -5.5408   -0.0593    1.2382 N.3       1 <0>        -0.5278
     15 C12        -4.8056   -1.0693    2.0110 C.3       1 <0>         0.0391
     16 C13        -4.9943   -2.4462    1.3545 C.3       1 <0>         0.1554
     17 C14        -5.5326    1.2387    1.9262 C.3       1 <0>         0.0947
     18 C15        -6.3064    1.1292    3.2147 C.ar      1 <0>        -0.0813
     19 C16        -7.6662    1.3854    3.2273 C.ar      1 <0>        -0.0744
     20 C17        -8.3840    1.2867    4.4058 C.ar      1 <0>        -0.1211
     21 C18        -7.7471    0.9321    5.5774 C.ar      1 <0>        -0.0675
     22 C19        -6.3760    0.6723    5.5716 C.ar      1 <0>        -0.1273
     23 C20        -5.6587    0.7682    4.3778 C.ar      1 <0>        -0.0879
     24 C21        -5.6870    0.2923    6.8233 C.2       1 <0>         0.5617
     25 O2         -6.1780   -0.5424    7.5580 O.2       1 <0>        -0.5326
     26 N3         -4.5146    0.8713    7.1497 N.am      1 <0>        -0.6059
     27 C22        -3.8640    1.8148    6.2303 C.3       1 <0>         0.0916
     28 C23        -3.5771    3.1180    6.9827 C.3       1 <0>        -0.1360
     29 C24        -2.7654    2.8071    8.2423 C.3       1 <0>        -0.1214
     30 C25        -3.5758    1.8882    9.1594 C.3       1 <0>        -0.1356
     31 C26        -3.8657    0.5757    8.4343 C.3       1 <0>         0.1105
     32 H1          0.8096    0.1676   -0.3117 H         1 <0>         0.0754
     33 H2         -0.7761    0.3555   -1.0981 H         1 <0>         0.0627
     34 H3         -0.6472    0.4351    0.6754 H         1 <0>         0.0636
     35 H4         -0.0875   -2.0259   -1.0413 H         1 <0>         0.0742
     36 H5         -0.1393   -1.6311    1.9850 H         1 <0>         0.0650
     37 H6          0.0937   -3.1828    1.1445 H         1 <0>         0.0608
     38 H7          1.3176   -1.8986    0.9979 H         1 <0>         0.0710
     39 H8         -0.3773   -3.6629   -1.1321 H         1 <0>         0.1279
     40 H9         -1.2021   -5.7375   -2.1681 H         1 <0>         0.1235
     41 H10        -3.6139   -6.2182   -2.2214 H         1 <0>         0.1239
     42 H11        -5.2133   -4.6264   -1.2391 H         1 <0>         0.1282
     43 H12        -4.7006   -1.2157   -1.8356 H         1 <0>         0.0685
     44 H13        -6.2613   -1.4538   -1.0061 H         1 <0>         0.0563
     45 H14        -3.9427    0.3033   -0.0768 H         1 <0>         0.0406
     46 H15        -5.5341    0.8563   -0.6529 H         1 <0>         0.0772
     47 H16        -3.7461   -0.8138    2.0285 H         1 <0>         0.0394
     48 H17        -5.1901   -1.0982    3.0305 H         1 <0>         0.0783
     49 H18        -6.0393   -2.7483    1.4243 H         1 <0>         0.0563
     50 H19        -4.3636   -3.1812    1.8544 H         1 <0>         0.0674
     51 H20        -4.5044    1.5283    2.1433 H         1 <0>         0.0422
     52 H21        -5.9950    1.9913    1.2875 H         1 <0>         0.0858
     53 H22        -8.1693    1.6640    2.3132 H         1 <0>         0.1285
     54 H23        -9.4450    1.4880    4.4089 H         1 <0>         0.1309
     55 H24        -8.3085    0.8561    6.4969 H         1 <0>         0.1292
     56 H25        -4.5982    0.5642    4.3658 H         1 <0>         0.1264
     57 H26        -2.9283    1.3874    5.8698 H         1 <0>         0.0700
     58 H27        -4.5244    2.0175    5.3871 H         1 <0>         0.0990
     59 H28        -3.0089    3.7912    6.3407 H         1 <0>         0.0765
     60 H29        -4.5182    3.5906    7.2637 H         1 <0>         0.0681
     61 H30        -1.8355    2.3122    7.9621 H         1 <0>         0.0648
     62 H31        -2.5388    3.7354    8.7666 H         1 <0>         0.0672
     63 H32        -3.0066    1.6860   10.0668 H         1 <0>         0.0777
     64 H33        -4.5169    2.3723    9.4200 H         1 <0>         0.0669
     65 H34        -4.5272   -0.0389    9.0449 H         1 <0>         0.0936
     66 H35        -2.9302    0.0450    8.2576 H         1 <0>         0.0683
@<TRIPOS>BOND
     1    1    2 1
     2    1   32 1
     3    1   33 1
     4    1   34 1
     5    2    3 1
     6    2    4 1
     7    2   35 1
     8    3   36 1
     9    3   37 1
    10    3   38 1
    11    4    5 1
    12    5   10 ar
    13    5    6 ar
    14    6    7 ar
    15    6   39 1
    16    7    8 ar
    17    7   40 1
    18    8    9 ar
    19    8   41 1
    20    9   10 ar
    21    9   42 1
    22   10   11 1
    23   11   16 1
    24   11   12 1
    25   12   13 1
    26   12   43 1
    27   12   44 1
    28   13   14 1
    29   13   45 1
    30   13   46 1
    31   14   15 1
    32   14   17 1
    33   15   16 1
    34   15   47 1
    35   15   48 1
    36   16   49 1
    37   16   50 1
    38   17   18 1
    39   17   51 1
    40   17   52 1
    41   18   23 ar
    42   18   19 ar
    43   19   20 ar
    44   19   53 1
    45   20   21 ar
    46   20   54 1
    47   21   22 ar
    48   21   55 1
    49   22   23 ar
    50   22   24 1
    51   23   56 1
    52   24   25 2
    53   24   26 am
    54   26   31 1
    55   26   27 1
    56   27   28 1
    57   27   57 1
    58   27   58 1
    59   28   29 1
    60   28   59 1
    61   28   60 1
    62   29   30 1
    63   29   61 1
    64   29   62 1
    65   30   31 1
    66   30   63 1
    67   30   64 1
    68   31   65 1
    69   31   66 1
@<TRIPOS>MOLECULE
ZINC03977785
   53    57     0     0     0
SMALL
USER_CHARGES

@<TRIPOS>ATOM
      1 C1         -0.0173    1.4248    0.0099 C.3       1 <0>         0.0297
      2 O1          0.0021   -0.0041    0.0020 O.3       1 <0>        -0.3232
      3 C2          0.5984   -0.5997   -1.0427 C.2       1 <0>         0.4702
      4 O2          1.0877    0.0699   -1.9214 O.2       1 <0>        -0.5141
      5 C3          0.6575   -2.1036   -1.1196 C.3       1 <0>        -0.0705
      6 H1         -0.3553   -2.5061   -1.1292 H         1 <0>         0.1302
      7 C4          1.4092   -2.6460    0.0974 C.3       1 <0>         0.1112
      8 H2          2.4212   -2.2414    0.1100 H         1 <0>         0.0602
      9 C5          1.4705   -4.1729    0.0153 C.3       1 <0>        -0.1515
     10 C6          2.2113   -4.5823   -1.2587 C.3       1 <0>        -0.1326
     11 C7          1.4664   -4.0438   -2.4826 C.3       1 <0>        -0.1081
     12 H3          0.4649   -4.4724   -2.5190 H         1 <0>         0.1315
     13 C8          1.3810   -2.5185   -2.3989 C.3       1 <0>        -0.0737
     14 H4          0.8319   -2.1415   -3.2617 H         1 <0>         0.1077
     15 C9          2.7928   -1.9262   -2.4160 C.3       1 <0>        -0.1589
     16 C10         3.5103   -2.3981   -3.6821 C.3       1 <0>         0.1155
     17 H5          2.9548   -2.0679   -4.5599 H         1 <0>         0.1495
     18 C11         4.9074   -1.8328   -3.7280 C.2       1 <0>         0.0218
     19 C12         5.9794   -2.5662   -4.1107 C.2       1 <0>        -0.1593
     20 C13         7.1369   -1.7045   -4.0313 C.ar      1 <0>        -0.1001
     21 C14         8.4945   -1.9085   -4.2980 C.ar      1 <0>        -0.0651
     22 C15         9.3323   -0.8371   -4.1111 C.ar      1 <0>        -0.1355
     23 C16         8.8675    0.3940   -3.6782 C.ar      1 <0>        -0.0814
     24 C17         7.5302    0.6240   -3.4055 C.ar      1 <0>        -0.1278
     25 C18         6.6557   -0.4455   -3.5858 C.ar      1 <0>         0.1112
     26 N1          5.3059   -0.5632   -3.4122 N.pl3     1 <0>        -0.5610
     27 H6          4.7183    0.1471   -3.1102 H         1 <0>         0.4235
     28 C19         5.8873   -4.0118   -4.5303 C.3       1 <0>        -0.0680
     29 C20         4.4103   -4.3357   -4.7986 C.3       1 <0>        -0.0070
     30 N2          3.5921   -3.8652   -3.6762 N.4       1 <0>        -0.3805
     31 C21         2.2397   -4.4350   -3.7475 C.3       1 <0>         0.0000
     32 O3          0.7259   -2.2590    1.2913 O.3       1 <0>        -0.5457
     33 H7          1.0053    1.8021    0.0021 H         1 <0>         0.0611
     34 H8         -0.5445    1.7859   -0.8732 H         1 <0>         0.0635
     35 H9         -0.5275    1.7763    0.9067 H         1 <0>         0.1087
     36 H10         1.9994   -4.5630    0.8849 H         1 <0>         0.0864
     37 H11         0.4583   -4.5769   -0.0067 H         1 <0>         0.0895
     38 H12         3.2209   -4.1721   -1.2390 H         1 <0>         0.0596
     39 H13         2.2629   -5.6696   -1.3148 H         1 <0>         0.0926
     40 H14         2.7325   -0.8379   -2.4143 H         1 <0>         0.1358
     41 H15         3.3417   -2.2650   -1.5373 H         1 <0>         0.0927
     42 H16         8.8666   -2.8645   -4.6357 H         1 <0>         0.1349
     43 H17        10.3874   -0.9579   -4.3074 H         1 <0>         0.1281
     44 H18         9.5726    1.2018   -3.5488 H         1 <0>         0.1313
     45 H19         7.1805    1.5885   -3.0678 H         1 <0>         0.1353
     46 H20         6.4698   -4.1697   -5.4380 H         1 <0>         0.1220
     47 H21         6.2658   -4.6516   -3.7331 H         1 <0>         0.0994
     48 H22         4.0893   -3.8376   -5.7134 H         1 <0>         0.1324
     49 H23         4.2888   -5.4132   -4.9094 H         1 <0>         0.1402
     50 H24         2.3054   -5.5210   -3.8133 H         1 <0>         0.1424
     51 H25         1.7237   -4.0459   -4.6252 H         1 <0>         0.1366
     52 H26         1.1478   -2.5695    2.1041 H         1 <0>         0.3887
     53 H27         4.0203   -4.1656   -2.8134 H         1 <0>         0.4208
@<TRIPOS>BOND
     1    1    2 1
     2    1   33 1
     3    1   34 1
     4    1   35 1
     5    2    3 1
     6    3    4 2
     7    3    5 1
     8    5    6 1
     9    5   13 1
    10    5    7 1
    11    7    8 1
    12    7    9 1
    13    7   32 1
    14    9   10 1
    15    9   36 1
    16    9   37 1
    17   10   11 1
    18   10   38 1
    19   10   39 1
    20   11   12 1
    21   11   31 1
    22   11   13 1
    23   13   14 1
    24   13   15 1
    25   15   16 1
    26   15   40 1
    27   15   41 1
    28   16   17 1
    29   16   30 1
    30   16   18 1
    31   18   26 1
    32   18   19 2
    33   19   20 1
    34   19   28 1
    35   20   25 ar
    36   20   21 ar
    37   21   22 ar
    38   21   42 1
    39   22   23 ar
    40   22   43 1
    41   23   24 ar
    42   23   44 1
    43   24   25 ar
    44   24   45 1
    45   25   26 1
    46   26   27 1
    47   28   29 1
    48   28   46 1
    49   28   47 1
    50   29   30 1
    51   29   48 1
    52   29   49 1
    53   30   31 1
    54   30   53 1
    55   31   50 1
    56   31   51 1
    57   32   52 1
@<TRIPOS>MOLECULE
ZINC02001180
   30    30     0     0     0
SMALL
USER_CHARGES
(1S)-2-amino-1-(2,5-dimethoxyphenyl)ethanol
@<TRIPOS>ATOM
      1 C1         -0.0127    1.0858    0.0080 C.3       1 <0>         0.0235
      2 O1         -0.6816    1.5467    1.1837 O.3       1 <0>        -0.3136
      3 C2         -0.7875    2.8926    1.3463 C.ar      1 <0>         0.1061
      4 C3         -0.2530    3.7502    0.3959 C.ar      1 <0>        -0.1501
      5 C4         -0.3656    5.1171    0.5581 C.ar      1 <0>        -0.1580
      6 C5         -1.0031    5.6326    1.6771 C.ar      1 <0>         0.1049
      7 C6         -1.5323    4.7753    2.6301 C.ar      1 <0>        -0.1366
      8 C7         -1.4247    3.4079    2.4650 C.ar      1 <0>        -0.1041
      9 C8         -2.2244    5.3353    3.8460 C.3       1 <0>         0.1435
     10 H1         -1.7304    6.2572    4.1529 H         1 <0>         0.1365
     11 C9         -3.6880    5.6283    3.5101 C.3       1 <0>        -0.0353
     12 O2         -2.1612    4.3840    4.9105 O.3       1 <0>        -0.5480
     13 O3         -1.1094    6.9785    1.8394 O.3       1 <0>        -0.3258
     14 C10        -0.5416    7.8019    0.8188 C.3       1 <0>         0.0240
     15 H2          0.0021   -0.0041    0.0020 H         1 <0>         0.1085
     16 H3          1.0099    1.4631    0.0003 H         1 <0>         0.0598
     17 H4         -0.5399    1.4469   -0.8751 H         1 <0>         0.0591
     18 H5          0.2474    3.3489   -0.4730 H         1 <0>         0.1406
     19 H6          0.0465    5.7847   -0.1841 H         1 <0>         0.1405
     20 H7         -1.8372    2.7403    3.2069 H         1 <0>         0.1408
     21 H8         -3.7370    6.2847    2.6413 H         1 <0>         0.1443
     22 H9         -4.2041    4.6940    3.2893 H         1 <0>         0.1396
     23 H10        -5.2999    6.4883    4.4592 H         1 <0>         0.4405
     24 H11        -4.2427    5.7236    5.4904 H         1 <0>         0.4406
     25 H12        -2.5822    3.5376    4.7070 H         1 <0>         0.3894
     26 H13        -0.6954    8.8511    1.0709 H         1 <0>         0.1072
     27 H14         0.5267    7.5997    0.7413 H         1 <0>         0.0620
     28 H15        -1.0229    7.5829   -0.1344 H         1 <0>         0.0607
     29 N1         -4.3176    6.3053    4.6575 N.4       1 <0>        -0.6419
     30 H16        -3.8384    7.1973    4.8277 H         1 <0>         0.4411
@<TRIPOS>BOND
     1    1    2 1
     2    1   15 1
     3    1   16 1
     4    1   17 1
     5    2    3 1
     6    3    8 ar
     7    3    4 ar
     8    4    5 ar
     9    4   18 1
    10    5    6 ar
    11    5   19 1
    12    6    7 ar
    13    6   13 1
    14    7    8 ar
    15    7    9 1
    16    8   20 1
    17    9   10 1
    18    9   11 1
    19    9   12 1
    20   11   21 1
    21   11   22 1
    22   11   29 1
    23   12   25 1
    24   13   14 1
    25   14   26 1
    26   14   27 1
    27   14   28 1
    28   23   29 1
    29   24   29 1
    30   29   30 1
@<TRIPOS>MOLECULE
ZINC02001181
   30    30     0     0     0
SMALL
USER_CHARGES
(1R)-2-amino-1-(2,5-dimethoxyphenyl)ethanol
@<TRIPOS>ATOM
      1 C1         -0.0127    1.0858    0.0080 C.3       1 <0>         0.0235
      2 O1         -0.6816    1.5467    1.1837 O.3       1 <0>        -0.3137
      3 C2         -0.1485    1.1819    2.3803 C.ar      1 <0>         0.1058
      4 C3          0.9945    0.3968    2.4200 C.ar      1 <0>        -0.1500
      5 C4          1.5359    0.0263    3.6353 C.ar      1 <0>        -0.1581
      6 C5          0.9367    0.4392    4.8163 C.ar      1 <0>         0.1056
      7 C6         -0.2056    1.2244    4.7767 C.ar      1 <0>        -0.1369
      8 C7         -0.7442    1.5994    3.5610 C.ar      1 <0>        -0.1042
      9 C8         -0.8560    1.6739    6.0597 C.3       1 <0>         0.1434
     10 H1         -0.0879    1.8625    6.8097 H         1 <0>         0.1372
     11 C9         -1.8018    0.5812    6.5620 C.3       1 <0>        -0.0357
     12 O2         -1.5962    2.8732    5.8239 O.3       1 <0>        -0.5485
     13 O3          1.4698    0.0744    6.0130 O.3       1 <0>        -0.3253
     14 C10         2.6473   -0.7345    5.9790 C.3       1 <0>         0.0240
     15 H2          0.0021   -0.0041    0.0020 H         1 <0>         0.0591
     16 H3          1.0099    1.4631    0.0003 H         1 <0>         0.0598
     17 H4         -0.5399    1.4469   -0.8751 H         1 <0>         0.1085
     18 H5          1.4612    0.0756    1.5005 H         1 <0>         0.1405
     19 H6          2.4260   -0.5846    3.6662 H         1 <0>         0.1406
     20 H7         -1.6315    2.2143    3.5301 H         1 <0>         0.1406
     21 H8         -2.5699    0.3925    5.8120 H         1 <0>         0.1393
     22 H9         -1.2372   -0.3336    6.7419 H         1 <0>         0.1450
     23 H10        -2.9122    1.8999    7.6875 H         1 <0>         0.4402
     24 H11        -3.0658    0.3143    8.1650 H         1 <0>         0.4405
     25 H12        -2.2984    2.7790    5.1658 H         1 <0>         0.3890
     26 H13         3.4403   -0.2000    5.4559 H         1 <0>         0.0620
     27 H14         2.9674   -0.9532    6.9978 H         1 <0>         0.1073
     28 H15         2.4325   -1.6672    5.4575 H         1 <0>         0.0606
     29 N1         -2.4153    1.0217    7.8273 N.4       1 <0>        -0.6415
     30 H16        -1.6787    1.1616    8.5288 H         1 <0>         0.4411
@<TRIPOS>BOND
     1    1    2 1
     2    1   15 1
     3    1   16 1
     4    1   17 1
     5    2    3 1
     6    3    8 ar
     7    3    4 ar
     8    4    5 ar
     9    4   18 1
    10    5    6 ar
    11    5   19 1
    12    6    7 ar
    13    6   13 1
    14    7    8 ar
    15    7    9 1
    16    8   20 1
    17    9   10 1
    18    9   11 1
    19    9   12 1
    20   11   21 1
    21   11   22 1
    22   11   29 1
    23   12   25 1
    24   13   14 1
    25   14   26 1
    26   14   27 1
    27   14   28 1
    28   23   29 1
    29   24   29 1
    30   29   30 1
@<TRIPOS>MOLECULE
ZINC02581459
   41    43     0     0     0
SMALL
USER_CHARGES

@<TRIPOS>ATOM
      1 C1         -0.1339    1.9422   -2.4462 C.3       1 <0>        -0.6728
      2 S1         -0.3197    0.7725   -1.0722 S.o2      1 <0>         2.5956
      3 O1          0.2181    1.3283    0.1199 O.2       1 <0>        -0.9097
      4 O2         -1.6232    0.2068   -1.0840 O.2       1 <0>        -0.9459
      5 N1          0.6903   -0.4857   -1.4450 N.pl3     1 <0>        -1.0607
      6 C2          2.0674   -0.2659   -1.5645 C.ar      1 <0>         0.1032
      7 C3          2.7939    0.1829   -0.4668 C.ar      1 <0>         0.1368
      8 C4          4.1563    0.3977   -0.5896 C.ar      1 <0>        -0.1258
      9 C5          4.7815    0.1624   -1.7975 C.ar      1 <0>        -0.1043
     10 C6          4.0591   -0.2867   -2.8955 C.ar      1 <0>        -0.1117
     11 C7          2.7038   -0.5034   -2.7811 C.ar      1 <0>        -0.0352
     12 C8          1.8585   -0.9795   -3.9333 C.3       1 <0>        -0.0953
     13 C9          2.7337   -1.5916   -5.0251 C.3       1 <0>        -0.1172
     14 C10         3.8537   -0.5997   -5.3603 C.3       1 <0>        -0.1241
     15 C11         4.8123   -0.5280   -4.1778 C.3       1 <0>        -0.0228
     16 H1          5.3493   -1.4739   -4.1067 H         1 <0>         0.1398
     17 C12         5.8011    0.5891   -4.3911 C.cat     1 <0>         0.5221
     18 N2          5.4951    1.6856   -5.0439 N.pl3     1 <0>        -0.6264
     19 C13         6.6681    2.5739   -5.0785 C.3       1 <0>         0.0552
     20 C14         7.7385    1.7737   -4.3076 C.3       1 <0>         0.0564
     21 N3          7.0299    0.5393   -3.9330 N.pl3     1 <0>        -0.6339
     22 O3          2.1698    0.4099    0.7202 O.3       1 <0>        -0.4533
     23 H2          0.9146    2.2232   -2.5449 H         1 <0>         0.1216
     24 H3         -0.4732    1.4742   -3.3703 H         1 <0>         0.1286
     25 H4         -0.7315    2.8322   -2.2490 H         1 <0>         0.1355
     26 H5          0.3276   -1.3751   -1.5805 H         1 <0>         0.4272
     27 H6          4.7278    0.7486    0.2569 H         1 <0>         0.1456
     28 H7          5.8445    0.3297   -1.8900 H         1 <0>         0.1206
     29 H8          1.1531   -1.7295   -3.5756 H         1 <0>         0.0928
     30 H9          1.3061   -0.1356   -4.3465 H         1 <0>         0.0887
     31 H10         3.1659   -2.5263   -4.6681 H         1 <0>         0.0815
     32 H11         2.1325   -1.7807   -5.9144 H         1 <0>         0.0917
     33 H12         4.3881   -0.9359   -6.2489 H         1 <0>         0.0936
     34 H13         3.4282    0.3878   -5.5389 H         1 <0>         0.0747
     35 H14         6.9862    2.7515   -6.1059 H         1 <0>         0.1287
     36 H15         6.4531    3.5152   -4.5730 H         1 <0>         0.1279
     37 H16         8.5905    1.5521   -4.9503 H         1 <0>         0.1289
     38 H17         8.0573    2.3159   -3.4174 H         1 <0>         0.1279
     39 H18         7.4115   -0.1961   -3.4284 H         1 <0>         0.4601
     40 H19         2.0766   -0.3783    1.2726 H         1 <0>         0.3958
     41 H20         4.6319    1.8799   -5.4415 H         1 <0>         0.4586
@<TRIPOS>BOND
     1    1    2 1
     2    1   23 1
     3    1   24 1
     4    1   25 1
     5    2    3 2
     6    2    4 2
     7    2    5 1
     8    5    6 1
     9    5   26 1
    10    6   11 ar
    11    6    7 ar
    12    7    8 ar
    13    7   22 1
    14    8    9 ar
    15    8   27 1
    16    9   10 ar
    17    9   28 1
    18   10   15 1
    19   10   11 ar
    20   11   12 1
    21   12   13 1
    22   12   29 1
    23   12   30 1
    24   13   14 1
    25   13   31 1
    26   13   32 1
    27   14   15 1
    28   14   33 1
    29   14   34 1
    30   15   16 1
    31   15   17 1
    32   17   21 1
    33   17   18 2
    34   18   19 1
    35   18   41 1
    36   19   20 1
    37   19   35 1
    38   19   36 1
    39   20   21 1
    40   20   37 1
    41   20   38 1
    42   21   39 1
    43   22   40 1
@<TRIPOS>MOLECULE
ZINC03995494
   41    43     0     0     0
SMALL
USER_CHARGES

@<TRIPOS>ATOM
      1 C1         -0.1291    1.9418   -2.4489 C.3       1 <0>        -0.6719
      2 S1         -0.3204    0.7721   -1.0756 S.o2      1 <0>         2.5947
      3 O1          0.2134    1.3276    0.1184 O.2       1 <0>        -0.9101
      4 O2         -1.6241    0.2069   -1.0920 O.2       1 <0>        -0.9468
      5 N1          0.6905   -0.4866   -1.4447 N.pl3     1 <0>        -1.0607
      6 C2          2.0675   -0.2663   -1.5644 C.ar      1 <0>         0.1037
      7 C3          2.7939    0.1829   -0.4668 C.ar      1 <0>         0.1364
      8 C4          4.1557    0.4005   -0.5905 C.ar      1 <0>        -0.1256
      9 C5          4.7795    0.1730   -1.8006 C.ar      1 <0>        -0.1059
     10 C6          4.0569   -0.2747   -2.8989 C.ar      1 <0>        -0.1111
     11 C7          2.7039   -0.5038   -2.7809 C.ar      1 <0>        -0.0358
     12 C8          1.8642   -1.0101   -3.9244 C.3       1 <0>        -0.0945
     13 C9          2.5887   -0.8089   -5.2537 C.3       1 <0>        -0.1188
     14 C10         4.0006   -1.3933   -5.1286 C.3       1 <0>        -0.1258
     15 C11         4.8059   -0.4934   -4.1878 C.3       1 <0>        -0.0216
     16 H1          4.9904    0.4695   -4.6641 H         1 <0>         0.1424
     17 C12         6.1241   -1.1600   -3.8895 C.cat     1 <0>         0.5214
     18 N2          6.2875   -2.4603   -3.9581 N.pl3     1 <0>        -0.6265
     19 C13         7.6784   -2.7943   -3.6119 C.3       1 <0>         0.0554
     20 C14         8.3096   -1.4166   -3.3223 C.3       1 <0>         0.0562
     21 N3          7.1947   -0.4824   -3.5474 N.pl3     1 <0>        -0.6348
     22 O3          2.1702    0.4075    0.7209 O.3       1 <0>        -0.4521
     23 H2          0.9177    2.2331   -2.5348 H         1 <0>         0.1247
     24 H3         -0.4521    1.4691   -3.3764 H         1 <0>         0.1284
     25 H4         -0.7380    2.8260   -2.2605 H         1 <0>         0.1361
     26 H5          0.3283   -1.3765   -1.5780 H         1 <0>         0.4267
     27 H6          4.7280    0.7476    0.2572 H         1 <0>         0.1458
     28 H7          5.8415    0.3455   -1.8945 H         1 <0>         0.1203
     29 H8          1.6646   -2.0720   -3.7810 H         1 <0>         0.0922
     30 H9          0.9193   -0.4670   -3.9443 H         1 <0>         0.0885
     31 H10         2.0477   -1.3230   -6.0481 H         1 <0>         0.0917
     32 H11         2.6508    0.2555   -5.4805 H         1 <0>         0.0809
     33 H12         3.9451   -2.4038   -4.7237 H         1 <0>         0.0778
     34 H13         4.4769   -1.4157   -6.1088 H         1 <0>         0.0933
     35 H14         7.7129   -3.4274   -2.7253 H         1 <0>         0.1276
     36 H15         8.1784   -3.2778   -4.4511 H         1 <0>         0.1285
     37 H16         8.6589   -1.3624   -2.2912 H         1 <0>         0.1280
     38 H17         9.1244   -1.2129   -4.0170 H         1 <0>         0.1282
     39 H18         7.2431    0.4820   -3.4555 H         1 <0>         0.4598
     40 H19         2.0787   -0.3815    1.2725 H         1 <0>         0.3943
     41 H20         5.5996   -3.1006   -4.1986 H         1 <0>         0.4587
@<TRIPOS>BOND
     1    1    2 1
     2    1   23 1
     3    1   24 1
     4    1   25 1
     5    2    3 2
     6    2    4 2
     7    2    5 1
     8    5    6 1
     9    5   26 1
    10    6   11 ar
    11    6    7 ar
    12    7    8 ar
    13    7   22 1
    14    8    9 ar
    15    8   27 1
    16    9   10 ar
    17    9   28 1
    18   10   15 1
    19   10   11 ar
    20   11   12 1
    21   12   13 1
    22   12   29 1
    23   12   30 1
    24   13   14 1
    25   13   31 1
    26   13   32 1
    27   14   15 1
    28   14   33 1
    29   14   34 1
    30   15   16 1
    31   15   17 1
    32   17   21 1
    33   17   18 2
    34   18   19 1
    35   18   41 1
    36   19   20 1
    37   19   35 1
    38   19   36 1
    39   20   21 1
    40   20   37 1
    41   20   38 1
    42   21   39 1
    43   22   40 1
@<TRIPOS>MOLECULE
ZINC22055590
   40    43     0     0     0
SMALL
USER_CHARGES
2-methyl-4-piperazin-1-yl-10H-thieno[2,3-b][1,5]benzodiazepine
@<TRIPOS>ATOM
      1 C1          2.9000    6.4909    5.1733 C.3       1 <0>        -0.0794
      2 C2          2.5815    5.9866    3.7894 C.2       1 <0>        -0.1487
      3 C3          1.6183    6.4056    2.9486 C.2       1 <0>        -0.1359
      4 C4          1.5178    5.7559    1.6564 C.2       1 <0>        -0.2219
      5 C5          2.4395    4.7328    1.4394 C.2       1 <0>         0.1326
      6 S1          3.3891    4.6898    2.8707 S.3       1 <0>         0.1175
      7 N1          2.5084    3.9288    0.3158 N.pl3     1 <0>        -0.6794
      8 C6          1.3322    3.2144   -0.0160 C.ar      1 <0>         0.1140
      9 C7          1.3818    1.8365   -0.0931 C.ar      1 <0>        -0.1132
     10 C8          0.2296    1.1109   -0.3542 C.ar      1 <0>        -0.1125
     11 C9         -0.9694    1.7704   -0.5428 C.ar      1 <0>        -0.1069
     12 C10        -1.0287    3.1477   -0.4744 C.ar      1 <0>        -0.1040
     13 C11         0.1275    3.8975   -0.2233 C.ar      1 <0>         0.1419
     14 N2          0.0194    5.2532   -0.2098 N.2       1 <0>        -0.5947
     15 C12         0.5397    6.1123    0.6013 C.2       1 <0>         0.5251
     16 N3          0.1661    7.4315    0.4793 N.pl3     1 <0>        -0.6143
     17 C13        -0.9003    7.8310   -0.4516 C.3       1 <0>         0.0945
     18 C14        -0.3858    8.9721   -1.3278 C.3       1 <0>        -0.0147
     19 N4          0.1296   10.0500   -0.4732 N.4       1 <0>        -0.5347
     20 C15         1.2772    9.5959    0.3235 C.3       1 <0>        -0.0188
     21 C16         0.8267    8.4796    1.2719 C.3       1 <0>         0.0827
     22 H1          2.2045    7.3011    5.4374 H         1 <0>         0.0840
     23 H2          3.9319    6.8713    5.1964 H         1 <0>         0.0821
     24 H3          2.7962    5.6683    5.8962 H         1 <0>         0.0829
     25 H4          0.9422    7.2004    3.2271 H         1 <0>         0.1391
     26 H5          3.4417    3.8721   -0.2636 H         1 <0>         0.4455
     27 H6          2.3208    1.3226    0.0501 H         1 <0>         0.1291
     28 H7          0.2702    0.0334   -0.4145 H         1 <0>         0.1328
     29 H8         -1.8675    1.2043   -0.7411 H         1 <0>         0.1317
     30 H9         -1.9729    3.6514   -0.6202 H         1 <0>         0.1285
     31 H10        -1.1776    6.9729   -1.0815 H         1 <0>         0.1410
     32 H11        -1.7789    8.1660    0.1193 H         1 <0>         0.0882
     33 H12         0.4208    8.6008   -1.9770 H         1 <0>         0.1293
     34 H13        -1.2082    9.3572   -1.9486 H         1 <0>         0.1436
     35 H14         0.4513   10.8938   -1.1013 H         1 <0>         0.4556
     36 H15         2.0613    9.2147   -0.3472 H         1 <0>         0.1293
     37 H16         1.6735   10.4385    0.9091 H         1 <0>         0.1449
     38 H17         0.1191    8.8797    2.0130 H         1 <0>         0.0936
     39 H18         1.6982    8.0530    1.7901 H         1 <0>         0.1398
     40 H19        -0.6625   10.3846    0.2128 H         1 <0>         0.4497
@<TRIPOS>BOND
     1    1    2 1
     2    1   22 1
     3    1   23 1
     4    1   24 1
     5    2    6 1
     6    2    3 2
     7    3    4 1
     8    3   25 1
     9    4   15 1
    10    4    5 2
    11    5    6 1
    12    5    7 1
    13    7    8 1
    14    7   26 1
    15    8   13 ar
    16    8    9 ar
    17    9   10 ar
    18    9   27 1
    19   10   11 ar
    20   10   28 1
    21   11   12 ar
    22   11   29 1
    23   12   13 ar
    24   12   30 1
    25   13   14 1
    26   14   15 2
    27   15   16 1
    28   16   21 1
    29   16   17 1
    30   17   18 1
    31   17   31 1
    32   17   32 1
    33   18   19 1
    34   18   33 1
    35   18   34 1
    36   19   20 1
    37   19   35 1
    38   19   40 1
    39   20   21 1
    40   20   36 1
    41   20   37 1
    42   21   38 1
    43   21   39 1
@<TRIPOS>MOLECULE
ZINC22055590
   39    42     0     0     0
SMALL
USER_CHARGES
2-methyl-4-piperazin-1-yl-10H-thieno[2,3-b][1,5]benzodiazepine
@<TRIPOS>ATOM
      1 C1          2.9000    6.4909    5.1733 C.3       1 <0>        -0.0731
      2 C2          2.5815    5.9866    3.7894 C.2       1 <0>        -0.1595
      3 C3          1.6183    6.4056    2.9486 C.2       1 <0>        -0.1197
      4 C4          1.5178    5.7559    1.6564 C.2       1 <0>        -0.2090
      5 C5          2.4395    4.7328    1.4394 C.2       1 <0>         0.1289
      6 S1          3.3891    4.6898    2.8707 S.3       1 <0>         0.0909
      7 N1          2.5084    3.9288    0.3158 N.pl3     1 <0>        -0.6777
      8 C6          1.3322    3.2144   -0.0160 C.ar      1 <0>         0.1017
      9 C7          1.3818    1.8365   -0.0931 C.ar      1 <0>        -0.1111
     10 C8          0.2296    1.1109   -0.3542 C.ar      1 <0>        -0.1312
     11 C9         -0.9694    1.7704   -0.5428 C.ar      1 <0>        -0.1060
     12 C10        -1.0287    3.1477   -0.4744 C.ar      1 <0>        -0.1167
     13 C11         0.1275    3.8975   -0.2233 C.ar      1 <0>         0.1681
     14 N2          0.0194    5.2532   -0.2098 N.2       1 <0>        -0.6216
     15 C12         0.5397    6.1123    0.6013 C.2       1 <0>         0.5340
     16 N3          0.1661    7.4315    0.4793 N.pl3     1 <0>        -0.5933
     17 C13        -0.9003    7.8310   -0.4516 C.3       1 <0>         0.1226
     18 C14        -0.3858    8.9721   -1.3278 C.3       1 <0>         0.0334
     19 N4          0.1296   10.0500   -0.4732 N.3       1 <0>        -0.6705
     20 C15         1.2772    9.5959    0.3235 C.3       1 <0>         0.0314
     21 C16         0.8267    8.4796    1.2719 C.3       1 <0>         0.1111
     22 H1          2.2045    7.3011    5.4374 H         1 <0>         0.0832
     23 H2          3.9319    6.8713    5.1964 H         1 <0>         0.0780
     24 H3          2.7962    5.6683    5.8962 H         1 <0>         0.0776
     25 H4          0.9422    7.2004    3.2271 H         1 <0>         0.1418
     26 H5          3.4417    3.8721   -0.2636 H         1 <0>         0.4407
     27 H6          2.3208    1.3226    0.0501 H         1 <0>         0.1233
     28 H7          0.2702    0.0334   -0.4145 H         1 <0>         0.1260
     29 H8         -1.8675    1.2043   -0.7411 H         1 <0>         0.1256
     30 H9         -1.9729    3.6514   -0.6202 H         1 <0>         0.1265
     31 H10        -1.1776    6.9729   -1.0815 H         1 <0>         0.1044
     32 H11        -1.7789    8.1660    0.1193 H         1 <0>         0.0695
     33 H12         0.4208    8.6008   -1.9770 H         1 <0>         0.0349
     34 H13        -1.2082    9.3572   -1.9486 H         1 <0>         0.0894
     35 H14         2.0613    9.2147   -0.3472 H         1 <0>         0.0352
     36 H15         1.6735   10.4385    0.9091 H         1 <0>         0.0904
     37 H16         0.1191    8.8797    2.0130 H         1 <0>         0.0755
     38 H17         1.6982    8.0530    1.7901 H         1 <0>         0.0999
     39 H18         0.4513   10.8938   -1.1013 H         1 <0>         0.3455
@<TRIPOS>BOND
     1    1    2 1
     2    1   22 1
     3    1   23 1
     4    1   24 1
     5    2    6 1
     6    2    3 2
     7    3    4 1
     8    3   25 1
     9    4   15 1
    10    4    5 2
    11    5    6 1
    12    5    7 1
    13    7    8 1
    14    7   26 1
    15    8   13 ar
    16    8    9 ar
    17    9   10 ar
    18    9   27 1
    19   10   11 ar
    20   10   28 1
    21   11   12 ar
    22   11   29 1
    23   12   13 ar
    24   12   30 1
    25   13   14 1
    26   14   15 2
    27   15   16 1
    28   16   21 1
    29   16   17 1
    30   17   18 1
    31   17   31 1
    32   17   32 1
    33   18   19 1
    34   18   33 1
    35   18   34 1
    36   19   20 1
    37   19   39 1
    38   20   21 1
    39   20   35 1
    40   20   36 1
    41   21   37 1
    42   21   38 1
@<TRIPOS>MOLECULE
ZINC03616630
   52    54     0     0     0
SMALL
USER_CHARGES

@<TRIPOS>ATOM
      1 C1         -0.0187    1.5258    0.0104 C.3       1 <0>        -0.1979
      2 C2          0.0021   -0.0041    0.0020 C.3       1 <0>        -0.0083
      3 H1         -1.0205   -0.3814    0.0098 H         1 <0>         0.1467
      4 C3          0.7421   -0.5109    1.2415 C.3       1 <0>         0.1398
      5 H2          0.8346   -1.5958    1.1912 H         1 <0>         0.1306
      6 C4         -0.0298   -0.1295    2.4784 C.ar      1 <0>        -0.1506
      7 C5          0.0648    1.1546    2.9823 C.ar      1 <0>        -0.0917
      8 C6         -0.6414    1.5067    4.1162 C.ar      1 <0>        -0.1399
      9 C7         -1.4464    0.5707    4.7491 C.ar      1 <0>         0.1318
     10 C8         -1.5399   -0.7170    4.2412 C.ar      1 <0>        -0.1399
     11 C9         -0.8358   -1.0625    3.1041 C.ar      1 <0>        -0.0825
     12 O1         -2.1418    0.9144    5.8650 O.3       1 <0>        -0.4954
     13 O2          2.0438    0.0763    1.2925 O.3       1 <0>        -0.5446
     14 N1          0.6897   -0.4778   -1.2066 N.4       1 <0>        -0.3762
     15 C10        -0.0162    0.0165   -2.3948 C.3       1 <0>        -0.0111
     16 C11         0.7414   -0.4060   -3.6554 C.3       1 <0>        -0.1418
     17 C12         0.8228   -1.9344   -3.7071 C.3       1 <0>        -0.0939
     18 C13         1.4942   -2.4436   -2.4284 C.3       1 <0>        -0.1436
     19 C14         0.7088   -1.9455   -1.2133 C.3       1 <0>        -0.0127
     20 C15         1.6472   -2.3620   -4.9230 C.3       1 <0>        -0.0744
     21 C16         1.6242   -3.8640   -5.0426 C.ar      1 <0>        -0.0948
     22 C17         2.5880   -4.6230   -4.4053 C.ar      1 <0>        -0.1212
     23 C18         2.5668   -6.0008   -4.5150 C.ar      1 <0>        -0.1159
     24 C19         1.5817   -6.6197   -5.2615 C.ar      1 <0>        -0.1163
     25 C20         0.6174   -5.8609   -5.8979 C.ar      1 <0>        -0.1139
     26 C21         0.6360   -4.4833   -5.7848 C.ar      1 <0>        -0.1163
     27 H3          1.0039    1.9031    0.0027 H         1 <0>         0.0834
     28 H4         -0.5459    1.8868   -0.8726 H         1 <0>         0.0917
     29 H5         -0.5289    1.8773    0.9072 H         1 <0>         0.1135
     30 H6          0.6915    1.8829    2.4892 H         1 <0>         0.1279
     31 H7         -0.5667    2.5096    4.5098 H         1 <0>         0.1384
     32 H8         -2.1659   -1.4474    4.7322 H         1 <0>         0.1387
     33 H9         -0.9117   -2.0635    2.7058 H         1 <0>         0.1316
     34 H10        -3.0262    1.2619    5.6858 H         1 <0>         0.4006
     35 H11         2.0381    1.0422    1.3386 H         1 <0>         0.3862
     36 H12        -1.0226   -0.4013   -2.4191 H         1 <0>         0.1283
     37 H13        -0.0762    1.1042   -2.3550 H         1 <0>         0.1325
     38 H14         0.2147   -0.0396   -4.5366 H         1 <0>         0.1136
     39 H15         1.7479    0.0115   -3.6323 H         1 <0>         0.0897
     40 H16        -0.1818   -2.3506   -3.7819 H         1 <0>         0.0907
     41 H17         1.5058   -3.5335   -2.4326 H         1 <0>         0.1159
     42 H18         2.5165   -2.0683   -2.3798 H         1 <0>         0.0897
     43 H19         1.1841   -2.3064   -0.3012 H         1 <0>         0.1315
     44 H20        -0.3131   -2.3215   -1.2627 H         1 <0>         0.1284
     45 H21         1.2224   -1.9192   -5.8239 H         1 <0>         0.0830
     46 H22         2.6760   -2.0229   -4.8019 H         1 <0>         0.0787
     47 H23         3.3577   -4.1394   -3.8221 H         1 <0>         0.1199
     48 H24         3.3202   -6.5937   -4.0177 H         1 <0>         0.1246
     49 H25         1.5656   -7.6962   -5.3477 H         1 <0>         0.1252
     50 H26        -0.1521   -6.3444   -6.4814 H         1 <0>         0.1251
     51 H27        -0.1196   -3.8906   -6.2790 H         1 <0>         0.1213
     52 H28         1.6368   -0.1301   -1.2116 H         1 <0>         0.4242
@<TRIPOS>BOND
     1    1    2 1
     2    1   27 1
     3    1   28 1
     4    1   29 1
     5    2    3 1
     6    2    4 1
     7    2   14 1
     8    4    5 1
     9    4    6 1
    10    4   13 1
    11    6   11 ar
    12    6    7 ar
    13    7    8 ar
    14    7   30 1
    15    8    9 ar
    16    8   31 1
    17    9   10 ar
    18    9   12 1
    19   10   11 ar
    20   10   32 1
    21   11   33 1
    22   12   34 1
    23   13   35 1
    24   14   19 1
    25   14   15 1
    26   14   52 1
    27   15   16 1
    28   15   36 1
    29   15   37 1
    30   16   17 1
    31   16   38 1
    32   16   39 1
    33   17   18 1
    34   17   20 1
    35   17   40 1
    36   18   19 1
    37   18   41 1
    38   18   42 1
    39   19   43 1
    40   19   44 1
    41   20   21 1
    42   20   45 1
    43   20   46 1
    44   21   26 ar
    45   21   22 ar
    46   22   23 ar
    47   22   47 1
    48   23   24 ar
    49   23   48 1
    50   24   25 ar
    51   24   49 1
    52   25   26 ar
    53   25   50 1
    54   26   51 1
@<TRIPOS>MOLECULE
ZINC58534146
   49    52     0     0     0
SMALL
USER_CHARGES

@<TRIPOS>ATOM
      1 C1         -0.0184    1.5028    0.0103 C.3       1 <0>        -0.0996
      2 C2          0.0021   -0.0041    0.0020 C.2       1 <0>         0.0984
      3 C3          0.0079   -0.7962   -1.0951 C.2       1 <0>        -0.2191
      4 C4          0.0288   -2.1275   -0.6651 C.2       1 <0>         0.0733
      5 N1          0.0352   -2.1353    0.6436 N.2       1 <0>        -0.2899
      6 N2          0.0238   -0.8074    1.0896 N.pl3     1 <0>        -0.3246
      7 C5          0.0312   -0.3860    2.4265 C.ar      1 <0>         0.1539
      8 C6          0.7035    0.7742    2.7864 C.ar      1 <0>        -0.1333
      9 C7          0.7086    1.1871    4.1044 C.ar      1 <0>        -0.0985
     10 C8          0.0452    0.4462    5.0651 C.ar      1 <0>        -0.1219
     11 C9         -0.6253   -0.7098    4.7098 C.ar      1 <0>        -0.0997
     12 C10        -0.6384   -1.1250    3.3925 C.ar      1 <0>        -0.1117
     13 C11        -0.0061   -0.3272   -2.5272 C.3       1 <0>         0.1018
     14 N3          1.3502    0.0734   -2.9246 N.3       1 <0>        -0.4590
     15 C12         1.5508    1.5219   -2.7335 C.3       1 <0>         0.0036
     16 C13         2.2966    1.5392   -4.0752 C.3       1 <0>         0.0615
     17 C14         1.4266    0.3112   -4.3781 C.3       1 <0>        -0.0176
     18 O1          2.0075    2.6765   -4.8907 O.3       1 <0>        -0.2985
     19 C15         2.9948    3.1077   -5.7217 C.ar      1 <0>         0.0246
     20 C16         3.9164    4.0507   -5.2788 C.ar      1 <0>         0.1418
     21 C17         4.9203    4.4871   -6.1287 C.ar      1 <0>        -0.2106
     22 C18         5.0052    3.9857   -7.4144 C.ar      1 <0>        -0.0513
     23 C19         4.0899    3.0489   -7.8563 C.ar      1 <0>        -0.1810
     24 C20         3.0880    2.6038   -7.0107 C.ar      1 <0>         0.1253
     25 F1          2.1984    1.6833   -7.4425 F         1 <0>        -0.1233
     26 O2          3.8322    4.5439   -4.0142 O.3       1 <0>        -0.3005
     27 C21         4.8124    5.5093   -3.6278 C.3       1 <0>         0.0230
     28 H1          1.0042    1.8801    0.0026 H         1 <0>         0.0844
     29 H2         -0.5455    1.8639   -0.8728 H         1 <0>         0.0852
     30 H3         -0.5286    1.8543    0.9071 H         1 <0>         0.0758
     31 H4          0.0380   -2.9987   -1.3034 H         1 <0>         0.1878
     32 H5          1.2221    1.3531    2.0366 H         1 <0>         0.1316
     33 H6          1.2317    2.0894    4.3850 H         1 <0>         0.1334
     34 H7          0.0509    0.7709    6.0951 H         1 <0>         0.1301
     35 H8         -1.1423   -1.2866    5.4624 H         1 <0>         0.1328
     36 H9         -1.1656   -2.0257    3.1149 H         1 <0>         0.1331
     37 H10        -0.3492   -1.1368   -3.1713 H         1 <0>         0.0863
     38 H11        -0.6795    0.5244   -2.6241 H         1 <0>         0.0554
     39 H12         0.6231    2.0940   -2.7450 H         1 <0>         0.0820
     40 H13         2.1854    1.7637   -1.8809 H         1 <0>         0.0909
     41 H14         3.3620    1.3229   -3.9965 H         1 <0>         0.1015
     42 H15         1.9559   -0.4731   -4.9192 H         1 <0>         0.0917
     43 H16         0.4657    0.5602   -4.8284 H         1 <0>         0.0821
     44 H17         5.6365    5.2195   -5.7867 H         1 <0>         0.1407
     45 H18         5.7883    4.3271   -8.0751 H         1 <0>         0.1410
     46 H19         4.1591    2.6602   -8.8615 H         1 <0>         0.1435
     47 H20         5.8064    5.0687   -3.7048 H         1 <0>         0.0588
     48 H21         4.7474    6.3763   -4.2853 H         1 <0>         0.0597
     49 H22         4.6311    5.8193   -2.5987 H         1 <0>         0.1049
@<TRIPOS>BOND
     1    1    2 1
     2    1   28 1
     3    1   29 1
     4    1   30 1
     5    2    6 1
     6    2    3 2
     7    3    4 1
     8    3   13 1
     9    4    5 2
    10    4   31 1
    11    5    6 1
    12    6    7 1
    13    7   12 ar
    14    7    8 ar
    15    8    9 ar
    16    8   32 1
    17    9   10 ar
    18    9   33 1
    19   10   11 ar
    20   10   34 1
    21   11   12 ar
    22   11   35 1
    23   12   36 1
    24   13   14 1
    25   13   37 1
    26   13   38 1
    27   14   17 1
    28   14   15 1
    29   15   16 1
    30   15   39 1
    31   15   40 1
    32   16   17 1
    33   16   18 1
    34   16   41 1
    35   17   42 1
    36   17   43 1
    37   18   19 1
    38   19   24 ar
    39   19   20 ar
    40   20   21 ar
    41   20   26 1
    42   21   22 ar
    43   21   44 1
    44   22   23 ar
    45   22   45 1
    46   23   24 ar
    47   23   46 1
    48   24   25 1
    49   26   27 1
    50   27   47 1
    51   27   48 1
    52   27   49 1
@<TRIPOS>MOLECULE
ZINC58534146
   50    53     0     0     0
SMALL
USER_CHARGES

@<TRIPOS>ATOM
      1 C1         -0.0184    1.5028    0.0103 C.3       1 <0>        -0.1214
      2 C2          0.0021   -0.0041    0.0020 C.2       1 <0>         0.1353
      3 C3          0.0079   -0.7962   -1.0951 C.2       1 <0>        -0.3146
      4 C4          0.0288   -2.1275   -0.6651 C.2       1 <0>         0.0811
      5 N1          0.0352   -2.1353    0.6436 N.2       1 <0>        -0.2673
      6 N2          0.0238   -0.8074    1.0896 N.pl3     1 <0>        -0.2995
      7 C5          0.0312   -0.3860    2.4265 C.ar      1 <0>         0.1231
      8 C6          0.7035    0.7742    2.7864 C.ar      1 <0>        -0.1268
      9 C7          0.7086    1.1871    4.1044 C.ar      1 <0>        -0.0979
     10 C8          0.0452    0.4462    5.0651 C.ar      1 <0>        -0.1043
     11 C9         -0.6253   -0.7098    4.7098 C.ar      1 <0>        -0.0965
     12 C10        -0.6384   -1.1250    3.3925 C.ar      1 <0>        -0.0993
     13 C11        -0.0061   -0.3272   -2.5272 C.3       1 <0>         0.0946
     14 N3          1.3502    0.0734   -2.9246 N.4       1 <0>        -0.4029
     15 C12         1.6666    1.4765   -2.5985 C.3       1 <0>        -0.0068
     16 C13         2.4246    1.5570   -3.9310 C.3       1 <0>         0.0517
     17 C14         1.4603    0.4382   -4.3493 C.3       1 <0>        -0.0237
     18 O1          2.2375    2.7851   -4.6372 O.3       1 <0>        -0.2693
     19 C15         3.2649    3.2090   -5.4220 C.ar      1 <0>        -0.0046
     20 C16         4.2560    4.0278   -4.8908 C.ar      1 <0>         0.1533
     21 C17         5.3006    4.4572   -5.6939 C.ar      1 <0>        -0.2079
     22 C18         5.3571    4.0723   -7.0206 C.ar      1 <0>        -0.0328
     23 C19         4.3728    3.2591   -7.5502 C.ar      1 <0>        -0.1779
     24 C20         3.3295    2.8212   -6.7522 C.ar      1 <0>         0.1348
     25 F1          2.3721    2.0211   -7.2703 F         1 <0>        -0.1232
     26 O2          4.1998    4.4065   -3.5858 O.3       1 <0>        -0.3061
     27 C21         5.2517    5.2479   -3.1086 C.3       1 <0>         0.0201
     28 H1          1.0042    1.8801    0.0026 H         1 <0>         0.0925
     29 H2         -0.5455    1.8639   -0.8728 H         1 <0>         0.0932
     30 H3         -0.5286    1.8543    0.9071 H         1 <0>         0.0948
     31 H4          0.0380   -2.9987   -1.3034 H         1 <0>         0.1978
     32 H5          1.2221    1.3531    2.0366 H         1 <0>         0.1304
     33 H6          1.2317    2.0894    4.3850 H         1 <0>         0.1394
     34 H7          0.0509    0.7709    6.0951 H         1 <0>         0.1376
     35 H8         -1.1423   -1.2866    5.4624 H         1 <0>         0.1401
     36 H9         -1.1656   -2.0257    3.1149 H         1 <0>         0.1364
     37 H10        -0.3492   -1.1368   -3.1713 H         1 <0>         0.1398
     38 H11        -0.6795    0.5244   -2.6241 H         1 <0>         0.1328
     39 H12         0.7888    2.1215   -2.5586 H         1 <0>         0.1593
     40 H13         2.3102    1.5849   -1.7255 H         1 <0>         0.1401
     41 H14         3.4679    1.2474   -3.8704 H         1 <0>         0.1289
     42 H15         1.9290   -0.3333   -4.9601 H         1 <0>         0.1423
     43 H16         0.5274    0.8062   -4.7766 H         1 <0>         0.1606
     44 H17         6.0709    5.0932   -5.2832 H         1 <0>         0.1474
     45 H18         6.1720    4.4080   -7.6447 H         1 <0>         0.1487
     46 H19         4.4201    2.9611   -8.5872 H         1 <0>         0.1506
     47 H20         6.2071    4.7361   -3.2241 H         1 <0>         0.0631
     48 H21         5.2643    6.1746   -3.6823 H         1 <0>         0.0657
     49 H22         5.0860    5.4747   -2.0554 H         1 <0>         0.1094
     50 H23         2.0577   -0.5792   -2.6217 H         1 <0>         0.4380
@<TRIPOS>BOND
     1    1    2 1
     2    1   28 1
     3    1   29 1
     4    1   30 1
     5    2    6 1
     6    2    3 2
     7    3    4 1
     8    3   13 1
     9    4    5 2
    10    4   31 1
    11    5    6 1
    12    6    7 1
    13    7   12 ar
    14    7    8 ar
    15    8    9 ar
    16    8   32 1
    17    9   10 ar
    18    9   33 1
    19   10   11 ar
    20   10   34 1
    21   11   12 ar
    22   11   35 1
    23   12   36 1
    24   13   14 1
    25   13   37 1
    26   13   38 1
    27   14   17 1
    28   14   15 1
    29   14   50 1
    30   15   16 1
    31   15   39 1
    32   15   40 1
    33   16   17 1
    34   16   18 1
    35   16   41 1
    36   17   42 1
    37   17   43 1
    38   18   19 1
    39   19   24 ar
    40   19   20 ar
    41   20   21 ar
    42   20   26 1
    43   21   22 ar
    44   21   44 1
    45   22   23 ar
    46   22   45 1
    47   23   24 ar
    48   23   46 1
    49   24   25 1
    50   26   27 1
    51   27   47 1
    52   27   48 1
    53   27   49 1
@<TRIPOS>MOLECULE
ZINC00900633
   28    29     0     0     0
SMALL
USER_CHARGES

@<TRIPOS>ATOM
      1 C1         -0.0178    1.4648    0.0101 C.3       1 <0>        -0.0533
      2 N1          0.0021   -0.0041    0.0020 N.4       1 <0>        -0.3770
      3 C2         -1.3642   -0.4768   -0.1315 C.3       1 <0>        -0.0102
      4 C3         -1.3996   -1.9756   -0.4464 C.3       1 <0>        -0.0967
      5 C4         -1.3325   -2.7357    0.8628 C.ar      1 <0>        -0.0945
      6 C5         -2.4369   -3.4380    1.3085 C.ar      1 <0>        -0.0982
      7 C6         -2.3700   -4.1297    2.5046 C.ar      1 <0>        -0.0924
      8 C7         -1.2049   -4.1171    3.2484 C.ar      1 <0>        -0.0971
      9 C8         -0.1015   -3.4128    2.7976 C.ar      1 <0>        -0.0260
     10 C9         -0.1744   -2.7235    1.6000 C.ar      1 <0>        -0.0978
     11 C10         1.0295   -1.9515    1.0994 C.3       1 <0>        -0.1068
     12 C11         0.7090   -0.4560    1.1870 C.3       1 <0>        -0.0076
     13 Cl1         1.3637   -3.3946    3.7285 Cl        1 <0>        -0.0468
     14 H1          1.0047    1.8421    0.0024 H         1 <0>         0.1262
     15 H2         -0.5450    1.8259   -0.8730 H         1 <0>         0.1262
     16 H3         -0.5280    1.8163    0.9069 H         1 <0>         0.1225
     17 H4         -1.8986   -0.2944    0.8009 H         1 <0>         0.1294
     18 H5         -1.8548    0.0697   -0.9369 H         1 <0>         0.1394
     19 H6         -2.3256   -2.2204   -0.9667 H         1 <0>         0.1218
     20 H7         -0.5457   -2.2408   -1.0698 H         1 <0>         0.0984
     21 H8         -3.3464   -3.4467    0.7261 H         1 <0>         0.1391
     22 H9         -3.2294   -4.6801    2.8580 H         1 <0>         0.1429
     23 H10        -1.1553   -4.6570    4.1825 H         1 <0>         0.1434
     24 H11         1.8962   -2.1788    1.7200 H         1 <0>         0.1238
     25 H12         1.2362   -2.2233    0.0642 H         1 <0>         0.1014
     26 H13         1.6389    0.1042    1.2843 H         1 <0>         0.1401
     27 H14         0.0890   -0.2737    2.0648 H         1 <0>         0.1295
     28 H15         0.5195   -0.3070   -0.8095 H         1 <0>         0.4204
@<TRIPOS>BOND
     1    1    2 1
     2    1   14 1
     3    1   15 1
     4    1   16 1
     5    2   12 1
     6    2    3 1
     7    2   28 1
     8    3    4 1
     9    3   17 1
    10    3   18 1
    11    4    5 1
    12    4   19 1
    13    4   20 1
    14    5   10 ar
    15    5    6 ar
    16    6    7 ar
    17    6   21 1
    18    7    8 ar
    19    7   22 1
    20    8    9 ar
    21    8   23 1
    22    9   10 ar
    23    9   13 1
    24   10   11 1
    25   11   12 1
    26   11   24 1
    27   11   25 1
    28   12   26 1
    29   12   27 1
@<TRIPOS>MOLECULE
ZINC02022527
   54    55     0     0     0
SMALL
USER_CHARGES

@<TRIPOS>ATOM
      1 C1         -3.0730    2.2881   -4.2693 C.3       1 <0>        -0.1569
      2 C2         -2.3049    1.5870   -3.1471 C.3       1 <0>        -0.1270
      3 C3         -2.8110    2.0874   -1.7927 C.3       1 <0>        -0.1231
      4 C4         -2.0429    1.3862   -0.6705 C.3       1 <0>        -0.1174
      5 C5         -2.5490    1.8867    0.6839 C.3       1 <0>        -0.1006
      6 C6         -2.2117    3.3722    0.8391 C.3       1 <0>        -0.1451
      7 C7         -2.6658    3.8518    2.2196 C.3       1 <0>        -0.0114
      8 C8         -2.3347    1.6429    3.1595 C.3       1 <0>        -0.0001
      9 C9         -1.8707    1.0973    1.8070 C.3       1 <0>        -0.1442
     10 C10        -2.2939    3.5901    4.5974 C.3       1 <0>        -0.0052
     11 C11        -2.1583    5.1140    4.5919 C.3       1 <0>        -0.1459
     12 C12        -2.4764    5.6593    5.9856 C.3       1 <0>        -0.1543
     13 C13        -2.3428    7.1604    5.9803 C.2       1 <0>         0.3987
     14 O1         -2.0245    7.7371    4.9623 O.2       1 <0>        -0.4456
     15 C14        -2.5986    7.9263    7.2106 C.ar      1 <0>        -0.1885
     16 C15        -3.0878    7.2813    8.3513 C.ar      1 <0>        -0.0705
     17 C16        -3.3195    8.0047    9.5018 C.ar      1 <0>        -0.1389
     18 C17        -3.0801    9.3679    9.5265 C.ar      1 <0>        -0.0729
     19 C18        -2.6016   10.0143    8.4004 C.ar      1 <0>        -0.1345
     20 C19        -2.3594    9.3036    7.2436 C.ar      1 <0>        -0.0178
     21 C20        -1.8387   10.0095    6.0182 C.3       1 <0>        -0.1264
     22 H1         -4.1363    2.0676   -4.1746 H         1 <0>         0.0549
     23 H2         -2.9175    3.3647   -4.1985 H         1 <0>         0.0540
     24 H3         -2.7125    1.9316   -5.2342 H         1 <0>         0.0581
     25 H4         -1.2417    1.8075   -3.2417 H         1 <0>         0.0621
     26 H5         -2.4605    0.5104   -3.2179 H         1 <0>         0.0631
     27 H6         -3.8743    1.8669   -1.6981 H         1 <0>         0.0644
     28 H7         -2.6555    3.1639   -1.7219 H         1 <0>         0.0632
     29 H8         -2.1984    0.3097   -0.7413 H         1 <0>         0.0733
     30 H9         -0.9796    1.6067   -0.7651 H         1 <0>         0.0688
     31 H10        -3.6287    1.7492    0.7427 H         1 <0>         0.0884
     32 H11        -1.1354    3.5132    0.7407 H         1 <0>         0.0881
     33 H12        -2.7264    3.9447    0.0675 H         1 <0>         0.1133
     34 H13        -3.7442    3.7233    2.3122 H         1 <0>         0.1295
     35 H14        -2.4142    4.9057    2.3388 H         1 <0>         0.1342
     36 H15        -3.4146    1.5248    3.2476 H         1 <0>         0.1293
     37 H16        -1.8426    1.0924    3.9613 H         1 <0>         0.1282
     38 H17        -2.1418    0.0446    1.7270 H         1 <0>         0.1118
     39 H18        -0.7890    1.2025    1.7239 H         1 <0>         0.0880
     40 H19        -3.3133    3.3170    4.8704 H         1 <0>         0.1315
     41 H20        -1.5979    3.1659    5.3211 H         1 <0>         0.1302
     42 H21        -1.1389    5.3871    4.3190 H         1 <0>         0.0944
     43 H22        -2.8542    5.5382    3.8682 H         1 <0>         0.0968
     44 H23        -3.4115    5.4088    6.2361 H         1 <0>         0.0981
     45 H24        -1.7805    5.2352    6.7093 H         1 <0>         0.1100
     46 H25        -3.2793    6.2186    8.3321 H         1 <0>         0.1290
     47 H26        -3.6933    7.5074   10.3846 H         1 <0>         0.1322
     48 H27        -3.2682    9.9300   10.4293 H         1 <0>         0.1326
     49 H28        -2.4176   11.0782    8.4274 H         1 <0>         0.1332
     50 H29        -2.6709   10.2515    5.3572 H         1 <0>         0.0784
     51 H30        -1.3321   10.9277    6.3156 H         1 <0>         0.0652
     52 H31        -1.1365    9.3600    5.4956 H         1 <0>         0.0893
     53 N1         -1.9588    3.0696    3.2558 N.4       1 <0>        -0.3931
     54 H32        -0.9467    3.1581    3.1071 H         1 <0>         0.4272
@<TRIPOS>BOND
     1    1    2 1
     2    1   22 1
     3    1   23 1
     4    1   24 1
     5    2    3 1
     6    2   25 1
     7    2   26 1
     8    3    4 1
     9    3   27 1
    10    3   28 1
    11    4    5 1
    12    4   29 1
    13    4   30 1
    14    5    9 1
    15    5    6 1
    16    5   31 1
    17    6    7 1
    18    6   32 1
    19    6   33 1
    20    7   34 1
    21    7   35 1
    22    7   53 1
    23    8    9 1
    24    8   36 1
    25    8   37 1
    26    8   53 1
    27    9   38 1
    28    9   39 1
    29   10   11 1
    30   10   40 1
    31   10   41 1
    32   10   53 1
    33   11   12 1
    34   11   42 1
    35   11   43 1
    36   12   13 1
    37   12   44 1
    38   12   45 1
    39   13   14 2
    40   13   15 1
    41   15   20 ar
    42   15   16 ar
    43   16   17 ar
    44   16   46 1
    45   17   18 ar
    46   17   47 1
    47   18   19 ar
    48   18   48 1
    49   19   20 ar
    50   19   49 1
    51   20   21 1
    52   21   50 1
    53   21   51 1
    54   21   52 1
    55   53   54 1
@<TRIPOS>MOLECULE
ZINC00538337
   58    62     0     0     0
SMALL
USER_CHARGES

@<TRIPOS>ATOM
      1 C1         -0.0168    1.3842    0.0097 C.ar      1 <0>        -0.0898
      2 C2          1.1703    2.0901    0.0021 C.ar      1 <0>        -0.1344
      3 C3          2.3788    1.4141   -0.0135 C.ar      1 <0>         0.1119
      4 C4          2.3997    0.0295   -0.0216 C.ar      1 <0>        -0.1322
      5 C5          1.2148   -0.6800   -0.0137 C.ar      1 <0>        -0.0888
      6 C6          0.0021   -0.0041    0.0020 C.ar      1 <0>         0.1035
      7 N1         -1.2015   -0.7222    0.0101 N.pl3     1 <0>        -0.4255
      8 C7         -2.2407   -0.5077    0.8765 C.2       1 <0>         0.0751
      9 C8         -3.2397   -1.3652    0.6140 C.2       1 <0>        -0.1721
     10 C9         -2.8068   -2.1974   -0.5117 C.ar      1 <0>        -0.0841
     11 C10        -1.5194   -1.7470   -0.8569 C.ar      1 <0>         0.1032
     12 C11        -0.8430   -2.3517   -1.9103 C.ar      1 <0>        -0.1070
     13 C12        -1.4366   -3.3808   -2.6081 C.ar      1 <0>        -0.0841
     14 C13        -2.7089   -3.8239   -2.2706 C.ar      1 <0>        -0.0491
     15 C14        -3.3935   -3.2441   -1.2250 C.ar      1 <0>        -0.0671
     16 Cl1        -3.4366   -5.1218   -3.1648 Cl        1 <0>        -0.0596
     17 C15        -4.5571   -1.4553    1.3402 C.3       1 <0>        -0.0164
     18 C16        -4.3063   -1.7573    2.8204 C.3       1 <0>        -0.1397
     19 C17        -5.6422   -1.7687    3.5665 C.3       1 <0>        -0.0052
     20 N2         -6.2909   -0.4585    3.4359 N.4       1 <0>        -0.3798
     21 C18        -6.5994   -0.1937    2.0255 C.3       1 <0>        -0.0131
     22 C19        -5.3003   -0.1217    1.2201 C.3       1 <0>        -0.1392
     23 C20        -7.5345   -0.4493    4.2177 C.3       1 <0>        -0.0330
     24 C21        -8.1476    0.9521    4.1845 C.3       1 <0>         0.1326
     25 N3         -9.3878    0.9612    4.9641 N.am      1 <0>        -0.6351
     26 C22       -10.7283    0.6664    4.4362 C.3       1 <0>         0.0898
     27 C23       -11.6494    0.8170    5.6625 C.3       1 <0>         0.0871
     28 N4        -10.7301    1.1807    6.7511 N.am      1 <0>        -0.7327
     29 C24        -9.4802    1.2337    6.2723 C.2       1 <0>         0.7000
     30 O1         -8.5172    1.5083    6.9620 O.2       1 <0>        -0.5776
     31 F1          3.5389    2.1063   -0.0213 F         1 <0>        -0.1276
     32 H1         -0.9590    1.9118    0.0260 H         1 <0>         0.1391
     33 H2          1.1561    3.1700    0.0080 H         1 <0>         0.1488
     34 H3          3.3432   -0.4959   -0.0345 H         1 <0>         0.1499
     35 H4          1.2315   -1.7598   -0.0203 H         1 <0>         0.1411
     36 H5         -2.2541    0.2401    1.6556 H         1 <0>         0.1691
     37 H6          0.1466   -2.0149   -2.1816 H         1 <0>         0.1333
     38 H7         -0.9074   -3.8472   -3.4259 H         1 <0>         0.1426
     39 H8         -4.3833   -3.5900   -0.9659 H         1 <0>         0.1336
     40 H9         -5.1611   -2.2499    0.9021 H         1 <0>         0.0971
     41 H10        -3.8271   -2.7315    2.9171 H         1 <0>         0.1158
     42 H11        -3.6594   -0.9891    3.2440 H         1 <0>         0.0884
     43 H12        -6.2882   -2.5373    3.1423 H         1 <0>         0.1304
     44 H13        -5.4673   -1.9836    4.6207 H         1 <0>         0.1320
     45 H14        -7.2250   -0.9960    1.6341 H         1 <0>         0.1319
     46 H15        -7.1311    0.7541    1.9420 H         1 <0>         0.1316
     47 H16        -4.6740    0.6804    1.6106 H         1 <0>         0.0885
     48 H17        -5.5315    0.0731    0.1729 H         1 <0>         0.1159
     49 H18        -8.2379   -1.1638    3.7899 H         1 <0>         0.1318
     50 H19        -7.3173   -0.7265    5.2492 H         1 <0>         0.1351
     51 H20        -7.4442    1.6665    4.6123 H         1 <0>         0.1060
     52 H21        -8.3648    1.2293    3.1530 H         1 <0>         0.1030
     53 H22       -11.0011    1.3839    3.6624 H         1 <0>         0.0916
     54 H23       -10.7713   -0.3513    4.0481 H         1 <0>         0.0867
     55 H24       -12.3795    1.6093    5.4975 H         1 <0>         0.0926
     56 H25       -12.1498   -0.1259    5.8832 H         1 <0>         0.0914
     57 H26       -10.9875    1.3510    7.6707 H         1 <0>         0.4382
     58 H27        -5.6719    0.2583    3.7840 H         1 <0>         0.4243
@<TRIPOS>BOND
     1    1    6 ar
     2    1    2 ar
     3    1   32 1
     4    2    3 ar
     5    2   33 1
     6    3    4 ar
     7    3   31 1
     8    4    5 ar
     9    4   34 1
    10    5    6 ar
    11    5   35 1
    12    6    7 1
    13    7   11 1
    14    7    8 1
    15    8    9 2
    16    8   36 1
    17    9   10 1
    18    9   17 1
    19   10   15 ar
    20   10   11 ar
    21   11   12 ar
    22   12   13 ar
    23   12   37 1
    24   13   14 ar
    25   13   38 1
    26   14   15 ar
    27   14   16 1
    28   15   39 1
    29   17   22 1
    30   17   18 1
    31   17   40 1
    32   18   19 1
    33   18   41 1
    34   18   42 1
    35   19   20 1
    36   19   43 1
    37   19   44 1
    38   20   21 1
    39   20   23 1
    40   20   58 1
    41   21   22 1
    42   21   45 1
    43   21   46 1
    44   22   47 1
    45   22   48 1
    46   23   24 1
    47   23   49 1
    48   23   50 1
    49   24   25 1
    50   24   51 1
    51   24   52 1
    52   25   29 am
    53   25   26 1
    54   26   27 1
    55   26   53 1
    56   26   54 1
    57   27   28 1
    58   27   55 1
    59   27   56 1
    60   28   29 am
    61   28   57 1
    62   29   30 2
@<TRIPOS>MOLECULE
ZINC00896484
   23    24     0     0     0
SMALL
USER_CHARGES

@<TRIPOS>ATOM
      1 C1         -0.0167    1.3793    0.0096 C.ar      1 <0>        -0.1251
      2 C2          1.1680    2.0938    0.0022 C.ar      1 <0>        -0.0904
      3 C3          2.3785    1.4297   -0.0129 C.ar      1 <0>        -0.0648
      4 C4          2.4050    0.0334   -0.0206 C.ar      1 <0>         0.1769
      5 C5          1.2052   -0.6814   -0.0130 C.ar      1 <0>        -0.0649
      6 C6          0.0021   -0.0041    0.0020 C.ar      1 <0>        -0.0904
      7 Cl1         1.2264   -2.4172   -0.0231 Cl        1 <0>        -0.0561
      8 N1          3.6030   -0.6324   -0.0361 N.2       1 <0>        -0.6265
      9 C7          4.1879   -0.9573    1.0933 C.2       1 <0>         0.6631
     10 N2          3.6659   -0.6737    2.3229 N.pl3     1 <0>        -0.7535
     11 C8          4.5775   -1.1780    3.3591 C.3       1 <0>         0.0928
     12 C9          5.7389   -1.8145    2.5745 C.3       1 <0>         0.1005
     13 N3          5.3800   -1.6198    1.1630 N.pl3     1 <0>        -0.7140
     14 Cl2         3.8638    2.3282   -0.0229 Cl        1 <0>        -0.0561
     15 H1         -0.9606    1.9039    0.0260 H         1 <0>         0.1385
     16 H2          1.1460    3.1736    0.0078 H         1 <0>         0.1363
     17 H3         -0.9265   -0.5555    0.0082 H         1 <0>         0.1363
     18 H4          4.9410   -0.3577    3.9780 H         1 <0>         0.0821
     19 H5          4.0780   -1.9269    3.9736 H         1 <0>         0.0822
     20 H6          6.6764   -1.3088    2.8056 H         1 <0>         0.0847
     21 H7          5.8134   -2.8781    2.8012 H         1 <0>         0.0844
     22 H8          5.9064   -1.9129    0.4028 H         1 <0>         0.4371
     23 H9          2.8280   -0.2130    2.4861 H         1 <0>         0.4271
@<TRIPOS>BOND
     1    1    6 ar
     2    1    2 ar
     3    1   15 1
     4    2    3 ar
     5    2   16 1
     6    3    4 ar
     7    3   14 1
     8    4    5 ar
     9    4    8 1
    10    5    6 ar
    11    5    7 1
    12    6   17 1
    13    8    9 2
    14    9   13 1
    15    9   10 1
    16   10   11 1
    17   10   23 1
    18   11   12 1
    19   11   18 1
    20   11   19 1
    21   12   13 1
    22   12   20 1
    23   12   21 1
    24   13   22 1
@<TRIPOS>MOLECULE
ZINC53064442
   59    62     0     0     0
SMALL
USER_CHARGES

@<TRIPOS>ATOM
      1 C1         -0.0173    1.4248    0.0099 C.3       1 <0>         0.0252
      2 O1          0.0021   -0.0041    0.0020 O.3       1 <0>        -0.3038
      3 C2          0.6063   -0.6076   -1.0566 C.ar      1 <0>         0.1200
      4 C3          1.1727    0.1584   -2.0619 C.ar      1 <0>        -0.2067
      5 C4          1.7862   -0.4565   -3.1379 C.ar      1 <0>        -0.0837
      6 C5          1.8369   -1.8361   -3.2138 C.ar      1 <0>        -0.1522
      7 C6          1.2745   -2.6077   -2.2144 C.ar      1 <0>        -0.0880
      8 C7          0.6620   -1.9977   -1.1294 C.ar      1 <0>         0.1392
      9 N1          0.0968   -2.7768   -0.1132 N.pl3     1 <0>        -0.6682
     10 C8         -1.3056   -3.2137   -0.1884 C.3       1 <0>         0.1543
     11 C9         -1.3570   -4.7276    0.0431 C.3       1 <0>         0.0432
     12 N2         -0.6724   -5.0507    1.3020 N.3       1 <0>        -0.5286
     13 C10         0.7517   -4.6956    1.2405 C.3       1 <0>         0.0373
     14 C11         0.8913   -3.1855    1.0551 C.3       1 <0>         0.1540
     15 C12        -0.8472   -6.4678    1.6476 C.3       1 <0>         0.0496
     16 C13        -0.3417   -6.7116    3.0710 C.3       1 <0>         0.0947
     17 N3         -0.5160   -8.1248    3.4157 N.am      1 <0>        -0.5648
     18 C14        -1.6686   -8.5092    3.9834 C.2       1 <0>         0.5224
     19 O2         -2.5368   -7.6868    4.1818 O.2       1 <0>        -0.4928
     20 C15        -1.9055   -9.9436    4.3791 C.3       1 <0>        -0.1313
     21 C16        -1.0927  -10.8580    3.4640 C.3       1 <0>        -0.0666
     22 C17        -1.2370  -12.3190    3.9117 C.3       1 <0>        -0.1127
     23 C18        -1.8643  -13.0802    2.7242 C.3       1 <0>        -0.1253
     24 C19        -1.5011  -12.2210    1.4873 C.3       1 <0>        -0.1236
     25 C20        -1.6310  -10.7733    2.0249 C.3       1 <0>        -0.1241
     26 C21         0.3768  -10.4406    3.4955 C.3       1 <0>        -0.1304
     27 C22         0.4818   -8.9790    3.1448 C.2       1 <0>         0.5233
     28 O3          1.4894   -8.5664    2.6118 O.2       1 <0>        -0.4984
     29 H1          1.0053    1.8021    0.0021 H         1 <0>         0.0536
     30 H2         -0.5445    1.7859   -0.8732 H         1 <0>         0.0536
     31 H3         -0.5275    1.7763    0.9067 H         1 <0>         0.0992
     32 H4          1.1348    1.2363   -2.0057 H         1 <0>         0.1276
     33 H5          2.2267    0.1425   -3.9212 H         1 <0>         0.1244
     34 H6          2.3168   -2.3119   -4.0562 H         1 <0>         0.1237
     35 H7          1.3151   -3.6852   -2.2764 H         1 <0>         0.1250
     36 H8         -1.8890   -2.7058    0.5796 H         1 <0>         0.0594
     37 H9         -1.7097   -2.9800   -1.1734 H         1 <0>         0.0701
     38 H10        -2.3961   -5.0517    0.1006 H         1 <0>         0.0801
     39 H11        -0.8612   -5.2388   -0.7821 H         1 <0>         0.0352
     40 H12         1.2419   -4.9966    2.1663 H         1 <0>         0.0816
     41 H13         1.2181   -5.2073    0.3986 H         1 <0>         0.0367
     42 H14         1.9390   -2.9332    0.8918 H         1 <0>         0.0699
     43 H15         0.5231   -2.6749    1.9450 H         1 <0>         0.0584
     44 H16        -1.9037   -6.7288    1.5875 H         1 <0>         0.0781
     45 H17        -0.2804   -7.0845    0.9501 H         1 <0>         0.0366
     46 H18         0.7149   -6.4507    3.1310 H         1 <0>         0.0953
     47 H19        -0.9085   -6.0950    3.7685 H         1 <0>         0.1048
     48 H20        -1.5937  -10.0924    5.4129 H         1 <0>         0.1126
     49 H21        -2.9654  -10.1783    4.2802 H         1 <0>         0.1162
     50 H22        -0.2581  -12.7361    4.1480 H         1 <0>         0.0750
     51 H23        -1.8902  -12.3805    4.7822 H         1 <0>         0.0752
     52 H24        -1.4301  -14.0763    2.6375 H         1 <0>         0.0698
     53 H25        -2.9462  -13.1434    2.8404 H         1 <0>         0.0689
     54 H26        -0.4799  -12.4224    1.1636 H         1 <0>         0.0695
     55 H27        -2.2064  -12.3960    0.6750 H         1 <0>         0.0702
     56 H28        -2.6746  -10.4585    2.0255 H         1 <0>         0.0752
     57 H29        -1.0253  -10.0894    1.4303 H         1 <0>         0.0639
     58 H30         0.7821  -10.6095    4.4932 H         1 <0>         0.1130
     59 H31         0.9381  -11.0285    2.7693 H         1 <0>         0.1151
@<TRIPOS>BOND
     1    1    2 1
     2    1   29 1
     3    1   30 1
     4    1   31 1
     5    2    3 1
     6    3    8 ar
     7    3    4 ar
     8    4    5 ar
     9    4   32 1
    10    5    6 ar
    11    5   33 1
    12    6    7 ar
    13    6   34 1
    14    7    8 ar
    15    7   35 1
    16    8    9 1
    17    9   14 1
    18    9   10 1
    19   10   11 1
    20   10   36 1
    21   10   37 1
    22   11   12 1
    23   11   38 1
    24   11   39 1
    25   12   13 1
    26   12   15 1
    27   13   14 1
    28   13   40 1
    29   13   41 1
    30   14   42 1
    31   14   43 1
    32   15   16 1
    33   15   44 1
    34   15   45 1
    35   16   17 1
    36   16   46 1
    37   16   47 1
    38   17   27 am
    39   17   18 am
    40   18   19 2
    41   18   20 1
    42   20   21 1
    43   20   48 1
    44   20   49 1
    45   21   25 1
    46   21   22 1
    47   21   26 1
    48   22   23 1
    49   22   50 1
    50   22   51 1
    51   23   24 1
    52   23   52 1
    53   23   53 1
    54   24   25 1
    55   24   54 1
    56   24   55 1
    57   25   56 1
    58   25   57 1
    59   26   27 1
    60   26   58 1
    61   26   59 1
    62   27   28 2
@<TRIPOS>MOLECULE
ZINC19632696
   57    60     0     0     0
SMALL
USER_CHARGES

@<TRIPOS>ATOM
      1 C1         -0.3571    0.9816   -1.0035 C.3       1 <0>         0.0253
      2 O1         -0.2200   -0.4285   -0.8166 O.3       1 <0>        -0.3059
      3 C2         -1.3612   -1.1682   -0.8397 C.ar      1 <0>         0.1174
      4 C3         -2.5844   -0.5512   -1.0434 C.ar      1 <0>        -0.2068
      5 C4         -3.7439   -1.3044   -1.0662 C.ar      1 <0>        -0.0841
      6 C5         -3.6866   -2.6741   -0.8864 C.ar      1 <0>        -0.1509
      7 C6         -2.4698   -3.2975   -0.6829 C.ar      1 <0>        -0.0868
      8 C7         -1.3020   -2.5490   -0.6642 C.ar      1 <0>         0.1390
      9 N1         -0.0680   -3.1786   -0.4641 N.pl3     1 <0>        -0.6688
     10 C8          0.4707   -3.3704    0.8909 C.3       1 <0>         0.1545
     11 C9          1.9072   -2.8378    0.9236 C.3       1 <0>         0.0403
     12 N2          2.6853   -3.4709   -0.1496 N.3       1 <0>        -0.5218
     13 C10         2.1508   -3.1217   -1.4726 C.3       1 <0>         0.0431
     14 C11         0.7214   -3.6714   -1.6030 C.3       1 <0>         0.1547
     15 C12         4.1077   -3.1186   -0.0467 C.3       1 <0>         0.0270
     16 C13         4.7495   -3.9155    1.0908 C.3       1 <0>         0.1192
     17 H1          4.2176   -3.7142    2.0207 H         1 <0>         0.1076
     18 C14         6.2144   -3.5004    1.2411 C.3       1 <0>         0.0265
     19 O2          6.7818   -4.1578    2.3759 O.3       1 <0>        -0.2971
     20 C15         8.0856   -3.8964    2.6519 C.ar      1 <0>         0.1492
     21 C16         8.7960   -3.0341    1.8647 C.ar      1 <0>        -0.2272
     22 C17        10.1328   -2.7557    2.1343 C.ar      1 <0>        -0.0749
     23 C18        10.7718   -3.3332    3.1891 C.ar      1 <0>        -0.1469
     24 C19        10.0764   -4.2253    4.0228 C.ar      1 <0>        -0.0185
     25 C20         8.7138   -4.5081    3.7555 C.ar      1 <0>        -0.0716
     26 C21         8.0176   -5.3961    4.5912 C.ar      1 <0>        -0.0818
     27 C22         8.6572   -5.9685    5.6479 C.ar      1 <0>        -0.1298
     28 C23         9.9958   -5.6867    5.9144 C.ar      1 <0>        -0.1014
     29 C24        10.7050   -4.8393    5.1198 C.ar      1 <0>        -0.1187
     30 O3          4.6780   -5.3115    0.7939 O.3       1 <0>        -0.5351
     31 H2          0.6260    1.4507   -0.9630 H         1 <0>         0.0966
     32 H3         -0.8131    1.1768   -1.9741 H         1 <0>         0.0539
     33 H4         -0.9886    1.3928   -0.2161 H         1 <0>         0.0540
     34 H5         -2.6327    0.5185   -1.1842 H         1 <0>         0.1266
     35 H6         -4.6968   -0.8215   -1.2245 H         1 <0>         0.1244
     36 H7         -4.5948   -3.2582   -0.9045 H         1 <0>         0.1248
     37 H8         -2.4279   -4.3675   -0.5423 H         1 <0>         0.1293
     38 H9         -0.1395   -2.8221    1.6086 H         1 <0>         0.0687
     39 H10         0.4680   -4.4318    1.1392 H         1 <0>         0.0589
     40 H11         1.8980   -1.7577    0.7776 H         1 <0>         0.0396
     41 H12         2.3598   -3.0712    1.8873 H         1 <0>         0.0771
     42 H13         2.1382   -2.0376   -1.5852 H         1 <0>         0.0394
     43 H14         2.7801   -3.5609   -2.2466 H         1 <0>         0.0763
     44 H15         0.7423   -4.7611   -1.5899 H         1 <0>         0.0585
     45 H16         0.2770   -3.3221   -2.5351 H         1 <0>         0.0688
     46 H17         4.6095   -3.3559   -0.9848 H         1 <0>         0.0796
     47 H18         4.2040   -2.0522    0.1573 H         1 <0>         0.0466
     48 H19         6.7659   -3.7828    0.3443 H         1 <0>         0.0680
     49 H20         6.2738   -2.4208    1.3793 H         1 <0>         0.0711
     50 H21         8.3134   -2.5623    1.0216 H         1 <0>         0.1255
     51 H22        10.6721   -2.0711    1.4964 H         1 <0>         0.1245
     52 H23        11.8096   -3.1065    3.3840 H         1 <0>         0.1282
     53 H24         6.9798   -5.6235    4.3970 H         1 <0>         0.1328
     54 H25         8.1193   -6.6509    6.2893 H         1 <0>         0.1251
     55 H26        10.4798   -6.1539    6.7593 H         1 <0>         0.1248
     56 H27        11.7418   -4.6305    5.3381 H         1 <0>         0.1298
     57 H28         5.1312   -5.5637   -0.0223 H         1 <0>         0.3713
@<TRIPOS>BOND
     1    1    2 1
     2    1   31 1
     3    1   32 1
     4    1   33 1
     5    2    3 1
     6    3    8 ar
     7    3    4 ar
     8    4    5 ar
     9    4   34 1
    10    5    6 ar
    11    5   35 1
    12    6    7 ar
    13    6   36 1
    14    7    8 ar
    15    7   37 1
    16    8    9 1
    17    9   14 1
    18    9   10 1
    19   10   11 1
    20   10   38 1
    21   10   39 1
    22   11   12 1
    23   11   40 1
    24   11   41 1
    25   12   13 1
    26   12   15 1
    27   13   14 1
    28   13   42 1
    29   13   43 1
    30   14   44 1
    31   14   45 1
    32   15   16 1
    33   15   46 1
    34   15   47 1
    35   16   17 1
    36   16   18 1
    37   16   30 1
    38   18   19 1
    39   18   48 1
    40   18   49 1
    41   19   20 1
    42   20   25 ar
    43   20   21 ar
    44   21   22 ar
    45   21   50 1
    46   22   23 ar
    47   22   51 1
    48   23   24 ar
    49   23   52 1
    50   24   29 ar
    51   24   25 ar
    52   25   26 ar
    53   26   27 ar
    54   26   53 1
    55   27   28 ar
    56   27   54 1
    57   28   29 ar
    58   28   55 1
    59   29   56 1
    60   30   57 1
@<TRIPOS>MOLECULE
ZINC19632700
   57    60     0     0     0
SMALL
USER_CHARGES

@<TRIPOS>ATOM
      1 C1         -0.0173    1.4248    0.0099 C.3       1 <0>         0.0253
      2 O1          0.0021   -0.0041    0.0020 O.3       1 <0>        -0.3059
      3 C2         -1.2013   -0.6380    0.0101 C.ar      1 <0>         0.1174
      4 C3         -2.3740    0.0989    0.0195 C.ar      1 <0>        -0.2068
      5 C4         -3.5967   -0.5469    0.0283 C.ar      1 <0>        -0.0841
      6 C5         -3.6532   -1.9283    0.0271 C.ar      1 <0>        -0.1510
      7 C6         -2.4875   -2.6710    0.0173 C.ar      1 <0>        -0.0868
      8 C7         -1.2572   -2.0300    0.0032 C.ar      1 <0>         0.1390
      9 N1         -0.0754   -2.7797   -0.0127 N.pl3     1 <0>        -0.6689
     10 C8          0.5713   -3.1961    1.2410 C.3       1 <0>         0.1546
     11 C9          2.0484   -2.7921    1.1842 C.3       1 <0>         0.0424
     12 N2          2.6549   -3.3362   -0.0381 N.3       1 <0>        -0.5210
     13 C10         2.0305   -2.7691   -1.2408 C.3       1 <0>         0.0390
     14 C11         0.5494   -3.1773   -1.2834 C.3       1 <0>         0.1552
     15 C12         4.1077   -3.1186   -0.0467 C.3       1 <0>         0.0270
     16 C13         4.7347   -3.9076   -1.1979 C.3       1 <0>         0.1164
     17 H1          4.3110   -3.5692   -2.1435 H         1 <0>         0.1081
     18 C14         6.2478   -3.6810   -1.2069 C.3       1 <0>         0.0269
     19 O2          6.8187   -4.3224   -2.3492 O.3       1 <0>        -0.2973
     20 C15         8.1634   -4.2170   -2.5076 C.ar      1 <0>         0.1491
     21 C16         8.9116   -3.5269   -1.5956 C.ar      1 <0>        -0.2270
     22 C17        10.2907   -3.4098   -1.7437 C.ar      1 <0>        -0.0749
     23 C18        10.9346   -3.9790   -2.8000 C.ar      1 <0>        -0.1468
     24 C19        10.2012   -4.6975   -3.7595 C.ar      1 <0>        -0.0186
     25 C20         8.7977   -4.8236   -3.6105 C.ar      1 <0>        -0.0715
     26 C21         8.0654   -5.5453   -4.5669 C.ar      1 <0>        -0.0819
     27 C22         8.7120   -6.1174   -5.6195 C.ar      1 <0>        -0.1298
     28 C23        10.0929   -5.9981   -5.7637 C.ar      1 <0>        -0.1014
     29 C24        10.8335   -5.2973   -4.8622 C.ar      1 <0>        -0.1186
     30 O3          4.4625   -5.2997   -1.0252 O.3       1 <0>        -0.5348
     31 H2          1.0053    1.8021    0.0021 H         1 <0>         0.0966
     32 H3         -0.5445    1.7859   -0.8732 H         1 <0>         0.0540
     33 H4         -0.5275    1.7763    0.9067 H         1 <0>         0.0539
     34 H5         -2.3335    1.1781    0.0204 H         1 <0>         0.1266
     35 H6         -4.5101    0.0293    0.0363 H         1 <0>         0.1243
     36 H7         -4.6104   -2.4284    0.0343 H         1 <0>         0.1248
     37 H8         -2.5344   -3.7500    0.0168 H         1 <0>         0.1293
     38 H9          0.0885   -2.7015    2.0838 H         1 <0>         0.0688
     39 H10         0.4914   -4.2774    1.3526 H         1 <0>         0.0578
     40 H11         2.1282   -1.7051    1.1771 H         1 <0>         0.0392
     41 H12         2.5679   -3.1896    2.0561 H         1 <0>         0.0765
     42 H13         2.1105   -1.6824   -1.2141 H         1 <0>         0.0391
     43 H14         2.5371   -3.1499   -2.1276 H         1 <0>         0.0790
     44 H15         0.4674   -4.2569   -1.4097 H         1 <0>         0.0594
     45 H16         0.0521   -2.6703   -2.1103 H         1 <0>         0.0684
     46 H17         4.3153   -2.0567   -0.1785 H         1 <0>         0.0442
     47 H18         4.5314   -3.4570    0.8988 H         1 <0>         0.0810
     48 H19         6.4548   -2.6117   -1.2494 H         1 <0>         0.0712
     49 H20         6.6833   -4.0996   -0.2996 H         1 <0>         0.0686
     50 H21         8.4261   -3.0656   -0.7484 H         1 <0>         0.1256
     51 H22        10.8590   -2.8584   -1.0094 H         1 <0>         0.1246
     52 H23        12.0052   -3.8784   -2.9002 H         1 <0>         0.1283
     53 H24         6.9947   -5.6464   -4.4677 H         1 <0>         0.1327
     54 H25         8.1464   -6.6723   -6.3534 H         1 <0>         0.1251
     55 H26        10.5817   -6.4619   -6.6078 H         1 <0>         0.1248
     56 H27        11.9030   -5.2127   -4.9868 H         1 <0>         0.1298
     57 H28         4.8113   -5.6695   -0.2026 H         1 <0>         0.3727
@<TRIPOS>BOND
     1    1    2 1
     2    1   31 1
     3    1   32 1
     4    1   33 1
     5    2    3 1
     6    3    8 ar
     7    3    4 ar
     8    4    5 ar
     9    4   34 1
    10    5    6 ar
    11    5   35 1
    12    6    7 ar
    13    6   36 1
    14    7    8 ar
    15    7   37 1
    16    8    9 1
    17    9   14 1
    18    9   10 1
    19   10   11 1
    20   10   38 1
    21   10   39 1
    22   11   12 1
    23   11   40 1
    24   11   41 1
    25   12   13 1
    26   12   15 1
    27   13   14 1
    28   13   42 1
    29   13   43 1
    30   14   44 1
    31   14   45 1
    32   15   16 1
    33   15   46 1
    34   15   47 1
    35   16   17 1
    36   16   18 1
    37   16   30 1
    38   18   19 1
    39   18   48 1
    40   18   49 1
    41   19   20 1
    42   20   25 ar
    43   20   21 ar
    44   21   22 ar
    45   21   50 1
    46   22   23 ar
    47   22   51 1
    48   23   24 ar
    49   23   52 1
    50   24   29 ar
    51   24   25 ar
    52   25   26 ar
    53   26   27 ar
    54   26   53 1
    55   27   28 ar
    56   27   54 1
    57   28   29 ar
    58   28   55 1
    59   29   56 1
    60   30   57 1
@<TRIPOS>MOLECULE
ZINC00057624
   24    24     0     0     0
SMALL
USER_CHARGES

@<TRIPOS>ATOM
      1 C1         -0.0167    1.3779    0.0096 C.ar      1 <0>        -0.0981
      2 C2          1.1696    2.0886    0.0021 C.ar      1 <0>        -0.1236
      3 C3          2.3802    1.4154   -0.0130 C.ar      1 <0>         0.1055
      4 C4          2.3990    0.0236   -0.0206 C.ar      1 <0>         0.0900
      5 C5          1.2071   -0.6822   -0.0130 C.ar      1 <0>        -0.1137
      6 C6          0.0021   -0.0041    0.0020 C.ar      1 <0>        -0.1399
      7 C7         -1.2936   -0.7736    0.0102 C.3       1 <0>         0.1354
      8 H1         -1.1263   -1.7622    0.4376 H         1 <0>         0.1339
      9 C8         -1.8100   -0.9182   -1.4228 C.3       1 <0>        -0.0430
     10 N1         -3.0730   -1.6683   -1.4148 N.4       1 <0>        -0.6330
     11 O1         -2.2593   -0.0721    0.7960 O.3       1 <0>        -0.5475
     12 O2          3.5850   -0.6417   -0.0359 O.3       1 <0>        -0.4846
     13 O3          3.5476    2.1129   -0.0209 O.3       1 <0>        -0.4848
     14 H2         -0.9598    1.9038    0.0259 H         1 <0>         0.1309
     15 H3          1.1522    3.1684    0.0077 H         1 <0>         0.1437
     16 H4          1.2190   -1.7621   -0.0189 H         1 <0>         0.1389
     17 H5         -1.9772    0.0704   -1.8502 H         1 <0>         0.1398
     18 H6         -1.0734   -1.4533   -2.0221 H         1 <0>         0.1477
     19 H7         -2.9181   -2.5835   -1.0191 H         1 <0>         0.4371
     20 H8         -3.7548   -1.1730   -0.8600 H         1 <0>         0.4387
     21 H9         -2.4578    0.8175    0.4731 H         1 <0>         0.3897
     22 H10         3.9367   -0.8389    0.8430 H         1 <0>         0.3974
     23 H11         3.8938    2.3101    0.8602 H         1 <0>         0.3992
     24 H12        -3.4135   -1.7637   -2.3598 H         1 <0>         0.4402
@<TRIPOS>BOND
     1    1    6 ar
     2    1    2 ar
     3    1   14 1
     4    2    3 ar
     5    2   15 1
     6    3    4 ar
     7    3   13 1
     8    4    5 ar
     9    4   12 1
    10    5    6 ar
    11    5   16 1
    12    6    7 1
    13    7    8 1
    14    7    9 1
    15    7   11 1
    16    9   10 1
    17    9   17 1
    18    9   18 1
    19   10   19 1
    20   10   20 1
    21   10   24 1
    22   11   21 1
    23   12   22 1
    24   13   23 1
@<TRIPOS>MOLECULE
ZINC19796039
   54    55     0     0     0
SMALL
USER_CHARGES

@<TRIPOS>ATOM
      1 C1         -2.3669   -0.9201    0.0143 C.3       1 <0>        -0.1530
      2 C2         -0.8508   -1.0920   -0.0992 C.3       1 <0>         0.0573
      3 O1         -0.3390   -1.6247    1.1240 O.3       1 <0>        -0.3450
      4 C3          0.9920   -1.8379    1.1900 C.2       1 <0>         0.5215
      5 O2          1.6979   -1.5779    0.2335 O.2       1 <0>        -0.4853
      6 C4          1.5663   -2.3635    2.3705 C.2       1 <0>        -0.1706
      7 C5          1.4893   -3.6844    2.6076 C.2       1 <0>         0.1614
      8 N1          2.0418   -4.2273    3.7355 N.pl3     1 <0>        -0.6268
      9 C6          2.9751   -3.5288    4.4518 C.2       1 <0>         0.2330
     10 C7          3.1134   -2.2013    4.2923 C.2       1 <0>        -0.2444
     11 C8          2.2545   -1.4343    3.3297 C.3       1 <0>         0.0708
     12 H1          2.8758   -0.7357    2.7693 H         1 <0>         0.1107
     13 C9          1.2171   -0.6630    4.1042 C.ar      1 <0>        -0.0765
     14 C10         0.3009   -1.3352    4.8915 C.ar      1 <0>        -0.0900
     15 C11        -0.6507   -0.6279    5.6019 C.ar      1 <0>        -0.1153
     16 C12        -0.6869    0.7521    5.5257 C.ar      1 <0>        -0.1012
     17 C13         0.2284    1.4252    4.7390 C.ar      1 <0>        -0.1091
     18 C14         1.1849    0.7180    4.0320 C.ar      1 <0>        -0.0177
     19 Cl1         2.3393    1.5632    3.0488 Cl        1 <0>        -0.0561
     20 C15         4.0934   -1.5126    5.0439 C.2       1 <0>         0.5169
     21 O3          4.8005   -2.1217    5.8248 O.2       1 <0>        -0.5187
     22 O4          4.2446   -0.1798    4.8951 O.3       1 <0>        -0.3402
     23 C16         5.2539    0.4509    5.6860 C.3       1 <0>         0.0368
     24 C17         3.8586   -4.2567    5.4320 C.3       1 <0>        -0.1140
     25 C18         0.7865   -4.5783    1.6187 C.3       1 <0>         0.1008
     26 O5          1.7317   -5.4747    1.0312 O.3       1 <0>        -0.3919
     27 C19         1.1651   -6.3711    0.0734 C.3       1 <0>         0.0232
     28 C20         2.2620   -7.2786   -0.4871 C.3       1 <0>         0.0008
     29 N2          2.7843   -8.1355    0.5857 N.4       1 <0>        -0.6373
     30 H2         -2.5949   -0.2363    0.8320 H         1 <0>         0.0704
     31 H3         -2.7574   -0.5137   -0.9187 H         1 <0>         0.0836
     32 H4         -2.8286   -1.8878    0.2105 H         1 <0>         0.0650
     33 H5         -0.6229   -1.7758   -0.9168 H         1 <0>         0.0663
     34 H6         -0.3892   -0.1243   -0.2954 H         1 <0>         0.0731
     35 H7          1.7703   -5.1111    4.0287 H         1 <0>         0.4203
     36 H8          0.3285   -2.4132    4.9512 H         1 <0>         0.1195
     37 H9         -1.3665   -1.1535    6.2166 H         1 <0>         0.1286
     38 H10        -1.4309    1.3042    6.0807 H         1 <0>         0.1338
     39 H11         0.1999    2.5032    4.6793 H         1 <0>         0.1358
     40 H12         5.0362    0.2970    6.7429 H         1 <0>         0.0604
     41 H13         6.2254    0.0176    5.4483 H         1 <0>         0.0600
     42 H14         5.2699    1.5192    5.4701 H         1 <0>         0.1018
     43 H15         3.6076   -5.3174    5.4292 H         1 <0>         0.0604
     44 H16         4.9022   -4.1295    5.1443 H         1 <0>         0.1051
     45 H17         3.7050   -3.8496    6.4314 H         1 <0>         0.1051
     46 H18         0.0135   -5.1505    2.1317 H         1 <0>         0.0890
     47 H19         0.3301   -3.9691    0.8386 H         1 <0>         0.0859
     48 H20         0.3999   -6.9805    0.5544 H         1 <0>         0.0817
     49 H21         0.7166   -5.7990   -0.7387 H         1 <0>         0.1030
     50 H22         1.8484   -7.9011   -1.2804 H         1 <0>         0.1514
     51 H23         3.0696   -6.6667   -0.8890 H         1 <0>         0.1445
     52 H24         3.1672   -7.5592    1.3202 H         1 <0>         0.4406
     53 H25         2.0368   -8.7018    0.9578 H         1 <0>         0.4340
     54 H26         3.5077   -8.7339    0.2161 H         1 <0>         0.4405
@<TRIPOS>BOND
     1    1    2 1
     2    1   30 1
     3    1   31 1
     4    1   32 1
     5    2    3 1
     6    2   33 1
     7    2   34 1
     8    3    4 1
     9    4    5 2
    10    4    6 1
    11    6   11 1
    12    6    7 2
    13    7    8 1
    14    7   25 1
    15    8    9 1
    16    8   35 1
    17    9   10 2
    18    9   24 1
    19   10   11 1
    20   10   20 1
    21   11   12 1
    22   11   13 1
    23   13   18 ar
    24   13   14 ar
    25   14   15 ar
    26   14   36 1
    27   15   16 ar
    28   15   37 1
    29   16   17 ar
    30   16   38 1
    31   17   18 ar
    32   17   39 1
    33   18   19 1
    34   20   21 2
    35   20   22 1
    36   22   23 1
    37   23   40 1
    38   23   41 1
    39   23   42 1
    40   24   43 1
    41   24   44 1
    42   24   45 1
    43   25   26 1
    44   25   46 1
    45   25   47 1
    46   26   27 1
    47   27   28 1
    48   27   48 1
    49   27   49 1
    50   28   29 1
    51   28   50 1
    52   28   51 1
    53   29   52 1
    54   29   53 1
    55   29   54 1
@<TRIPOS>MOLECULE
ZINC19796041
   54    55     0     0     0
SMALL
USER_CHARGES

@<TRIPOS>ATOM
      1 C1          1.9114   -1.6145   -2.3659 C.3       1 <0>        -0.1494
      2 C2          1.0231   -1.3941   -1.1399 C.3       1 <0>         0.0548
      3 O1          1.6578   -1.9485    0.0141 O.3       1 <0>        -0.3433
      4 C3          1.0006   -1.8374    1.1876 C.2       1 <0>         0.5203
      5 O2         -0.0825   -1.2844    1.2283 O.2       1 <0>        -0.4832
      6 C4          1.5707   -2.3639    2.3698 C.2       1 <0>        -0.1739
      7 C5          1.4893   -3.6844    2.6076 C.2       1 <0>         0.1632
      8 N1          2.0231   -4.2258    3.7452 N.pl3     1 <0>        -0.6257
      9 C6          2.3221   -3.4271    4.8151 C.2       1 <0>         0.2319
     10 C7          2.4382   -2.0958    4.6693 C.2       1 <0>        -0.2437
     11 C8          2.2595   -1.4360    3.3299 C.3       1 <0>         0.0701
     12 H1          1.6577   -0.5356    3.4532 H         1 <0>         0.1098
     13 C9          3.6081   -1.0580    2.7735 C.ar      1 <0>        -0.0722
     14 C10         4.5471   -2.0379    2.5112 C.ar      1 <0>        -0.0881
     15 C11         5.7840   -1.6914    2.0008 C.ar      1 <0>        -0.1181
     16 C12         6.0828   -0.3645    1.7523 C.ar      1 <0>        -0.1023
     17 C13         5.1449    0.6161    2.0141 C.ar      1 <0>        -0.1089
     18 C14         3.9044    0.2692    2.5197 C.ar      1 <0>        -0.0175
     19 Cl1         2.7233    1.4997    2.8427 Cl        1 <0>        -0.0534
     20 C15         2.7391   -1.2999    5.7988 C.2       1 <0>         0.5165
     21 O3          2.8901   -1.8214    6.8878 O.2       1 <0>        -0.5171
     22 O4          2.8589    0.0380    5.6689 O.3       1 <0>        -0.3408
     23 C16         3.1642    0.7799    6.8514 C.3       1 <0>         0.0367
     24 C17         2.5233   -4.0474    6.1737 C.3       1 <0>        -0.1152
     25 C18         0.8014   -4.5794    1.6092 C.3       1 <0>         0.1028
     26 O5          1.7561   -5.4739    1.0344 O.3       1 <0>        -0.3908
     27 C19         1.2040   -6.3712    0.0689 C.3       1 <0>         0.0234
     28 C20         2.3100   -7.2766   -0.4770 C.3       1 <0>         0.0011
     29 N2          2.8194   -8.1327    0.6026 N.4       1 <0>        -0.6377
     30 H2          2.0666   -2.6831   -2.5147 H         1 <0>         0.0612
     31 H3          1.4273   -1.1916   -3.2462 H         1 <0>         0.0832
     32 H4          2.8732   -1.1259   -2.2103 H         1 <0>         0.0694
     33 H5          0.8679   -0.3255   -0.9911 H         1 <0>         0.0732
     34 H6          0.0612   -1.8827   -1.2955 H         1 <0>         0.0670
     35 H7          2.1899   -5.1801    3.7935 H         1 <0>         0.4193
     36 H8          4.3144   -3.0745    2.7054 H         1 <0>         0.1191
     37 H9          6.5174   -2.4573    1.7964 H         1 <0>         0.1258
     38 H10         7.0496   -0.0943    1.3539 H         1 <0>         0.1329
     39 H11         5.3785    1.6525    1.8203 H         1 <0>         0.1359
     40 H12         2.3771    0.6267    7.5898 H         1 <0>         0.0608
     41 H13         4.1159    0.4388    7.2588 H         1 <0>         0.0601
     42 H14         3.2323    1.8401    6.6077 H         1 <0>         0.1017
     43 H15         2.3915   -5.1271    6.1032 H         1 <0>         0.0615
     44 H16         3.5301   -3.8267    6.5284 H         1 <0>         0.1044
     45 H17         1.7940   -3.6371    6.8721 H         1 <0>         0.1072
     46 H18         0.0226   -5.1531    2.1117 H         1 <0>         0.0880
     47 H19         0.3545   -3.9708    0.8232 H         1 <0>         0.0845
     48 H20         0.4336   -6.9821    0.5394 H         1 <0>         0.0810
     49 H21         0.7654   -5.7998   -0.7491 H         1 <0>         0.1037
     50 H22         1.9082   -7.8998   -1.2759 H         1 <0>         0.1509
     51 H23         3.1218   -6.6632   -0.8680 H         1 <0>         0.1451
     52 H24         3.1914   -7.5559    1.3422 H         1 <0>         0.4400
     53 H25         2.0680   -8.7005    0.9645 H         1 <0>         0.4345
     54 H26         3.5488   -8.7298    0.2426 H         1 <0>         0.4405
@<TRIPOS>BOND
     1    1    2 1
     2    1   30 1
     3    1   31 1
     4    1   32 1
     5    2    3 1
     6    2   33 1
     7    2   34 1
     8    3    4 1
     9    4    5 2
    10    4    6 1
    11    6   11 1
    12    6    7 2
    13    7    8 1
    14    7   25 1
    15    8    9 1
    16    8   35 1
    17    9   10 2
    18    9   24 1
    19   10   11 1
    20   10   20 1
    21   11   12 1
    22   11   13 1
    23   13   18 ar
    24   13   14 ar
    25   14   15 ar
    26   14   36 1
    27   15   16 ar
    28   15   37 1
    29   16   17 ar
    30   16   38 1
    31   17   18 ar
    32   17   39 1
    33   18   19 1
    34   20   21 2
    35   20   22 1
    36   22   23 1
    37   23   40 1
    38   23   41 1
    39   23   42 1
    40   24   43 1
    41   24   44 1
    42   24   45 1
    43   25   26 1
    44   25   46 1
    45   25   47 1
    46   26   27 1
    47   27   28 1
    48   27   48 1
    49   27   49 1
    50   28   29 1
    51   28   50 1
    52   28   51 1
    53   29   52 1
    54   29   53 1
    55   29   54 1
@<TRIPOS>MOLECULE
ZINC19796041
   53    54     0     0     0
SMALL
USER_CHARGES

@<TRIPOS>ATOM
      1 C1         -0.4353    1.4545    0.2062 C.3       1 <0>        -0.1487
      2 C2         -0.1650   -0.0456    0.0737 C.3       1 <0>         0.0634
      3 O1          0.5022   -0.5148    1.2470 O.3       1 <0>        -0.3516
      4 C3          0.8146   -1.8250    1.2904 C.2       1 <0>         0.4640
      5 C4          1.4587   -2.3434    2.3924 C.2       1 <0>        -0.3777
      6 C5          1.8320   -3.8131    2.4736 C.3       1 <0>         0.1170
      7 H1          2.4785   -4.0475    1.6279 H         1 <0>         0.0614
      8 C6          2.5382   -4.2471    3.7450 C.2       1 <0>        -0.3466
      9 C7          2.7744   -3.2936    4.6935 C.2       1 <0>         0.2620
     10 N1          2.4115   -2.0298    4.5360 N.2       1 <0>        -0.6274
     11 C8          1.8018   -1.5395    3.4809 C.2       1 <0>         0.2759
     12 C9          1.4590   -0.0724    3.4468 C.3       1 <0>         0.1225
     13 O2          1.9008    0.5482    4.6558 O.3       1 <0>        -0.3738
     14 C10         1.6228    1.9482    4.7258 C.3       1 <0>         0.0191
     15 C11         2.1368    2.5043    6.0553 C.3       1 <0>         0.0042
     16 N2          3.6012    2.3963    6.0979 N.4       1 <0>        -0.6362
     17 C12         3.4735   -3.6945    5.9669 C.3       1 <0>        -0.1088
     18 C13         2.9343   -5.5819    3.9393 C.2       1 <0>         0.5210
     19 O3          3.6005   -5.8839    4.9131 O.2       1 <0>        -0.5535
     20 O4          2.5760   -6.5295    3.0459 O.3       1 <0>        -0.3454
     21 C14         3.0131   -7.8649    3.3061 C.3       1 <0>         0.0409
     22 C15         0.5711   -4.6273    2.3386 C.ar      1 <0>        -0.0244
     23 C16        -0.4554   -4.4685    3.2508 C.ar      1 <0>        -0.1010
     24 C17        -1.6120   -5.2152    3.1270 C.ar      1 <0>        -0.1301
     25 C18        -1.7429   -6.1214    2.0911 C.ar      1 <0>        -0.1266
     26 C19        -0.7174   -6.2811    1.1786 C.ar      1 <0>        -0.1235
     27 C20         0.4383   -5.5297    1.2986 C.ar      1 <0>         0.0128
     28 Cl1         1.7243   -5.7250    0.1489 Cl        1 <0>        -0.0718
     29 O5          0.4971   -2.6281    0.2559 O.3       1 <0>        -0.6130
     30 H2          0.5097    1.9850    0.3235 H         1 <0>         0.0579
     31 H3         -0.9443    1.8125   -0.6887 H         1 <0>         0.0741
     32 H4         -1.0639    1.6348    1.0783 H         1 <0>         0.0592
     33 H5         -1.1100   -0.5760   -0.0436 H         1 <0>         0.0625
     34 H6          0.4635   -0.2258   -0.7984 H         1 <0>         0.0623
     35 H7          1.9532    0.3966    2.5960 H         1 <0>         0.0786
     36 H8          0.3798    0.0464    3.3508 H         1 <0>         0.0808
     37 H9          2.1205    2.4591    3.9016 H         1 <0>         0.0685
     38 H10         0.5470    2.1089    4.6564 H         1 <0>         0.0916
     39 H11         1.8468    3.5510    6.1476 H         1 <0>         0.1396
     40 H12         1.7063    1.9341    6.8784 H         1 <0>         0.1403
     41 H13         3.8696    1.4275    6.0124 H         1 <0>         0.4479
     42 H14         3.9997    2.9242    5.3359 H         1 <0>         0.4309
     43 H15         4.5517   -3.6854    5.8078 H         1 <0>         0.0687
     44 H16         3.2172   -2.9910    6.7591 H         1 <0>         0.0497
     45 H17         3.1571   -4.6970    6.2550 H         1 <0>         0.0961
     46 H18         2.6124   -8.1983    4.2633 H         1 <0>         0.0493
     47 H19         2.6582   -8.5242    2.5141 H         1 <0>         0.0888
     48 H20         4.1023   -7.8906    3.3394 H         1 <0>         0.0500
     49 H21        -0.3536   -3.7610    4.0604 H         1 <0>         0.1127
     50 H22        -2.4135   -5.0910    3.8401 H         1 <0>         0.1141
     51 H23        -2.6467   -6.7048    1.9951 H         1 <0>         0.1186
     52 H24        -0.8197   -6.9892    0.3696 H         1 <0>         0.1206
     53 H25         3.9401    2.7631    6.9746 H         1 <0>         0.4330
@<TRIPOS>BOND
     1    1    2 1
     2    1   30 1
     3    1   31 1
     4    1   32 1
     5    2    3 1
     6    2   33 1
     7    2   34 1
     8    3    4 1
     9    4    5 2
    10    4   29 1
    11    5   11 1
    12    5    6 1
    13    6    7 1
    14    6    8 1
    15    6   22 1
    16    8    9 2
    17    8   18 1
    18    9   10 1
    19    9   17 1
    20   10   11 2
    21   11   12 1
    22   12   13 1
    23   12   35 1
    24   12   36 1
    25   13   14 1
    26   14   15 1
    27   14   37 1
    28   14   38 1
    29   15   16 1
    30   15   39 1
    31   15   40 1
    32   16   41 1
    33   16   42 1
    34   16   53 1
    35   17   43 1
    36   17   44 1
    37   17   45 1
    38   18   19 2
    39   18   20 1
    40   20   21 1
    41   21   46 1
    42   21   47 1
    43   21   48 1
    44   22   27 ar
    45   22   23 ar
    46   23   24 ar
    47   23   49 1
    48   24   25 ar
    49   24   50 1
    50   25   26 ar
    51   25   51 1
    52   26   27 ar
    53   26   52 1
    54   27   28 1
@<TRIPOS>MOLECULE
ZINC03860825
   53    57     0     0     0
SMALL
USER_CHARGES

@<TRIPOS>ATOM
      1 C1         -0.0173    1.4248    0.0099 C.3       1 <0>         0.0327
      2 O1          0.0021   -0.0041    0.0020 O.3       1 <0>        -0.3479
      3 C2          0.5984   -0.5997   -1.0427 C.2       1 <0>         0.4737
      4 O2          1.0877    0.0699   -1.9214 O.2       1 <0>        -0.5039
      5 C3          0.6575   -2.1036   -1.1196 C.3       1 <0>        -0.0650
      6 H1          1.1947   -2.4917   -0.2542 H         1 <0>         0.1260
      7 C4         -0.7643   -2.6714   -1.1364 C.3       1 <0>         0.1104
      8 H2         -1.2823   -2.3789   -0.2230 H         1 <0>         0.0803
      9 C5         -0.7098   -4.1973   -1.2238 C.3       1 <0>        -0.1531
     10 C6          0.0283   -4.6160   -2.4980 C.3       1 <0>        -0.1090
     11 C7          1.4478   -4.0496   -2.4652 C.3       1 <0>        -0.1066
     12 H3          1.9678   -4.4265   -1.5844 H         1 <0>         0.0984
     13 C8          1.3811   -2.5214   -2.3995 C.3       1 <0>        -0.0762
     14 H4          0.8340   -2.1460   -3.2643 H         1 <0>         0.1112
     15 C9          2.8021   -1.9525   -2.4146 C.3       1 <0>        -0.1520
     16 C10         3.5142   -2.4494   -3.6743 C.3       1 <0>         0.1158
     17 H5          2.9655   -2.1183   -4.5560 H         1 <0>         0.1480
     18 C11         4.9207   -1.9091   -3.7260 C.2       1 <0>         0.0226
     19 C12         5.9775   -2.6629   -4.1115 C.2       1 <0>        -0.1599
     20 C13         7.1508   -1.8219   -4.0411 C.ar      1 <0>        -0.1001
     21 C14         8.5026   -2.0504   -4.3178 C.ar      1 <0>        -0.0652
     22 C15         9.3608   -0.9941   -4.1376 C.ar      1 <0>        -0.1357
     23 C16         8.9212    0.2451   -3.7015 C.ar      1 <0>        -0.0818
     24 C17         7.5903    0.4991   -3.4190 C.ar      1 <0>        -0.1277
     25 C18         6.6952   -0.5542   -3.5938 C.ar      1 <0>         0.1109
     26 N1          5.3444   -0.6471   -3.4127 N.pl3     1 <0>        -0.5612
     27 H6          4.7717    0.0739   -3.1078 H         1 <0>         0.4234
     28 C19         5.8580   -4.1083   -4.5249 C.3       1 <0>        -0.0677
     29 C20         4.3745   -4.4075   -4.7852 C.3       1 <0>        -0.0061
     30 N2          3.5745   -3.9171   -3.6582 N.4       1 <0>        -0.3774
     31 C21         2.2119   -4.4657   -3.7230 C.3       1 <0>         0.0006
     32 O3         -1.4686   -2.1563   -2.2680 O.3       1 <0>        -0.5638
     33 H7          1.0053    1.8021    0.0021 H         1 <0>         0.0628
     34 H8         -0.5445    1.7859   -0.8732 H         1 <0>         0.0656
     35 H9         -0.5275    1.7763    0.9067 H         1 <0>         0.1087
     36 H10        -0.1842   -4.5917   -0.3542 H         1 <0>         0.0829
     37 H11        -1.7242   -4.5957   -1.2448 H         1 <0>         0.0871
     38 H12         0.0713   -5.7038   -2.5532 H         1 <0>         0.0818
     39 H13        -0.4991   -4.2269   -3.3690 H         1 <0>         0.0847
     40 H14         2.7600   -0.8634   -2.4237 H         1 <0>         0.1318
     41 H15         3.3419   -2.2929   -1.5309 H         1 <0>         0.0903
     42 H16         8.8550   -3.0132   -4.6571 H         1 <0>         0.1348
     43 H17        10.4120   -1.1338   -4.3420 H         1 <0>         0.1279
     44 H18         9.6417    1.0401   -3.5774 H         1 <0>         0.1311
     45 H19         7.2605    1.4697   -3.0791 H         1 <0>         0.1352
     46 H20         6.4334   -4.2800   -5.4346 H         1 <0>         0.1209
     47 H21         6.2289   -4.7515   -3.7269 H         1 <0>         0.0998
     48 H22         4.0584   -3.9085   -5.7013 H         1 <0>         0.1319
     49 H23         4.2337   -5.4833   -4.8902 H         1 <0>         0.1399
     50 H24         2.2638   -5.5532   -3.7749 H         1 <0>         0.1399
     51 H25         1.6991   -4.0815   -4.6048 H         1 <0>         0.1347
     52 H26        -2.3787   -2.4743   -2.3430 H         1 <0>         0.3915
     53 H27         4.0031   -4.2176   -2.7956 H         1 <0>         0.4231
@<TRIPOS>BOND
     1    1    2 1
     2    1   33 1
     3    1   34 1
     4    1   35 1
     5    2    3 1
     6    3    4 2
     7    3    5 1
     8    5    6 1
     9    5   13 1
    10    5    7 1
    11    7    8 1
    12    7    9 1
    13    7   32 1
    14    9   10 1
    15    9   36 1
    16    9   37 1
    17   10   11 1
    18   10   38 1
    19   10   39 1
    20   11   12 1
    21   11   31 1
    22   11   13 1
    23   13   14 1
    24   13   15 1
    25   15   16 1
    26   15   40 1
    27   15   41 1
    28   16   17 1
    29   16   30 1
    30   16   18 1
    31   18   26 1
    32   18   19 2
    33   19   20 1
    34   19   28 1
    35   20   25 ar
    36   20   21 ar
    37   21   22 ar
    38   21   42 1
    39   22   23 ar
    40   22   43 1
    41   23   24 ar
    42   23   44 1
    43   24   25 ar
    44   24   45 1
    45   25   26 1
    46   26   27 1
    47   28   29 1
    48   28   46 1
    49   28   47 1
    50   29   30 1
    51   29   48 1
    52   29   49 1
    53   30   31 1
    54   30   53 1
    55   31   50 1
    56   31   51 1
    57   32   52 1
@<TRIPOS>MOLECULE
ZINC21981239
   65    68     0     0     0
SMALL
USER_CHARGES
4-[4-(4-chlorophenyl)-4-hydroxy-1-piperidyl]-N-methyl-2,2-diphenyl-butanamide
@<TRIPOS>ATOM
      1 C1         -0.0855   -1.6023   -3.7609 C.3       1 <0>         0.0833
      2 N1         -0.4220   -0.7797   -2.5964 N.am      1 <0>        -0.7395
      3 C2          0.3089   -0.8777   -1.4682 C.2       1 <0>         0.5134
      4 O1          1.2452   -1.6469   -1.4172 O.2       1 <0>        -0.5125
      5 C3         -0.0372   -0.0315   -0.2703 C.3       1 <0>         0.0266
      6 C4         -1.4630   -0.3499    0.1843 C.3       1 <0>        -0.1369
      7 C5         -1.5965   -1.8544    0.4285 C.3       1 <0>        -0.0220
      8 N2         -2.9985   -2.1804    0.7214 N.4       1 <0>        -0.3936
      9 C6         -3.4255   -1.5760    1.9898 C.3       1 <0>        -0.0052
     10 C7         -4.9241   -1.8129    2.1903 C.3       1 <0>        -0.1281
     11 C8         -5.2007   -3.3189    2.2024 C.3       1 <0>         0.1877
     12 C9         -4.7028   -3.9318    0.8905 C.3       1 <0>        -0.1746
     13 C10        -3.2107   -3.6335    0.7277 C.3       1 <0>         0.0007
     14 C11        -6.6820   -3.5591    2.3403 C.ar      1 <0>        -0.1328
     15 C12        -7.4757   -3.6465    1.2119 C.ar      1 <0>        -0.1020
     16 C13        -8.8335   -3.8725    1.3375 C.ar      1 <0>        -0.1086
     17 C14        -9.4000   -3.9998    2.5933 C.ar      1 <0>        -0.0236
     18 C15        -8.6060   -3.9066    3.7225 C.ar      1 <0>        -0.1072
     19 C16        -7.2474   -3.6862    3.5954 C.ar      1 <0>        -0.0829
     20 Cl1       -11.1063   -4.2771    2.7522 Cl        1 <0>        -0.0522
     21 O2         -4.5148   -3.9216    3.3017 O.3       1 <0>        -0.5800
     22 C17         0.0583    1.4262   -0.6404 C.ar      1 <0>        -0.0900
     23 C18        -1.0131    2.2692   -0.4112 C.ar      1 <0>        -0.1196
     24 C19        -0.9237    3.6073   -0.7463 C.ar      1 <0>        -0.1128
     25 C20         0.2333    4.1004   -1.3199 C.ar      1 <0>        -0.1057
     26 C21         1.3026    3.2563   -1.5543 C.ar      1 <0>        -0.1086
     27 C22         1.2152    1.9192   -1.2144 C.ar      1 <0>        -0.0990
     28 C23         0.9255   -0.3293    0.8502 C.ar      1 <0>        -0.0872
     29 C24         1.5324    0.7075    1.5340 C.ar      1 <0>        -0.0984
     30 C25         2.4118    0.4343    2.5650 C.ar      1 <0>        -0.1172
     31 C26         2.6920   -0.8758    2.9055 C.ar      1 <0>        -0.1048
     32 C27         2.0895   -1.9127    2.2180 C.ar      1 <0>        -0.1213
     33 C28         1.2061   -1.6394    1.1905 C.ar      1 <0>        -0.0966
     34 H1         -0.7882   -1.3849   -4.5788 H         1 <0>         0.0814
     35 H2         -0.1552   -2.6663   -3.4907 H         1 <0>         0.0607
     36 H3          0.9396   -1.3734   -4.0876 H         1 <0>         0.0644
     37 H4         -1.2712   -0.0820   -2.6427 H         1 <0>         0.4214
     38 H5         -1.6809    0.1935    1.1156 H         1 <0>         0.1092
     39 H6         -2.1743   -0.0405   -0.5957 H         1 <0>         0.0991
     40 H7         -1.2726   -2.4017   -0.4690 H         1 <0>         0.1294
     41 H8         -0.9665   -2.1446    1.2822 H         1 <0>         0.1429
     42 H9         -2.8680   -2.0339    2.8202 H         1 <0>         0.1374
     43 H10        -3.2256   -0.4946    1.9663 H         1 <0>         0.1323
     44 H11        -5.2401   -1.3726    3.1475 H         1 <0>         0.1208
     45 H12        -5.4830   -1.3423    1.3680 H         1 <0>         0.1024
     46 H13        -4.8608   -5.0202    0.9111 H         1 <0>         0.1182
     47 H14        -5.2597   -3.4963    0.0477 H         1 <0>         0.0994
     48 H15        -2.8533   -4.0603   -0.2210 H         1 <0>         0.1306
     49 H16        -2.6543   -4.0817    1.5641 H         1 <0>         0.1341
     50 H17        -7.0341   -3.5427    0.2318 H         1 <0>         0.1312
     51 H18        -9.4528   -3.9451    0.4557 H         1 <0>         0.1387
     52 H19        -9.0476   -4.0062    4.7030 H         1 <0>         0.1398
     53 H20        -6.6275   -3.6138    4.4767 H         1 <0>         0.1406
     54 H21        -4.5955   -5.0052    3.4730 H         1 <0>         0.4267
     55 H22        -1.9186    1.8831    0.0331 H         1 <0>         0.1234
     56 H23        -1.7593    4.2668   -0.5635 H         1 <0>         0.1284
     57 H24         0.3018    5.1451   -1.5851 H         1 <0>         0.1289
     58 H25         2.2065    3.6415   -2.0028 H         1 <0>         0.1289
     59 H26         2.0506    1.2597   -1.3976 H         1 <0>         0.1219
     60 H27         1.3165    1.7310    1.2653 H         1 <0>         0.1271
     61 H28         2.8828    1.2444    3.1019 H         1 <0>         0.1270
     62 H29         3.3820   -1.0892    3.7086 H         1 <0>         0.1266
     63 H30         2.3088   -2.9362    2.4838 H         1 <0>         0.1251
     64 H31         0.7354   -2.4495    0.6533 H         1 <0>         0.1194
     65 H32        -3.6206   -1.7541   -0.0794 H         1 <0>         0.4340
@<TRIPOS>BOND
     1    1    2 1
     2    1   34 1
     3    1   35 1
     4    1   36 1
     5    2    3 am
     6    2   37 1
     7    3    4 2
     8    3    5 1
     9    5    6 1
    10    5   22 1
    11    5   28 1
    12    6    7 1
    13    6   38 1
    14    6   39 1
    15    7    8 1
    16    7   40 1
    17    7   41 1
    18    8   13 1
    19    8    9 1
    20    8   65 1
    21    9   10 1
    22    9   42 1
    23    9   43 1
    24   10   11 1
    25   10   44 1
    26   10   45 1
    27   11   12 1
    28   11   14 1
    29   11   21 1
    30   12   13 1
    31   12   46 1
    32   12   47 1
    33   13   48 1
    34   13   49 1
    35   14   19 ar
    36   14   15 ar
    37   15   16 ar
    38   15   50 1
    39   16   17 ar
    40   16   51 1
    41   17   18 ar
    42   17   20 1
    43   18   19 ar
    44   18   52 1
    45   19   53 1
    46   21   54 1
    47   22   27 ar
    48   22   23 ar
    49   23   24 ar
    50   23   55 1
    51   24   25 ar
    52   24   56 1
    53   25   26 ar
    54   25   57 1
    55   26   27 ar
    56   26   58 1
    57   27   59 1
    58   28   33 ar
    59   28   29 ar
    60   29   30 ar
    61   29   60 1
    62   30   31 ar
    63   30   61 1
    64   31   32 ar
    65   31   62 1
    66   32   33 ar
    67   32   63 1
    68   33   64 1
@<TRIPOS>MOLECULE
ZINC01491952
   33    35     0     0     0
SMALL
USER_CHARGES
2-(3,4-dihydro-1H-isoquinolin-2-yl)pyridin-4-amine
@<TRIPOS>ATOM
      1 C1         -6.7942    6.1264    1.4284 C.ar      1 <0>        -0.1038
      2 C2         -6.6935    4.9246    2.1045 C.ar      1 <0>        -0.1121
      3 C3         -5.5343    4.1809    2.0157 C.ar      1 <0>        -0.1062
      4 C4         -4.4683    4.6319    1.2508 C.ar      1 <0>        -0.1015
      5 C5         -4.5706    5.8284    0.5743 C.ar      1 <0>        -0.0764
      6 C6         -5.7349    6.5760    0.6660 C.ar      1 <0>        -0.1133
      7 C7         -3.4439    6.3543   -0.2776 C.3       1 <0>        -0.0743
      8 C8         -2.1430    5.6324    0.0745 C.3       1 <0>         0.0215
      9 N1         -2.3912    4.1822    0.0470 N.pl3     1 <0>        -0.4733
     10 C9         -3.2227    3.7874    1.1884 C.3       1 <0>         0.1031
     11 C10        -1.1958    3.4723    0.0322 C.ar      1 <0>         0.3970
     12 C11        -1.2211    2.0843    0.0191 C.ar      1 <0>        -0.2390
     13 C12        -0.0168    1.3878    0.0097 C.ar      1 <0>         0.3457
     14 C13         1.1729    2.1198    0.0022 C.ar      1 <0>        -0.2169
     15 C14         1.1161    3.4959    0.0102 C.ar      1 <0>         0.1807
     16 N2          0.0021   -0.0041    0.0020 N.pl3     1 <0>        -0.8077
     17 H1         -7.6990    6.7121    1.4969 H         1 <0>         0.1309
     18 H2         -7.5206    4.5684    2.7007 H         1 <0>         0.1312
     19 H3         -5.4566    3.2426    2.5447 H         1 <0>         0.1273
     20 H4         -5.8135    7.5148    0.1378 H         1 <0>         0.1289
     21 H5         -3.6771    6.1876   -1.3292 H         1 <0>         0.0961
     22 H6         -3.3231    7.4227   -0.0986 H         1 <0>         0.0998
     23 H7         -1.8178    5.9295    1.0716 H         1 <0>         0.0785
     24 H8         -1.3741    5.8863   -0.6553 H         1 <0>         0.0947
     25 H9         -3.5035    2.7394    1.0834 H         1 <0>         0.1114
     26 H10        -2.6543    3.9169    2.1094 H         1 <0>         0.0774
     27 H11        -2.1615    1.5532    0.0202 H         1 <0>         0.1789
     28 H12         2.1263    1.6125   -0.0100 H         1 <0>         0.1808
     29 H13         2.0329    4.0666    0.0049 H         1 <0>         0.1948
     30 H14         0.8486   -0.4776   -0.0086 H         1 <0>         0.4241
     31 H15        -0.8313   -0.5005    0.0073 H         1 <0>         0.4231
     32 N3         -0.0446    4.2078    0.0251 N.ar      1 <0>        -0.5663
     33 H16        -0.0540    5.2345    0.0308 H         1 <0>         0.4648
@<TRIPOS>BOND
     1    1    6 ar
     2    1    2 ar
     3    1   17 1
     4    2    3 ar
     5    2   18 1
     6    3    4 ar
     7    3   19 1
     8    4   10 1
     9    4    5 ar
    10    5    6 ar
    11    5    7 1
    12    6   20 1
    13    7    8 1
    14    7   21 1
    15    7   22 1
    16    8    9 1
    17    8   23 1
    18    8   24 1
    19    9   10 1
    20    9   11 1
    21   10   25 1
    22   10   26 1
    23   11   12 ar
    24   11   32 ar
    25   12   13 ar
    26   12   27 1
    27   13   14 ar
    28   13   16 1
    29   14   15 ar
    30   14   28 1
    31   15   29 1
    32   15   32 ar
    33   16   30 1
    34   16   31 1
    35   32   33 1
@<TRIPOS>MOLECULE
ZINC13488071
   36    38     0     0     0
SMALL
USER_CHARGES
2-(3,4-dihydro-1H-isoquinolin-2-yl)-5-methyl-pyridin-4-amine
@<TRIPOS>ATOM
      1 C1          3.7106    2.0397   -0.0229 C.3       1 <0>        -0.1144
      2 C2          2.3770    1.3379   -0.0139 C.ar      1 <0>        -0.1765
      3 C3          2.3138   -0.0384   -0.0202 C.ar      1 <0>         0.1708
      4 C4          0.0021   -0.0041    0.0020 C.ar      1 <0>         0.3938
      5 C5         -0.0167    1.3836    0.0096 C.ar      1 <0>        -0.2353
      6 C6          1.1910    2.0750    0.0018 C.ar      1 <0>         0.3463
      7 N1          1.2163    3.4667    0.0086 N.pl3     1 <0>        -0.8074
      8 N2         -1.1966   -0.7086    0.0092 N.pl3     1 <0>        -0.4729
      9 C7         -0.9554   -2.1599   -0.0233 C.3       1 <0>         0.0216
     10 C8         -2.2529   -2.8760    0.3527 C.3       1 <0>        -0.0742
     11 C9         -3.3928   -2.3447   -0.4779 C.ar      1 <0>        -0.0764
     12 C10        -4.5620   -3.0871   -0.5482 C.ar      1 <0>        -0.1133
     13 C11        -5.6332   -2.6324   -1.2907 C.ar      1 <0>        -0.1040
     14 C12        -5.5397   -1.4309   -1.9683 C.ar      1 <0>        -0.1121
     15 C13        -4.3757   -0.6925   -1.9008 C.ar      1 <0>        -0.1063
     16 C14        -3.2977   -1.1485   -1.1559 C.ar      1 <0>        -0.1011
     17 C15        -2.0473   -0.3096   -1.1164 C.3       1 <0>         0.1029
     18 H1          4.0225    2.2141   -1.0526 H         1 <0>         0.0911
     19 H2          3.6225    2.9939    0.4966 H         1 <0>         0.0797
     20 H3          4.4514    1.4187    0.4809 H         1 <0>         0.0911
     21 H4          3.2280   -0.6133   -0.0321 H         1 <0>         0.1933
     22 H5         -0.9547    1.9190    0.0170 H         1 <0>         0.1799
     23 H6          0.3852    3.9668    0.0189 H         1 <0>         0.4231
     24 H7          2.0649    3.9364    0.0030 H         1 <0>         0.4224
     25 H8         -0.6502   -2.4581   -1.0263 H         1 <0>         0.0782
     26 H9         -0.1744   -2.4175    0.6920 H         1 <0>         0.0944
     27 H10        -2.4658   -2.7087    1.4086 H         1 <0>         0.0961
     28 H11        -2.1403   -3.9449    0.1712 H         1 <0>         0.0997
     29 H12        -4.6350   -4.0257   -0.0189 H         1 <0>         0.1288
     30 H13        -6.5418   -3.2140   -1.3425 H         1 <0>         0.1309
     31 H14        -6.3761   -1.0707   -2.5489 H         1 <0>         0.1312
     32 H15        -4.3035    0.2458   -2.4309 H         1 <0>         0.1272
     33 H16        -2.3214    0.7396   -1.0059 H         1 <0>         0.1112
     34 H17        -1.4968   -0.4414   -2.0478 H         1 <0>         0.0771
     35 N3          1.1502   -0.7449   -0.0129 N.ar      1 <0>        -0.5616
     36 H18         1.1361   -1.7715   -0.0183 H         1 <0>         0.4648
@<TRIPOS>BOND
     1    1    2 1
     2    1   18 1
     3    1   19 1
     4    1   20 1
     5    2    6 ar
     6    2    3 ar
     7    3   21 1
     8    3   35 ar
     9    4    5 ar
    10    4    8 1
    11    4   35 ar
    12    5    6 ar
    13    5   22 1
    14    6    7 1
    15    7   23 1
    16    7   24 1
    17    8   17 1
    18    8    9 1
    19    9   10 1
    20    9   25 1
    21    9   26 1
    22   10   11 1
    23   10   27 1
    24   10   28 1
    25   11   16 ar
    26   11   12 ar
    27   12   13 ar
    28   12   29 1
    29   13   14 ar
    30   13   30 1
    31   14   15 ar
    32   14   31 1
    33   15   16 ar
    34   15   32 1
    35   16   17 1
    36   17   33 1
    37   17   34 1
    38   35   36 1
@<TRIPOS>MOLECULE
ZINC03812892
   77    80     0     0     0
SMALL
USER_CHARGES

@<TRIPOS>ATOM
      1 C1         -5.6570   -1.8380   -5.8329 C.3       1 <0>        -0.1410
      2 C2         -5.2316   -3.3070   -5.7878 C.3       1 <0>        -0.0339
      3 C3         -5.1149   -3.7596   -4.3310 C.3       1 <0>        -0.1396
      4 C4         -6.2769   -4.1630   -6.5057 C.3       1 <0>        -0.1471
      5 C5         -3.8977   -3.4648   -6.4712 C.ar      1 <0>        -0.0573
      6 C6         -3.7802   -4.2876   -7.5758 C.ar      1 <0>        -0.1168
      7 C7         -2.5567   -4.4324   -8.2027 C.ar      1 <0>        -0.1067
      8 C8         -1.4508   -3.7541   -7.7253 C.ar      1 <0>        -0.1350
      9 C9         -1.5686   -2.9306   -6.6212 C.ar      1 <0>        -0.1088
     10 C10        -2.7930   -2.7825   -5.9969 C.ar      1 <0>        -0.1103
     11 C11        -0.1168   -3.9128   -8.4081 C.3       1 <0>         0.1533
     12 H1         -0.2727   -4.2002   -9.4478 H         1 <0>         0.1093
     13 C12         0.6951   -4.9963   -7.6956 C.3       1 <0>        -0.1445
     14 C13         1.9961   -5.2452   -8.4615 C.3       1 <0>        -0.1465
     15 C14         2.8080   -6.3287   -7.7490 C.3       1 <0>        -0.0105
     16 N1          4.0571   -6.5677   -8.4843 N.4       1 <0>        -0.3824
     17 C15         4.8871   -5.3578   -8.4420 C.3       1 <0>        -0.0079
     18 C16         6.1529   -5.5737   -9.2743 C.3       1 <0>        -0.1472
     19 C17         6.9399   -6.7549   -8.6994 C.3       1 <0>        -0.1198
     20 C18         6.0400   -7.9939   -8.6795 C.3       1 <0>        -0.1384
     21 C19         4.7784   -7.6883   -7.8693 C.3       1 <0>        -0.0058
     22 C20         8.1658   -7.0269   -9.5736 C.3       1 <0>         0.2364
     23 C21         9.0396   -5.7996   -9.6092 C.ar      1 <0>        -0.1208
     24 C22         9.4143   -5.1835   -8.4299 C.ar      1 <0>        -0.1129
     25 C23        10.2158   -4.0577   -8.4626 C.ar      1 <0>        -0.1158
     26 C24        10.6430   -3.5483   -9.6747 C.ar      1 <0>        -0.1101
     27 C25        10.2690   -4.1651  -10.8540 C.ar      1 <0>        -0.1131
     28 C26         9.4710   -5.2933  -10.8210 C.ar      1 <0>        -0.1068
     29 C27         8.9453   -8.1821   -9.0001 C.ar      1 <0>        -0.0827
     30 C28         9.3013   -8.1805   -7.6644 C.ar      1 <0>        -0.1158
     31 C29        10.0164   -9.2401   -7.1384 C.ar      1 <0>        -0.1179
     32 C30        10.3751  -10.3016   -7.9480 C.ar      1 <0>        -0.1104
     33 C31        10.0184  -10.3036   -9.2835 C.ar      1 <0>        -0.1181
     34 C32         9.2996   -9.2460   -9.8085 C.ar      1 <0>        -0.0910
     35 O1          7.7429   -7.3493  -10.8999 O.3       1 <0>        -0.5409
     36 O2          0.5943   -2.6743   -8.3578 O.3       1 <0>        -0.5537
     37 H2         -4.9123   -1.2282   -5.3215 H         1 <0>         0.0572
     38 H3         -5.7401   -1.5155   -6.8708 H         1 <0>         0.0574
     39 H4         -6.6218   -1.7238   -5.3387 H         1 <0>         0.0630
     40 H5         -6.0797   -3.6455   -3.8367 H         1 <0>         0.0629
     41 H6         -4.8118   -4.8062   -4.2989 H         1 <0>         0.0558
     42 H7         -4.3702   -3.1498   -3.8196 H         1 <0>         0.0568
     43 H8         -6.3600   -3.8405   -7.5436 H         1 <0>         0.0596
     44 H9         -5.9738   -5.2095   -6.4736 H         1 <0>         0.0586
     45 H10        -7.2417   -4.0488   -6.0114 H         1 <0>         0.0628
     46 H11        -4.6441   -4.8176   -7.9488 H         1 <0>         0.1307
     47 H12        -2.4646   -5.0758   -9.0653 H         1 <0>         0.1217
     48 H13        -0.7046   -2.4010   -6.2480 H         1 <0>         0.1176
     49 H14        -2.8859   -2.1362   -5.1366 H         1 <0>         0.1244
     50 H15         0.9270   -4.6692   -6.6821 H         1 <0>         0.0787
     51 H16         0.1148   -5.9182   -7.6560 H         1 <0>         0.0860
     52 H17         1.7641   -5.5723   -9.4750 H         1 <0>         0.0879
     53 H18         2.5764   -4.3234   -8.5011 H         1 <0>         0.0944
     54 H19         3.0399   -6.0016   -6.7355 H         1 <0>         0.1285
     55 H20         2.2277   -7.2506   -7.7094 H         1 <0>         0.1306
     56 H21         4.3245   -4.5174   -8.8485 H         1 <0>         0.1351
     57 H22         5.1637   -5.1434   -7.4097 H         1 <0>         0.1288
     58 H23         5.8774   -5.7879  -10.3069 H         1 <0>         0.0889
     59 H24         6.7686   -4.6749   -9.2401 H         1 <0>         0.1173
     60 H25         7.2596   -6.5203   -7.6841 H         1 <0>         0.1001
     61 H26         5.7622   -8.2584   -9.6998 H         1 <0>         0.0971
     62 H27         6.5751   -8.8251   -8.2202 H         1 <0>         0.1150
     63 H28         5.0574   -7.4243   -6.8492 H         1 <0>         0.1274
     64 H29         4.1356   -8.5685   -7.8530 H         1 <0>         0.1314
     65 H30         9.0806   -5.5814   -7.4830 H         1 <0>         0.1196
     66 H31        10.5080   -3.5759   -7.5413 H         1 <0>         0.1259
     67 H32        11.2686   -2.6684   -9.7003 H         1 <0>         0.1266
     68 H33        10.6025   -3.7669  -11.8009 H         1 <0>         0.1271
     69 H34         9.1819   -5.7773  -11.7422 H         1 <0>         0.1293
     70 H35         9.0210   -7.3512   -7.0319 H         1 <0>         0.1189
     71 H36        10.2951   -9.2385   -6.0950 H         1 <0>         0.1260
     72 H37        10.9345  -11.1291   -7.5372 H         1 <0>         0.1261
     73 H38        10.2990  -11.1328   -9.9161 H         1 <0>         0.1265
     74 H39         9.0176   -9.2493  -10.8511 H         1 <0>         0.1327
     75 H40         7.2342   -6.6493  -11.3316 H         1 <0>         0.3777
     76 H41         0.7687   -2.3570   -7.4611 H         1 <0>         0.3762
     77 H42         3.8432   -6.7930   -9.4443 H         1 <0>         0.4225
@<TRIPOS>BOND
     1    1    2 1
     2    1   37 1
     3    1   38 1
     4    1   39 1
     5    2    3 1
     6    2    4 1
     7    2    5 1
     8    3   40 1
     9    3   41 1
    10    3   42 1
    11    4   43 1
    12    4   44 1
    13    4   45 1
    14    5   10 ar
    15    5    6 ar
    16    6    7 ar
    17    6   46 1
    18    7    8 ar
    19    7   47 1
    20    8    9 ar
    21    8   11 1
    22    9   10 ar
    23    9   48 1
    24   10   49 1
    25   11   12 1
    26   11   13 1
    27   11   36 1
    28   13   14 1
    29   13   50 1
    30   13   51 1
    31   14   15 1
    32   14   52 1
    33   14   53 1
    34   15   16 1
    35   15   54 1
    36   15   55 1
    37   16   21 1
    38   16   17 1
    39   16   77 1
    40   17   18 1
    41   17   56 1
    42   17   57 1
    43   18   19 1
    44   18   58 1
    45   18   59 1
    46   19   20 1
    47   19   22 1
    48   19   60 1
    49   20   21 1
    50   20   61 1
    51   20   62 1
    52   21   63 1
    53   21   64 1
    54   22   23 1
    55   22   29 1
    56   22   35 1
    57   23   28 ar
    58   23   24 ar
    59   24   25 ar
    60   24   65 1
    61   25   26 ar
    62   25   66 1
    63   26   27 ar
    64   26   67 1
    65   27   28 ar
    66   27   68 1
    67   28   69 1
    68   29   34 ar
    69   29   30 ar
    70   30   31 ar
    71   30   70 1
    72   31   32 ar
    73   31   71 1
    74   32   33 ar
    75   32   72 1
    76   33   34 ar
    77   33   73 1
    78   34   74 1
    79   35   75 1
    80   36   76 1
@<TRIPOS>MOLECULE
ZINC03831511
   77    80     0     0     0
SMALL
USER_CHARGES

@<TRIPOS>ATOM
      1 C1          8.5157   -0.1133    0.5257 C.3       1 <0>        -0.1396
      2 C2          8.2329   -1.6122    0.4070 C.3       1 <0>        -0.0339
      3 C3          9.4003   -2.4003    1.0044 C.3       1 <0>        -0.1410
      4 C4          6.9480   -1.9504    1.1657 C.3       1 <0>        -0.1471
      5 C5          8.0700   -1.9792   -1.0455 C.ar      1 <0>        -0.0570
      6 C6          6.8812   -2.5261   -1.4911 C.ar      1 <0>        -0.1171
      7 C7          6.7318   -2.8628   -2.8235 C.ar      1 <0>        -0.1058
      8 C8          7.7711   -2.6522   -3.7103 C.ar      1 <0>        -0.1351
      9 C9          8.9595   -2.1045   -3.2649 C.ar      1 <0>        -0.1088
     10 C10         9.1074   -1.7638   -1.9334 C.ar      1 <0>        -0.1105
     11 C11         7.6085   -3.0201   -5.1627 C.3       1 <0>         0.1534
     12 H1          6.7941   -3.7370   -5.2669 H         1 <0>         0.1083
     13 C12         7.2888   -1.7633   -5.9745 C.3       1 <0>        -0.1447
     14 C13         7.0011   -2.1531   -7.4258 C.3       1 <0>        -0.1461
     15 C14         6.6814   -0.8963   -8.2376 C.3       1 <0>        -0.0105
     16 N1          6.4052   -1.2705   -9.6310 N.4       1 <0>        -0.3824
     17 C15         5.1925   -2.0957   -9.6833 C.3       1 <0>        -0.0077
     18 C16         4.9455   -2.5556  -11.1217 C.3       1 <0>        -0.1474
     19 C17         4.7691   -1.3287  -12.0210 C.3       1 <0>        -0.1197
     20 C18         6.0089   -0.4378  -11.9013 C.3       1 <0>        -0.1385
     21 C19         6.2165   -0.0564  -10.4340 C.3       1 <0>        -0.0057
     22 C20         4.6009   -1.7789  -13.4735 C.3       1 <0>         0.2363
     23 C21         3.3927   -2.6726  -13.5857 C.ar      1 <0>        -0.1208
     24 C22         2.1799   -2.2641  -13.0630 C.ar      1 <0>        -0.1130
     25 C23         1.0716   -3.0839  -13.1659 C.ar      1 <0>        -0.1159
     26 C24         1.1760   -4.3120  -13.7919 C.ar      1 <0>        -0.1102
     27 C25         2.3886   -4.7200  -14.3155 C.ar      1 <0>        -0.1131
     28 C26         3.4958   -3.8984  -14.2163 C.ar      1 <0>        -0.1068
     29 C27         4.4159   -0.5710  -14.3556 C.ar      1 <0>        -0.0827
     30 C28         3.4639    0.3789  -14.0360 C.ar      1 <0>        -0.1158
     31 C29         3.2942    1.4868  -14.8450 C.ar      1 <0>        -0.1179
     32 C30         4.0769    1.6450  -15.9735 C.ar      1 <0>        -0.1103
     33 C31         5.0295    0.6955  -16.2925 C.ar      1 <0>        -0.1181
     34 C32         5.2021   -0.4102  -15.4811 C.ar      1 <0>        -0.0909
     35 O1          5.7648   -2.4972  -13.8874 O.3       1 <0>        -0.5409
     36 O2          8.8208   -3.6031   -5.6449 O.3       1 <0>        -0.5535
     37 H2          9.4311    0.1277   -0.0148 H         1 <0>         0.0568
     38 H3          7.6840    0.4482    0.1001 H         1 <0>         0.0558
     39 H4          8.6335    0.1522    1.5763 H         1 <0>         0.0630
     40 H5          9.5181   -2.1349    2.0550 H         1 <0>         0.0630
     41 H6          9.1989   -3.4682    0.9199 H         1 <0>         0.0575
     42 H7         10.3157   -2.1594    0.4639 H         1 <0>         0.0572
     43 H8          6.1163   -1.3889    0.7401 H         1 <0>         0.0585
     44 H9          6.7465   -3.0183    1.0812 H         1 <0>         0.0596
     45 H10         7.0658   -1.6849    2.2163 H         1 <0>         0.0628
     46 H11         6.0693   -2.6907   -0.7982 H         1 <0>         0.1306
     47 H12         5.8033   -3.2907   -3.1715 H         1 <0>         0.1216
     48 H13         9.7716   -1.9402   -3.9577 H         1 <0>         0.1174
     49 H14        10.0346   -1.3325   -1.5861 H         1 <0>         0.1245
     50 H15         6.4142   -1.2698   -5.5507 H         1 <0>         0.0854
     51 H16         8.1405   -1.0838   -5.9427 H         1 <0>         0.0792
     52 H17         7.8757   -2.6466   -7.8496 H         1 <0>         0.0944
     53 H18         6.1495   -2.8326   -7.4575 H         1 <0>         0.0876
     54 H19         5.8068   -0.4027   -7.8138 H         1 <0>         0.1286
     55 H20         7.5331   -0.2168   -8.2059 H         1 <0>         0.1305
     56 H21         5.3183   -2.9669   -9.0404 H         1 <0>         0.1340
     57 H22         4.3402   -1.5105   -9.3380 H         1 <0>         0.1290
     58 H23         5.7972   -3.1412  -11.4679 H         1 <0>         0.0892
     59 H24         4.0437   -3.1667  -11.1587 H         1 <0>         0.1172
     60 H25         3.8873   -0.7703  -11.7068 H         1 <0>         0.1001
     61 H26         6.8827   -0.9794  -12.2637 H         1 <0>         0.0972
     62 H27         5.8672    0.4650  -12.4955 H         1 <0>         0.1151
     63 H28         5.3424    0.4854  -10.0727 H         1 <0>         0.1274
     64 H29         7.0983    0.5781  -10.3452 H         1 <0>         0.1315
     65 H30         2.0983   -1.3047  -12.5739 H         1 <0>         0.1196
     66 H31         0.1243   -2.7651  -12.7569 H         1 <0>         0.1258
     67 H32         0.3103   -4.9527  -13.8717 H         1 <0>         0.1266
     68 H33         2.4702   -5.6796  -14.8043 H         1 <0>         0.1272
     69 H34         4.4423   -4.2156  -14.6286 H         1 <0>         0.1294
     70 H35         2.8524    0.2553  -13.1544 H         1 <0>         0.1188
     71 H36         2.5499    2.2287  -14.5958 H         1 <0>         0.1260
     72 H37         3.9438    2.5103  -16.6060 H         1 <0>         0.1261
     73 H38         5.6408    0.8189  -17.1743 H         1 <0>         0.1265
     74 H39         5.9489   -1.1502  -15.7284 H         1 <0>         0.1327
     75 H40         5.9458   -3.2889  -13.3624 H         1 <0>         0.3777
     76 H41         9.5897   -3.0199   -5.5826 H         1 <0>         0.3768
     77 H42         7.1840   -1.7972   -9.9974 H         1 <0>         0.4229
@<TRIPOS>BOND
     1    1    2 1
     2    1   37 1
     3    1   38 1
     4    1   39 1
     5    2    3 1
     6    2    4 1
     7    2    5 1
     8    3   40 1
     9    3   41 1
    10    3   42 1
    11    4   43 1
    12    4   44 1
    13    4   45 1
    14    5   10 ar
    15    5    6 ar
    16    6    7 ar
    17    6   46 1
    18    7    8 ar
    19    7   47 1
    20    8    9 ar
    21    8   11 1
    22    9   10 ar
    23    9   48 1
    24   10   49 1
    25   11   12 1
    26   11   13 1
    27   11   36 1
    28   13   14 1
    29   13   50 1
    30   13   51 1
    31   14   15 1
    32   14   52 1
    33   14   53 1
    34   15   16 1
    35   15   54 1
    36   15   55 1
    37   16   21 1
    38   16   17 1
    39   16   77 1
    40   17   18 1
    41   17   56 1
    42   17   57 1
    43   18   19 1
    44   18   58 1
    45   18   59 1
    46   19   20 1
    47   19   22 1
    48   19   60 1
    49   20   21 1
    50   20   61 1
    51   20   62 1
    52   21   63 1
    53   21   64 1
    54   22   23 1
    55   22   29 1
    56   22   35 1
    57   23   28 ar
    58   23   24 ar
    59   24   25 ar
    60   24   65 1
    61   25   26 ar
    62   25   66 1
    63   26   27 ar
    64   26   67 1
    65   27   28 ar
    66   27   68 1
    67   28   69 1
    68   29   34 ar
    69   29   30 ar
    70   30   31 ar
    71   30   70 1
    72   31   32 ar
    73   31   71 1
    74   32   33 ar
    75   32   72 1
    76   33   34 ar
    77   33   73 1
    78   34   74 1
    79   35   75 1
    80   36   76 1
@<TRIPOS>MOLECULE
ZINC03775140
   62    64     0     0     0
SMALL
USER_CHARGES

@<TRIPOS>ATOM
      1 C1         -0.0173    1.4248    0.0099 C.3       1 <0>         0.0171
      2 O1          0.0021   -0.0041    0.0020 O.3       1 <0>        -0.2760
      3 C2          0.6048   -0.6061   -1.0540 C.ar      1 <0>         0.2490
      4 C3          1.1714    0.1577   -2.0595 C.ar      1 <0>        -0.2968
      5 C4          1.7875   -0.4643   -3.1379 C.ar      1 <0>         0.3045
      6 C5          1.8368   -1.8562   -3.2112 C.ar      1 <0>        -0.1599
      7 C6          1.2804   -2.6188   -2.2247 C.ar      1 <0>         0.0104
      8 C7          0.6619   -2.0064   -1.1291 C.ar      1 <0>        -0.2378
      9 C8          0.0677   -2.8282   -0.0619 C.2       1 <0>         0.5777
     10 O2         -0.4739   -2.2937    0.8871 O.2       1 <0>        -0.5075
     11 N1          0.1238   -4.1727   -0.1363 N.am      1 <0>        -0.7330
     12 C9         -0.4675   -4.9905    0.9257 C.3       1 <0>         0.1404
     13 H1         -1.3642   -4.5012    1.3060 H         1 <0>         0.1248
     14 C10         0.5437   -5.1622    2.0629 C.3       1 <0>        -0.1546
     15 C11         1.7671   -5.9184    1.5404 C.3       1 <0>        -0.0167
     16 N2          1.3566   -7.2378    1.0453 N.4       1 <0>        -0.3759
     17 C12         0.4423   -7.0806   -0.0921 C.3       1 <0>        -0.0388
     18 C13        -0.8339   -6.3685    0.3670 C.3       1 <0>         0.0659
     19 H2         -1.3203   -6.9585    1.1438 H         1 <0>         0.1015
     20 O3         -1.7219   -6.2131   -0.7418 O.3       1 <0>        -0.3502
     21 C14        -2.6322   -7.3011   -0.9143 C.3       1 <0>         0.0179
     22 C15         2.5438   -7.9895    0.6171 C.3       1 <0>        -0.0062
     23 C16         3.4343   -8.2703    1.8292 C.3       1 <0>        -0.1507
     24 C17         4.6708   -9.0533    1.3832 C.3       1 <0>         0.0614
     25 O4          5.5024   -9.3155    2.5152 O.3       1 <0>        -0.3099
     26 C18         6.6507  -10.0076    2.2904 C.ar      1 <0>         0.1104
     27 C19         6.9722  -10.4203    1.0058 C.ar      1 <0>        -0.1786
     28 C20         8.1394  -11.1237    0.7787 C.ar      1 <0>        -0.1136
     29 C21         8.9878  -11.4170    1.8328 C.ar      1 <0>         0.0730
     30 C22         8.6679  -11.0061    3.1156 C.ar      1 <0>        -0.1109
     31 C23         7.5046  -10.2969    3.3445 C.ar      1 <0>        -0.1156
     32 F1         10.1287  -12.1053    1.6094 F         1 <0>        -0.1339
     33 Cl1         2.6089   -2.6229   -4.5639 Cl        1 <0>        -0.0623
     34 N3          2.3569    0.3038   -4.1485 N.pl3     1 <0>        -0.8495
     35 H3          1.0053    1.8021    0.0021 H         1 <0>         0.0609
     36 H4         -0.5445    1.7859   -0.8732 H         1 <0>         0.0614
     37 H5         -0.5275    1.7763    0.9067 H         1 <0>         0.1085
     38 H6          1.1342    1.2357   -2.0059 H         1 <0>         0.1464
     39 H7          1.3215   -3.6961   -2.2880 H         1 <0>         0.1333
     40 H8          0.5557   -4.5989   -0.8931 H         1 <0>         0.3942
     41 H9          0.8503   -4.1821    2.4284 H         1 <0>         0.1283
     42 H10         0.0859   -5.7273    2.8748 H         1 <0>         0.1026
     43 H11         2.2242   -5.3523    0.7288 H         1 <0>         0.1317
     44 H12         2.4891   -6.0421    2.3475 H         1 <0>         0.1399
     45 H13         0.9276   -6.4898   -0.8690 H         1 <0>         0.1341
     46 H14         0.1862   -8.0624   -0.4903 H         1 <0>         0.1380
     47 H15        -2.0715   -8.2215   -1.0778 H         1 <0>         0.0481
     48 H16        -3.2481   -7.4047   -0.0210 H         1 <0>         0.0566
     49 H17        -3.2712   -7.1071   -1.7758 H         1 <0>         0.1042
     50 H18         2.2339   -8.9329    0.1676 H         1 <0>         0.1368
     51 H19         3.1003   -7.4039   -0.1147 H         1 <0>         0.1356
     52 H20         3.7442   -7.3269    2.2786 H         1 <0>         0.1012
     53 H21         2.8778   -8.8559    2.5610 H         1 <0>         0.1013
     54 H22         4.3608   -9.9967    0.9337 H         1 <0>         0.0740
     55 H23         5.2272   -8.4676    0.6514 H         1 <0>         0.0740
     56 H24         6.3103  -10.1922    0.1835 H         1 <0>         0.1353
     57 H25         8.3900  -11.4451   -0.2214 H         1 <0>         0.1422
     58 H26         9.3304  -11.2359    3.9370 H         1 <0>         0.1482
     59 H27         7.2577   -9.9722    4.3445 H         1 <0>         0.1439
     60 H28         2.3233    1.2719   -4.0992 H         1 <0>         0.4097
     61 H29         2.7876   -0.1289   -4.9023 H         1 <0>         0.4089
     62 H30         0.8896   -7.7426    1.7837 H         1 <0>         0.4252
@<TRIPOS>BOND
     1    1    2 1
     2    1   35 1
     3    1   36 1
     4    1   37 1
     5    2    3 1
     6    3    8 ar
     7    3    4 ar
     8    4    5 ar
     9    4   38 1
    10    5    6 ar
    11    5   34 1
    12    6    7 ar
    13    6   33 1
    14    7    8 ar
    15    7   39 1
    16    8    9 1
    17    9   10 2
    18    9   11 am
    19   11   12 1
    20   11   40 1
    21   12   13 1
    22   12   18 1
    23   12   14 1
    24   14   15 1
    25   14   41 1
    26   14   42 1
    27   15   16 1
    28   15   43 1
    29   15   44 1
    30   16   17 1
    31   16   22 1
    32   16   62 1
    33   17   18 1
    34   17   45 1
    35   17   46 1
    36   18   19 1
    37   18   20 1
    38   20   21 1
    39   21   47 1
    40   21   48 1
    41   21   49 1
    42   22   23 1
    43   22   50 1
    44   22   51 1
    45   23   24 1
    46   23   52 1
    47   23   53 1
    48   24   25 1
    49   24   54 1
    50   24   55 1
    51   25   26 1
    52   26   31 ar
    53   26   27 ar
    54   27   28 ar
    55   27   56 1
    56   28   29 ar
    57   28   57 1
    58   29   30 ar
    59   29   32 1
    60   30   31 ar
    61   30   58 1
    62   31   59 1
    63   34   60 1
    64   34   61 1
@<TRIPOS>MOLECULE
ZINC03830564
   62    64     0     0     0
SMALL
USER_CHARGES

@<TRIPOS>ATOM
      1 C1         -0.0173    1.4248    0.0099 C.3       1 <0>         0.0173
      2 O1          0.0021   -0.0041    0.0020 O.3       1 <0>        -0.2768
      3 C2          0.6048   -0.6061   -1.0540 C.ar      1 <0>         0.2482
      4 C3          1.1714    0.1577   -2.0595 C.ar      1 <0>        -0.2974
      5 C4          1.7875   -0.4643   -3.1379 C.ar      1 <0>         0.3044
      6 C5          1.8368   -1.8562   -3.2112 C.ar      1 <0>        -0.1594
      7 C6          1.2804   -2.6188   -2.2247 C.ar      1 <0>         0.0124
      8 C7          0.6619   -2.0064   -1.1291 C.ar      1 <0>        -0.2376
      9 C8          0.0677   -2.8282   -0.0619 C.2       1 <0>         0.5803
     10 O2         -0.4739   -2.2937    0.8871 O.2       1 <0>        -0.5144
     11 N1          0.1238   -4.1727   -0.1363 N.am      1 <0>        -0.7279
     12 C9         -0.4675   -4.9905    0.9257 C.3       1 <0>         0.1426
     13 H1         -0.3382   -4.4904    1.8855 H         1 <0>         0.1147
     14 C10        -1.9606   -5.1884    0.6484 C.3       1 <0>        -0.1574
     15 C11        -2.5547   -6.1082    1.7173 C.3       1 <0>        -0.0121
     16 N2         -1.8729   -7.4076    1.6837 N.4       1 <0>        -0.3780
     17 C12        -0.4544   -7.2346    2.0193 C.3       1 <0>        -0.0308
     18 C13         0.2219   -6.3574    0.9634 C.3       1 <0>         0.0634
     19 H2          0.1375   -6.8346   -0.0130 H         1 <0>         0.0897
     20 O3          1.6015   -6.1871    1.2946 O.3       1 <0>        -0.3498
     21 C14         2.4612   -7.1803    0.7321 C.3       1 <0>         0.0175
     22 C15        -2.4981   -8.3123    2.6576 C.3       1 <0>        -0.0056
     23 C16        -3.9400   -8.5999    2.2341 C.3       1 <0>        -0.1510
     24 C17        -4.5912   -9.5422    3.2484 C.3       1 <0>         0.0612
     25 O4         -5.9378   -9.8107    2.8528 O.3       1 <0>        -0.3101
     26 C18        -6.6627  -10.6375    3.6523 C.ar      1 <0>         0.1103
     27 C19        -6.0908  -11.1740    4.7964 C.ar      1 <0>        -0.1786
     28 C20        -6.8286  -12.0140    5.6079 C.ar      1 <0>        -0.1136
     29 C21        -8.1381  -12.3209    5.2793 C.ar      1 <0>         0.0729
     30 C22        -8.7100  -11.7865    4.1373 C.ar      1 <0>        -0.1110
     31 C23        -7.9767  -10.9409    3.3276 C.ar      1 <0>        -0.1157
     32 F1         -8.8583  -13.1429    6.0736 F         1 <0>        -0.1339
     33 Cl1         2.6089   -2.6229   -4.5639 Cl        1 <0>        -0.0612
     34 N3          2.3569    0.3038   -4.1485 N.pl3     1 <0>        -0.8498
     35 H3          1.0053    1.8021    0.0021 H         1 <0>         0.0610
     36 H4         -0.5445    1.7859   -0.8732 H         1 <0>         0.0608
     37 H5         -0.5275    1.7763    0.9067 H         1 <0>         0.1075
     38 H6          1.1342    1.2357   -2.0059 H         1 <0>         0.1460
     39 H7          1.3215   -3.6961   -2.2880 H         1 <0>         0.1366
     40 H8          0.5557   -4.5989   -0.8931 H         1 <0>         0.4011
     41 H9         -2.4669   -4.2235    0.6762 H         1 <0>         0.1280
     42 H10        -2.0914   -5.6407   -0.3346 H         1 <0>         0.0936
     43 H11        -2.4236   -5.6548    2.6998 H         1 <0>         0.1373
     44 H12        -3.6177   -6.2510    1.5230 H         1 <0>         0.1408
     45 H13        -0.3681   -6.7573    2.9954 H         1 <0>         0.1434
     46 H14         0.0331   -8.2090    2.0480 H         1 <0>         0.1370
     47 H15         2.1631   -8.1650    1.0923 H         1 <0>         0.0484
     48 H16         2.3857   -7.1529   -0.3549 H         1 <0>         0.0550
     49 H17         3.4905   -6.9808    1.0300 H         1 <0>         0.1046
     50 H18        -1.9380   -9.2465    2.6975 H         1 <0>         0.1365
     51 H19        -2.4951   -7.8445    3.6421 H         1 <0>         0.1371
     52 H20        -4.5001   -7.6657    2.1942 H         1 <0>         0.1015
     53 H21        -3.9430   -9.0676    1.2495 H         1 <0>         0.1005
     54 H22        -4.0310  -10.4764    3.2882 H         1 <0>         0.0740
     55 H23        -4.5881   -9.0744    4.2329 H         1 <0>         0.0745
     56 H24        -5.0691  -10.9353    5.0526 H         1 <0>         0.1356
     57 H25        -6.3836  -12.4318    6.4989 H         1 <0>         0.1423
     58 H26        -9.7315  -12.0270    3.8820 H         1 <0>         0.1482
     59 H27        -8.4246  -10.5203    2.4394 H         1 <0>         0.1438
     60 H28         2.3233    1.2719   -4.0992 H         1 <0>         0.4092
     61 H29         2.7876   -0.1289   -4.9023 H         1 <0>         0.4089
     62 H30        -1.9528   -7.8044    0.7595 H         1 <0>         0.4239
@<TRIPOS>BOND
     1    1    2 1
     2    1   35 1
     3    1   36 1
     4    1   37 1
     5    2    3 1
     6    3    8 ar
     7    3    4 ar
     8    4    5 ar
     9    4   38 1
    10    5    6 ar
    11    5   34 1
    12    6    7 ar
    13    6   33 1
    14    7    8 ar
    15    7   39 1
    16    8    9 1
    17    9   10 2
    18    9   11 am
    19   11   12 1
    20   11   40 1
    21   12   13 1
    22   12   18 1
    23   12   14 1
    24   14   15 1
    25   14   41 1
    26   14   42 1
    27   15   16 1
    28   15   43 1
    29   15   44 1
    30   16   17 1
    31   16   22 1
    32   16   62 1
    33   17   18 1
    34   17   45 1
    35   17   46 1
    36   18   19 1
    37   18   20 1
    38   20   21 1
    39   21   47 1
    40   21   48 1
    41   21   49 1
    42   22   23 1
    43   22   50 1
    44   22   51 1
    45   23   24 1
    46   23   52 1
    47   23   53 1
    48   24   25 1
    49   24   54 1
    50   24   55 1
    51   25   26 1
    52   26   31 ar
    53   26   27 ar
    54   27   28 ar
    55   27   56 1
    56   28   29 ar
    57   28   57 1
    58   29   30 ar
    59   29   32 1
    60   30   31 ar
    61   30   58 1
    62   31   59 1
    63   34   60 1
    64   34   61 1
@<TRIPOS>MOLECULE
ZINC28129559
   86    90     0     0     0
SMALL
USER_CHARGES

@<TRIPOS>ATOM
      1 C1          0.3320    0.8570    0.2536 C.3       1 <0>        -0.1162
      2 C2          0.2062   -0.6401    0.1360 C.2       1 <0>         0.2490
      3 C3         -1.0125   -1.2040    0.1206 C.2       1 <0>        -0.2949
      4 C4         -1.1864   -2.6909   -0.0048 C.3       1 <0>         0.0817
      5 H1         -1.9492   -3.0237    0.6992 H         1 <0>         0.0892
      6 C5          0.1028   -3.4042    0.2890 C.2       1 <0>        -0.2477
      7 C6          1.2783   -2.7520    0.2980 C.2       1 <0>         0.2065
      8 N1          1.3356   -1.4081    0.0404 N.pl3     1 <0>        -0.6314
      9 C7          2.5479   -3.5097    0.5897 C.3       1 <0>        -0.1377
     10 C8          0.0792   -4.7914    0.5623 C.2       1 <0>         0.5299
     11 O1         -0.3361   -5.1935    1.6332 O.2       1 <0>        -0.4955
     12 O2          0.5172   -5.6693   -0.3643 O.3       1 <0>        -0.3474
     13 C9          0.4646   -7.0554   -0.0208 C.3       1 <0>         0.0294
     14 C10        -1.6274   -3.0223   -1.4072 C.ar      1 <0>        -0.0288
     15 C11        -0.8235   -2.6893   -2.4814 C.ar      1 <0>        -0.0910
     16 C12        -1.2280   -2.9933   -3.7678 C.ar      1 <0>        -0.0464
     17 C13        -2.4361   -3.6307   -3.9801 C.ar      1 <0>        -0.0480
     18 C14        -3.2396   -3.9645   -2.9059 C.ar      1 <0>        -0.0507
     19 C15        -2.8331   -3.6644   -1.6191 C.ar      1 <0>        -0.1263
     20 N2         -2.8696   -3.9554   -5.3576 N.pl3     1 <0>         0.0311
     21 O3         -2.1671   -3.6631   -6.2971 O.2       1 <0>        -0.1509
     22 O4         -3.9263   -4.5128   -5.5432 O.3       1 <0>        -0.1587
     23 C16        -2.1591   -0.3786    0.2245 C.2       1 <0>         0.5816
     24 O5         -2.0334    0.8281    0.3263 O.2       1 <0>        -0.5399
     25 N3         -3.3892   -0.9292    0.2107 N.am      1 <0>        -0.7387
     26 C17        -4.5750   -0.0756    0.3181 C.3       1 <0>         0.1270
     27 C18        -5.8340   -0.9442    0.2773 C.3       1 <0>        -0.1660
     28 C19        -7.0724   -0.0528    0.3895 C.3       1 <0>        -0.0054
     29 N4         -8.2811   -0.8866    0.3503 N.4       1 <0>        -0.3790
     30 C20        -8.3804   -1.5405   -0.9601 C.3       1 <0>        -0.0128
     31 C21        -9.5934   -2.4731   -0.9784 C.3       1 <0>        -0.1376
     32 C22       -10.8622   -1.6567   -0.7161 C.3       1 <0>         0.0261
     33 C23       -10.7166   -0.9201    0.6186 C.3       1 <0>        -0.1363
     34 C24        -9.4620   -0.0450    0.5778 C.3       1 <0>        -0.0199
     35 C25       -12.0518   -2.5799   -0.6550 C.ar      1 <0>        -0.0852
     36 C26       -11.8759   -3.9440   -0.7929 C.ar      1 <0>        -0.1208
     37 C27       -12.9671   -4.7908   -0.7369 C.ar      1 <0>        -0.1131
     38 C28       -14.2341   -4.2735   -0.5426 C.ar      1 <0>        -0.1095
     39 C29       -14.4100   -2.9094   -0.4037 C.ar      1 <0>        -0.1122
     40 C30       -13.3182   -2.0630   -0.4555 C.ar      1 <0>        -0.1047
     41 C31       -11.0556   -0.6556   -1.8257 C.ar      1 <0>        -0.0897
     42 C32       -11.0316   -1.0714   -3.1438 C.ar      1 <0>        -0.1069
     43 C33       -11.2090   -0.1531   -4.1617 C.ar      1 <0>        -0.1066
     44 C34       -11.4110    1.1811   -3.8614 C.ar      1 <0>        -0.1102
     45 C35       -11.4359    1.5968   -2.5433 C.ar      1 <0>        -0.1106
     46 C36       -11.2628    0.6778   -1.5253 C.ar      1 <0>        -0.1384
     47 H2          1.3860    1.1349    0.2450 H         1 <0>         0.0642
     48 H3         -0.1756    1.3314   -0.5862 H         1 <0>         0.1036
     49 H4         -0.1233    1.1877    1.1872 H         1 <0>         0.1059
     50 H5          2.1790   -0.9978   -0.2072 H         1 <0>         0.4265
     51 H6          2.9364   -3.9372   -0.3346 H         1 <0>         0.1013
     52 H7          3.2869   -2.8305    1.0147 H         1 <0>         0.0888
     53 H8          2.3386   -4.3095    1.3001 H         1 <0>         0.0879
     54 H9          1.0759   -7.2339    0.8638 H         1 <0>         0.0641
     55 H10        -0.5670   -7.3393    0.1871 H         1 <0>         0.0613
     56 H11         0.8449   -7.6502   -0.8513 H         1 <0>         0.1053
     57 H12         0.1204   -2.1914   -2.3156 H         1 <0>         0.1401
     58 H13        -0.6002   -2.7325   -4.6071 H         1 <0>         0.1557
     59 H14        -4.1836   -4.4622   -3.0717 H         1 <0>         0.1528
     60 H15        -3.4591   -3.9285   -0.7796 H         1 <0>         0.1406
     61 H16        -3.4894   -1.8906    0.1295 H         1 <0>         0.3973
     62 H17        -4.5431    0.4739    1.2589 H         1 <0>         0.0794
     63 H18        -4.5924    0.6286   -0.5137 H         1 <0>         0.0779
     64 H19        -5.8659   -1.4937   -0.6635 H         1 <0>         0.0936
     65 H20        -5.8167   -1.6484    1.1090 H         1 <0>         0.0955
     66 H21        -7.0405    0.4968    1.3303 H         1 <0>         0.1370
     67 H22        -7.0897    0.6515   -0.4423 H         1 <0>         0.1340
     68 H23        -8.4932   -0.7832   -1.7359 H         1 <0>         0.1320
     69 H24        -7.4754   -2.1185   -1.1467 H         1 <0>         0.1331
     70 H25        -9.6664   -2.9562   -1.9528 H         1 <0>         0.1181
     71 H26        -9.4815   -3.2311   -0.2031 H         1 <0>         0.0978
     72 H27       -11.5924   -0.2932    0.7858 H         1 <0>         0.1176
     73 H28       -10.6280   -1.6458    1.4271 H         1 <0>         0.0971
     74 H29        -9.3554    0.4810    1.5265 H         1 <0>         0.1345
     75 H30        -9.5517    0.6804   -0.2308 H         1 <0>         0.1396
     76 H31       -10.8859   -4.3482   -0.9448 H         1 <0>         0.1242
     77 H32       -12.8297   -5.8565   -0.8454 H         1 <0>         0.1269
     78 H33       -15.0867   -4.9350   -0.4995 H         1 <0>         0.1271
     79 H34       -15.3999   -2.5052   -0.2522 H         1 <0>         0.1266
     80 H35       -13.4552   -0.9976   -0.3433 H         1 <0>         0.1202
     81 H36       -10.8738   -2.1138   -3.3784 H         1 <0>         0.1238
     82 H37       -11.1895   -0.4779   -5.1915 H         1 <0>         0.1286
     83 H38       -11.5489    1.8987   -4.6567 H         1 <0>         0.1281
     84 H39       -11.5934    2.6392   -2.3087 H         1 <0>         0.1276
     85 H40       -11.2860    1.0020   -0.4954 H         1 <0>         0.1261
     86 H41        -8.2268   -1.5901    1.0716 H         1 <0>         0.4215
@<TRIPOS>BOND
     1    1    2 1
     2    1   47 1
     3    1   48 1
     4    1   49 1
     5    2    8 1
     6    2    3 2
     7    3    4 1
     8    3   23 1
     9    4    5 1
    10    4    6 1
    11    4   14 1
    12    6    7 2
    13    6   10 1
    14    7    8 1
    15    7    9 1
    16    8   50 1
    17    9   51 1
    18    9   52 1
    19    9   53 1
    20   10   11 2
    21   10   12 1
    22   12   13 1
    23   13   54 1
    24   13   55 1
    25   13   56 1
    26   14   19 ar
    27   14   15 ar
    28   15   16 ar
    29   15   57 1
    30   16   17 ar
    31   16   58 1
    32   17   18 ar
    33   17   20 1
    34   18   19 ar
    35   18   59 1
    36   19   60 1
    37   20   21 2
    38   20   22 1
    39   23   24 2
    40   23   25 am
    41   25   26 1
    42   25   61 1
    43   26   27 1
    44   26   62 1
    45   26   63 1
    46   27   28 1
    47   27   64 1
    48   27   65 1
    49   28   29 1
    50   28   66 1
    51   28   67 1
    52   29   34 1
    53   29   30 1
    54   29   86 1
    55   30   31 1
    56   30   68 1
    57   30   69 1
    58   31   32 1
    59   31   70 1
    60   31   71 1
    61   32   33 1
    62   32   35 1
    63   32   41 1
    64   33   34 1
    65   33   72 1
    66   33   73 1
    67   34   74 1
    68   34   75 1
    69   35   40 ar
    70   35   36 ar
    71   36   37 ar
    72   36   76 1
    73   37   38 ar
    74   37   77 1
    75   38   39 ar
    76   38   78 1
    77   39   40 ar
    78   39   79 1
    79   40   80 1
    80   41   46 ar
    81   41   42 ar
    82   42   43 ar
    83   42   81 1
    84   43   44 ar
    85   43   82 1
    86   44   45 ar
    87   44   83 1
    88   45   46 ar
    89   45   84 1
    90   46   85 1
@<TRIPOS>MOLECULE
ZINC28129559
   85    89     0     0     0
SMALL
USER_CHARGES

@<TRIPOS>ATOM
      1 C1          0.0195    0.9547   -0.3541 C.3       1 <0>        -0.0949
      2 C2          0.0111   -0.5520   -0.3837 C.2       1 <0>         0.2810
      3 C3         -1.1878   -1.2022   -0.3693 C.2       1 <0>        -0.4034
      4 C4         -1.1647   -2.7195   -0.4003 C.3       1 <0>         0.1203
      5 H1         -1.6826   -3.0861    0.4859 H         1 <0>         0.0435
      6 C5          0.2115   -3.3598   -0.4447 C.2       1 <0>        -0.4067
      7 C6          0.3671   -4.7278   -0.4761 C.2       1 <0>         0.4729
      8 O1         -0.7066   -5.5315   -0.3432 O.3       1 <0>        -0.6512
      9 O2          1.5932   -5.2629   -0.6399 O.3       1 <0>        -0.3328
     10 C7          1.6808   -6.6891   -0.6630 C.3       1 <0>         0.0379
     11 C8          1.3123   -2.5005   -0.4526 C.2       1 <0>         0.3033
     12 N1          1.1685   -1.1955   -0.4281 N.2       1 <0>        -0.6428
     13 C9          2.7004   -3.0857   -0.4961 C.3       1 <0>        -0.1082
     14 C10        -1.9322   -3.1774   -1.6138 C.ar      1 <0>         0.0195
     15 C11        -1.5190   -2.7972   -2.8769 C.ar      1 <0>        -0.1000
     16 C12        -2.2229   -3.2172   -3.9900 C.ar      1 <0>        -0.0555
     17 C13        -3.3398   -4.0178   -3.8399 C.ar      1 <0>        -0.0709
     18 C14        -3.7525   -4.3987   -2.5768 C.ar      1 <0>        -0.0615
     19 C15        -3.0460   -3.9822   -1.4640 C.ar      1 <0>        -0.1152
     20 N2         -4.0942   -4.4668   -5.0317 N.pl3     1 <0>         0.0434
     21 O3         -3.7335   -4.1333   -6.1364 O.2       1 <0>        -0.1707
     22 O4         -5.0710   -5.1669   -4.9004 O.3       1 <0>        -0.1797
     23 C16        -2.4033   -0.4914   -0.3268 C.2       1 <0>         0.5871
     24 O5         -2.3961    0.7269   -0.3021 O.2       1 <0>        -0.5725
     25 N3         -3.5741   -1.1588   -0.3134 N.am      1 <0>        -0.7533
     26 C17        -4.8382   -0.4196   -0.2692 C.3       1 <0>         0.1314
     27 C18        -6.0066   -1.4073   -0.2624 C.3       1 <0>        -0.1656
     28 C19        -7.3268   -0.6352   -0.2162 C.3       1 <0>        -0.0043
     29 N4         -8.4486   -1.5836   -0.2097 N.4       1 <0>        -0.3787
     30 C20        -8.4673   -2.3258   -1.4759 C.3       1 <0>        -0.0139
     31 C21        -9.5841   -3.3713   -1.4422 C.3       1 <0>        -0.1376
     32 C22       -10.9291   -2.6672   -1.2416 C.3       1 <0>         0.0246
     33 C23       -10.8727   -1.8367    0.0438 C.3       1 <0>        -0.1349
     34 C24        -9.7081   -0.8481   -0.0450 C.3       1 <0>        -0.0197
     35 C25       -12.0246   -3.6960   -1.1292 C.ar      1 <0>        -0.0822
     36 C26       -11.7093   -5.0417   -1.1059 C.ar      1 <0>        -0.1192
     37 C27       -12.7142   -5.9853   -1.0028 C.ar      1 <0>        -0.1132
     38 C28       -14.0344   -5.5832   -0.9225 C.ar      1 <0>        -0.1116
     39 C29       -14.3496   -4.2375   -0.9449 C.ar      1 <0>        -0.1144
     40 C30       -13.3444   -3.2937   -1.0437 C.ar      1 <0>        -0.1046
     41 C31       -11.2040   -1.7621   -2.4147 C.ar      1 <0>        -0.0877
     42 C32       -11.1217   -2.2562   -3.7031 C.ar      1 <0>        -0.1056
     43 C33       -11.3739   -1.4260   -4.7792 C.ar      1 <0>        -0.1067
     44 C34       -11.7088   -0.1017   -4.5669 C.ar      1 <0>        -0.1115
     45 C35       -11.7920    0.3922   -3.2785 C.ar      1 <0>        -0.1118
     46 C36       -11.5440   -0.4392   -2.2023 C.ar      1 <0>        -0.1381
     47 H2          1.0487    1.3128   -0.3752 H         1 <0>         0.0541
     48 H3         -0.5165    1.3381   -1.2224 H         1 <0>         0.0759
     49 H4         -0.4678    1.3029    0.5566 H         1 <0>         0.0761
     50 H5          1.3092   -7.0912    0.2795 H         1 <0>         0.0525
     51 H6          1.0798   -7.0767   -1.4856 H         1 <0>         0.0505
     52 H7          2.7202   -6.9870   -0.8006 H         1 <0>         0.0882
     53 H8          2.8424   -3.6143   -1.4387 H         1 <0>         0.0800
     54 H9          3.4351   -2.2847   -0.4144 H         1 <0>         0.0663
     55 H10         2.8276   -3.7813    0.3334 H         1 <0>         0.0790
     56 H11        -0.6464   -2.1717   -2.9942 H         1 <0>         0.1389
     57 H12        -1.9005   -2.9196   -4.9769 H         1 <0>         0.1452
     58 H13        -4.6253   -5.0239   -2.4595 H         1 <0>         0.1405
     59 H14        -3.3662   -4.2829   -0.4773 H         1 <0>         0.1375
     60 H15        -3.5798   -2.1286   -0.3331 H         1 <0>         0.3957
     61 H16        -4.8717    0.1891    0.6344 H         1 <0>         0.0701
     62 H17        -4.9127    0.2254   -1.1447 H         1 <0>         0.0680
     63 H18        -5.9731   -2.0159   -1.1660 H         1 <0>         0.0910
     64 H19        -5.9321   -2.0523    0.6131 H         1 <0>         0.0936
     65 H20        -7.3603   -0.0266    0.6874 H         1 <0>         0.1358
     66 H21        -7.4013    0.0097   -1.0917 H         1 <0>         0.1322
     67 H22        -8.6427   -1.6339   -2.2996 H         1 <0>         0.1310
     68 H23        -7.5082   -2.8237   -1.6188 H         1 <0>         0.1359
     69 H24        -9.5974   -3.9201   -2.3839 H         1 <0>         0.1185
     70 H25        -9.4095   -4.0640   -0.6189 H         1 <0>         0.0982
     71 H26       -11.8071   -1.2886    0.1643 H         1 <0>         0.1156
     72 H27       -10.7248   -2.4975    0.8979 H         1 <0>         0.0965
     73 H28        -9.6652   -0.2550    0.8686 H         1 <0>         0.1335
     74 H29        -9.8571   -0.1876   -0.8992 H         1 <0>         0.1381
     75 H30       -10.6779   -5.3558   -1.1686 H         1 <0>         0.1263
     76 H31       -12.4679   -7.0367   -0.9853 H         1 <0>         0.1266
     77 H32       -14.8195   -6.3205   -0.8427 H         1 <0>         0.1254
     78 H33       -15.3810   -3.9234   -0.8825 H         1 <0>         0.1249
     79 H34       -13.5904   -2.2422   -1.0575 H         1 <0>         0.1200
     80 H35       -10.8601   -3.2908   -3.8690 H         1 <0>         0.1248
     81 H36       -11.3089   -1.8119   -5.7859 H         1 <0>         0.1282
     82 H37       -11.9052    0.5471   -5.4077 H         1 <0>         0.1269
     83 H38       -12.0534    1.4269   -3.1126 H         1 <0>         0.1266
     84 H39       -11.6127   -0.0543   -1.1955 H         1 <0>         0.1261
     85 H40        -8.3359   -2.2311    0.5558 H         1 <0>         0.4214
@<TRIPOS>BOND
     1    1    2 1
     2    1   47 1
     3    1   48 1
     4    1   49 1
     5    2   12 1
     6    2    3 2
     7    3    4 1
     8    3   23 1
     9    4    5 1
    10    4    6 1
    11    4   14 1
    12    6    7 2
    13    6   11 1
    14    7    8 1
    15    7    9 1
    16    9   10 1
    17   10   50 1
    18   10   51 1
    19   10   52 1
    20   11   12 2
    21   11   13 1
    22   13   53 1
    23   13   54 1
    24   13   55 1
    25   14   19 ar
    26   14   15 ar
    27   15   16 ar
    28   15   56 1
    29   16   17 ar
    30   16   57 1
    31   17   18 ar
    32   17   20 1
    33   18   19 ar
    34   18   58 1
    35   19   59 1
    36   20   21 2
    37   20   22 1
    38   23   24 2
    39   23   25 am
    40   25   26 1
    41   25   60 1
    42   26   27 1
    43   26   61 1
    44   26   62 1
    45   27   28 1
    46   27   63 1
    47   27   64 1
    48   28   29 1
    49   28   65 1
    50   28   66 1
    51   29   34 1
    52   29   30 1
    53   29   85 1
    54   30   31 1
    55   30   67 1
    56   30   68 1
    57   31   32 1
    58   31   69 1
    59   31   70 1
    60   32   33 1
    61   32   35 1
    62   32   41 1
    63   33   34 1
    64   33   71 1
    65   33   72 1
    66   34   73 1
    67   34   74 1
    68   35   40 ar
    69   35   36 ar
    70   36   37 ar
    71   36   75 1
    72   37   38 ar
    73   37   76 1
    74   38   39 ar
    75   38   77 1
    76   39   40 ar
    77   39   78 1
    78   40   79 1
    79   41   46 ar
    80   41   42 ar
    81   42   43 ar
    82   42   80 1
    83   43   44 ar
    84   43   81 1
    85   44   45 ar
    86   44   82 1
    87   45   46 ar
    88   45   83 1
    89   46   84 1
@<TRIPOS>MOLECULE
ZINC02516049
   49    51     0     0     0
SMALL
USER_CHARGES

@<TRIPOS>ATOM
      1 C1         -0.0173    1.4248    0.0099 C.3       1 <0>         0.0220
      2 O1          0.0021   -0.0041    0.0020 O.3       1 <0>        -0.3157
      3 C2          0.6062   -0.6075   -1.0565 C.ar      1 <0>         0.1556
      4 C3          1.1731    0.1601   -2.0626 C.ar      1 <0>        -0.2329
      5 C4          1.7874   -0.4523   -3.1388 C.ar      1 <0>        -0.0259
      6 C5          1.8393   -1.8314   -3.2169 C.ar      1 <0>        -0.2322
      7 C6          1.2749   -2.6062   -2.2150 C.ar      1 <0>         0.1603
      8 C7          0.6613   -1.9944   -1.1284 C.ar      1 <0>         0.0102
      9 O2          0.1111   -2.7512   -0.1402 O.3       1 <0>        -0.3151
     10 C8         -1.2598   -3.1236   -0.2953 C.3       1 <0>         0.0248
     11 C9         -1.6985   -3.9653    0.9047 C.3       1 <0>         0.0028
     12 N1         -1.6543   -3.1436    2.1216 N.4       1 <0>        -0.5082
     13 C10        -2.0755   -3.9518    3.2737 C.3       1 <0>         0.0087
     14 C11        -2.0295   -3.0960    4.5412 C.3       1 <0>         0.0679
     15 H1         -2.7008   -2.2444    4.4305 H         1 <0>         0.1049
     16 C12        -2.4664   -3.9418    5.7489 C.3       1 <0>        -0.1494
     17 S1         -2.5645   -2.8177    7.1777 S.3       1 <0>        -0.0761
     18 C13        -1.1003   -1.8451    7.0037 C.ar      1 <0>        -0.1576
     19 C14        -0.6820   -1.0577    8.0685 C.ar      1 <0>        -0.0621
     20 C15         0.4549   -0.2816    7.9538 C.ar      1 <0>        -0.1176
     21 C16         1.1747   -0.2894    6.7732 C.ar      1 <0>        -0.0808
     22 C17         0.7653   -1.0724    5.7134 C.ar      1 <0>        -0.1251
     23 C18        -0.3754   -1.8653    5.8174 C.ar      1 <0>         0.1165
     24 O3         -0.7048   -2.6318    4.7526 O.3       1 <0>        -0.3300
     25 O4          1.3261   -3.9630   -2.2930 O.3       1 <0>        -0.3070
     26 C19         1.9770   -4.5231   -3.4352 C.3       1 <0>         0.0218
     27 H2          1.0053    1.8021    0.0021 H         1 <0>         0.0642
     28 H3         -0.5445    1.7859   -0.8732 H         1 <0>         0.0625
     29 H4         -0.5275    1.7763    0.9067 H         1 <0>         0.1060
     30 H5          1.1343    1.2379   -2.0054 H         1 <0>         0.1407
     31 H6          2.2277    0.1483   -3.9210 H         1 <0>         0.1397
     32 H7          2.3199   -2.3061   -4.0596 H         1 <0>         0.1417
     33 H8         -1.8756   -2.2262   -0.3542 H         1 <0>         0.0770
     34 H9         -1.3771   -3.7054   -1.2095 H         1 <0>         0.1011
     35 H10        -2.7155   -4.3235    0.7449 H         1 <0>         0.1485
     36 H11        -1.0269   -4.8165    1.0165 H         1 <0>         0.1435
     37 H12        -0.7129   -2.8121    2.2695 H         1 <0>         0.4440
     38 H13        -3.0925   -4.3100    3.1139 H         1 <0>         0.1563
     39 H14        -1.4039   -4.8030    3.3855 H         1 <0>         0.1464
     40 H15        -3.4430   -4.3865    5.5578 H         1 <0>         0.1380
     41 H16        -1.7317   -4.7237    5.9407 H         1 <0>         0.1154
     42 H17        -1.2474   -1.0519    8.9886 H         1 <0>         0.1378
     43 H18         0.7805    0.3287    8.7832 H         1 <0>         0.1398
     44 H19         2.0612    0.3204    6.6802 H         1 <0>         0.1400
     45 H20         1.3341   -1.0704    4.7953 H         1 <0>         0.1365
     46 H21         1.9474   -5.6109   -3.3732 H         1 <0>         0.1081
     47 H22         1.4660   -4.1967   -4.3410 H         1 <0>         0.0620
     48 H23         3.0141   -4.1888   -3.4626 H         1 <0>         0.0634
     49 H24        -2.2760   -2.3557    2.0182 H         1 <0>         0.4275
@<TRIPOS>BOND
     1    1    2 1
     2    1   27 1
     3    1   28 1
     4    1   29 1
     5    2    3 1
     6    3    8 ar
     7    3    4 ar
     8    4    5 ar
     9    4   30 1
    10    5    6 ar
    11    5   31 1
    12    6    7 ar
    13    6   32 1
    14    7    8 ar
    15    7   25 1
    16    8    9 1
    17    9   10 1
    18   10   11 1
    19   10   33 1
    20   10   34 1
    21   11   12 1
    22   11   35 1
    23   11   36 1
    24   12   13 1
    25   12   37 1
    26   12   49 1
    27   13   14 1
    28   13   38 1
    29   13   39 1
    30   14   15 1
    31   14   24 1
    32   14   16 1
    33   16   17 1
    34   16   40 1
    35   16   41 1
    36   17   18 1
    37   18   23 ar
    38   18   19 ar
    39   19   20 ar
    40   19   42 1
    41   20   21 ar
    42   20   43 1
    43   21   22 ar
    44   21   44 1
    45   22   23 ar
    46   22   45 1
    47   23   24 1
    48   25   26 1
    49   26   46 1
    50   26   47 1
    51   26   48 1
@<TRIPOS>MOLECULE
ZINC02506518
   52    54     0     0     0
SMALL
USER_CHARGES

@<TRIPOS>ATOM
      1 C1          0.1528    1.5731    0.2065 C.ar      1 <0>        -0.1159
      2 C2          1.3070    2.3267    0.3214 C.ar      1 <0>        -0.1177
      3 C3          2.5381    1.7049    0.3703 C.ar      1 <0>        -0.1061
      4 C4          2.6171    0.3151    0.3042 C.ar      1 <0>        -0.0422
      5 C5          1.4508   -0.4392    0.1889 C.ar      1 <0>        -0.0924
      6 C6          0.2251    0.1933    0.1404 C.ar      1 <0>        -0.1218
      7 C7          3.9374   -0.3588    0.3557 C.ar      1 <0>        -0.0715
      8 C8          4.9712    0.0628   -0.4774 C.ar      1 <0>        -0.0672
      9 C9          6.1978   -0.5675   -0.4257 C.ar      1 <0>        -0.1455
     10 C10         6.4053   -1.6177    0.4513 C.ar      1 <0>        -0.0773
     11 C11         5.3865   -2.0443    1.2818 C.ar      1 <0>        -0.2080
     12 C12         4.1517   -1.4163    1.2447 C.ar      1 <0>         0.1311
     13 O1          3.1513   -1.8307    2.0649 O.3       1 <0>        -0.2927
     14 C13         3.4431   -2.9167    2.9466 C.3       1 <0>         0.0249
     15 C14         2.2049   -3.2397    3.7853 C.3       1 <0>         0.1144
     16 H1          1.3588   -3.4310    3.1253 H         1 <0>         0.1242
     17 C15         2.4765   -4.4799    4.6390 C.3       1 <0>        -0.1618
     18 C16         1.2189   -4.8705    5.3719 C.cat     1 <0>         0.5334
     19 N1          1.0306   -4.4755    6.5889 N.pl3     1 <0>        -0.7319
     20 N2          0.2752   -5.6439    4.7490 N.pl3     1 <0>        -0.5466
     21 C17        -1.0120   -5.9235    5.3999 C.3       1 <0>         0.0818
     22 C18        -2.1433   -5.5304    4.4447 C.3       1 <0>        -0.1377
     23 C19        -1.9472   -6.2461    3.1062 C.3       1 <0>        -0.1300
     24 C20        -0.6175   -5.8132    2.4843 C.3       1 <0>        -0.1413
     25 C21         0.5286   -6.2045    3.4148 C.3       1 <0>         0.0889
     26 O2          1.9040   -2.1320    4.6365 O.3       1 <0>        -0.5405
     27 H2         -0.8088    2.0636    0.1728 H         1 <0>         0.1228
     28 H3          1.2446    3.4037    0.3726 H         1 <0>         0.1254
     29 H4          3.4387    2.2943    0.4594 H         1 <0>         0.1232
     30 H5          1.5062   -1.5165    0.1368 H         1 <0>         0.1173
     31 H6         -0.6793   -0.3902    0.0510 H         1 <0>         0.1206
     32 H7          4.8127    0.8819   -1.1632 H         1 <0>         0.1348
     33 H8          6.9986   -0.2401   -1.0722 H         1 <0>         0.1311
     34 H9          7.3677   -2.1064    0.4865 H         1 <0>         0.1291
     35 H10         5.5542   -2.8649    1.9636 H         1 <0>         0.1263
     36 H11         3.7252   -3.7930    2.3629 H         1 <0>         0.0792
     37 H12         4.2658   -2.6388    3.6054 H         1 <0>         0.0756
     38 H13         2.7923   -5.3015    3.9962 H         1 <0>         0.1424
     39 H14         3.2636   -4.2595    5.3601 H         1 <0>         0.1340
     40 H15         0.2631   -4.7944    7.0891 H         1 <0>         0.4286
     41 H16        -1.0815   -6.9865    5.6307 H         1 <0>         0.1089
     42 H17        -1.0909   -5.3421    6.3185 H         1 <0>         0.0909
     43 H18        -3.1012   -5.8213    4.8759 H         1 <0>         0.0990
     44 H19        -2.1275   -4.4520    4.2863 H         1 <0>         0.0786
     45 H20        -1.9383   -7.3239    3.2687 H         1 <0>         0.0758
     46 H21        -2.7643   -5.9873    2.4329 H         1 <0>         0.0859
     47 H22        -0.4895   -6.3055    1.5203 H         1 <0>         0.1008
     48 H23        -0.6161   -4.7322    2.3444 H         1 <0>         0.0783
     49 H24         1.4659   -5.8085    3.0240 H         1 <0>         0.1041
     50 H25         0.5875   -7.2910    3.4801 H         1 <0>         0.1070
     51 H26         2.6142   -1.9047    5.2521 H         1 <0>         0.3840
     52 H27         1.6569   -3.8603    7.0016 H         1 <0>         0.4461
@<TRIPOS>BOND
     1    1    6 ar
     2    1    2 ar
     3    1   27 1
     4    2    3 ar
     5    2   28 1
     6    3    4 ar
     7    3   29 1
     8    4    5 ar
     9    4    7 1
    10    5    6 ar
    11    5   30 1
    12    6   31 1
    13    7   12 ar
    14    7    8 ar
    15    8    9 ar
    16    8   32 1
    17    9   10 ar
    18    9   33 1
    19   10   11 ar
    20   10   34 1
    21   11   12 ar
    22   11   35 1
    23   12   13 1
    24   13   14 1
    25   14   15 1
    26   14   36 1
    27   14   37 1
    28   15   16 1
    29   15   17 1
    30   15   26 1
    31   17   18 1
    32   17   38 1
    33   17   39 1
    34   18   19 2
    35   18   20 1
    36   19   40 1
    37   19   52 1
    38   20   25 1
    39   20   21 1
    40   21   22 1
    41   21   41 1
    42   21   42 1
    43   22   23 1
    44   22   43 1
    45   22   44 1
    46   23   24 1
    47   23   45 1
    48   23   46 1
    49   24   25 1
    50   24   47 1
    51   24   48 1
    52   25   49 1
    53   25   50 1
    54   26   51 1
@<TRIPOS>MOLECULE
ZINC03995780
   52    54     0     0     0
SMALL
USER_CHARGES

@<TRIPOS>ATOM
      1 C1          0.1459    1.6051    0.2148 C.ar      1 <0>        -0.1165
      2 C2          1.3430    2.2976    0.2458 C.ar      1 <0>        -0.1194
      3 C3          2.5406    1.6121    0.2188 C.ar      1 <0>        -0.1070
      4 C4          2.5423    0.2197    0.1605 C.ar      1 <0>        -0.0449
      5 C5          1.3333   -0.4727    0.1299 C.ar      1 <0>        -0.0892
      6 C6          0.1417    0.2231    0.1569 C.ar      1 <0>        -0.1213
      7 C7          3.8262   -0.5225    0.1307 C.ar      1 <0>        -0.0711
      8 C8          4.8226   -0.1607   -0.7731 C.ar      1 <0>        -0.0674
      9 C9          6.0155   -0.8544   -0.7970 C.ar      1 <0>        -0.1456
     10 C10         6.2260   -1.9090    0.0741 C.ar      1 <0>        -0.0776
     11 C11         5.2441   -2.2764    0.9742 C.ar      1 <0>        -0.2080
     12 C12         4.0439   -1.5846    1.0133 C.ar      1 <0>         0.1309
     13 O1          3.0802   -1.9409    1.9019 O.3       1 <0>        -0.2929
     14 C13         3.3733   -3.0356    2.7724 C.3       1 <0>         0.0250
     15 C14         2.1786   -3.2880    3.6943 C.3       1 <0>         0.1159
     16 H1          1.9264   -2.3684    4.2223 H         1 <0>         0.1252
     17 C15         2.5378   -4.3760    4.7083 C.3       1 <0>        -0.1617
     18 C16         1.4079   -4.5385    5.6922 C.cat     1 <0>         0.5308
     19 N1          1.4248   -3.8874    6.8095 N.pl3     1 <0>        -0.7408
     20 N2          0.3629   -5.3759    5.4031 N.pl3     1 <0>        -0.5350
     21 C17         0.3916   -6.2217    4.2020 C.3       1 <0>         0.0926
     22 C18         0.1416   -7.6752    4.6164 C.3       1 <0>        -0.1420
     23 C19        -1.1632   -7.7574    5.4120 C.3       1 <0>        -0.1305
     24 C20        -1.0443   -6.9075    6.6792 C.3       1 <0>        -0.1398
     25 C21        -0.8050   -5.4498    6.2914 C.3       1 <0>         0.0827
     26 O2          1.0579   -3.7132    2.9163 O.3       1 <0>        -0.5388
     27 H2         -0.7889    2.1453    0.2403 H         1 <0>         0.1225
     28 H3          1.3405    3.3766    0.2910 H         1 <0>         0.1249
     29 H4          3.4746    2.1538    0.2424 H         1 <0>         0.1228
     30 H5          1.3288   -1.5518    0.0843 H         1 <0>         0.1203
     31 H6         -0.7959   -0.3125    0.1331 H         1 <0>         0.1215
     32 H7          4.6617    0.6615   -1.4546 H         1 <0>         0.1347
     33 H8          6.7873   -0.5735   -1.4982 H         1 <0>         0.1310
     34 H9          7.1618   -2.4475    0.0499 H         1 <0>         0.1290
     35 H10         5.4138   -3.1008    1.6511 H         1 <0>         0.1263
     36 H11         3.5697   -3.9289    2.1794 H         1 <0>         0.0748
     37 H12         4.2514   -2.7976    3.3726 H         1 <0>         0.0796
     38 H13         2.7035   -5.3186    4.1865 H         1 <0>         0.1349
     39 H14         3.4452   -4.0911    5.2408 H         1 <0>         0.1402
     40 H15         0.7434   -4.0555    7.4791 H         1 <0>         0.4285
     41 H16        -0.3867   -5.9000    3.5099 H         1 <0>         0.1125
     42 H17         1.3667   -6.1412    3.7216 H         1 <0>         0.1004
     43 H18         0.0647   -8.2992    3.7260 H         1 <0>         0.1003
     44 H19         0.9679   -8.0242    5.2356 H         1 <0>         0.0760
     45 H20        -1.9853   -7.3850    4.8008 H         1 <0>         0.0772
     46 H21        -1.3561   -8.7943    5.6870 H         1 <0>         0.0851
     47 H22        -1.9653   -6.9851    7.2570 H         1 <0>         0.0994
     48 H23        -0.2068   -7.2638    7.2790 H         1 <0>         0.0758
     49 H24        -0.6192   -4.8602    7.1892 H         1 <0>         0.0893
     50 H25        -1.6830   -5.0638    5.7735 H         1 <0>         0.1127
     51 H26         1.2112   -4.5279    2.4184 H         1 <0>         0.3803
     52 H27         2.1188   -3.2310    6.9778 H         1 <0>         0.4464
@<TRIPOS>BOND
     1    1    6 ar
     2    1    2 ar
     3    1   27 1
     4    2    3 ar
     5    2   28 1
     6    3    4 ar
     7    3   29 1
     8    4    5 ar
     9    4    7 1
    10    5    6 ar
    11    5   30 1
    12    6   31 1
    13    7   12 ar
    14    7    8 ar
    15    8    9 ar
    16    8   32 1
    17    9   10 ar
    18    9   33 1
    19   10   11 ar
    20   10   34 1
    21   11   12 ar
    22   11   35 1
    23   12   13 1
    24   13   14 1
    25   14   15 1
    26   14   36 1
    27   14   37 1
    28   15   16 1
    29   15   17 1
    30   15   26 1
    31   17   18 1
    32   17   38 1
    33   17   39 1
    34   18   19 2
    35   18   20 1
    36   19   40 1
    37   19   52 1
    38   20   25 1
    39   20   21 1
    40   21   22 1
    41   21   41 1
    42   21   42 1
    43   22   23 1
    44   22   43 1
    45   22   44 1
    46   23   24 1
    47   23   45 1
    48   23   46 1
    49   24   25 1
    50   24   47 1
    51   24   48 1
    52   25   49 1
    53   25   50 1
    54   26   51 1
@<TRIPOS>MOLECULE
ZINC03961870
   57    60     0     0     0
SMALL
USER_CHARGES

@<TRIPOS>ATOM
      1 C1         -1.2666    0.4432    0.5823 C.3       1 <0>         0.1083
      2 N1          0.0021   -0.0041    0.0020 N.pl3     1 <0>        -0.6766
      3 C2          1.2692    0.3682    0.6361 C.3       1 <0>         0.1068
      4 C3          0.0035   -0.7752   -1.1405 C.ar      1 <0>         0.6033
      5 C4          0.0431   -0.1734   -2.4234 C.ar      1 <0>        -0.1837
      6 C5          0.0828    1.2149   -2.5907 C.ar      1 <0>        -0.0158
      7 C6          0.1203    1.7396   -3.8494 C.ar      1 <0>        -0.1225
      8 C7          0.1192    0.9124   -4.9687 C.ar      1 <0>        -0.0114
      9 C8          0.0806   -0.4443   -4.8394 C.ar      1 <0>        -0.1535
     10 C9          0.0425   -1.0168   -3.5607 C.ar      1 <0>         0.1913
     11 N2          0.0047   -2.3454   -3.3797 N.ar      1 <0>        -0.5649
     12 C10        -0.0317   -2.8528   -2.1625 C.ar      1 <0>         0.6628
     13 N3         -0.0266   -2.0975   -1.0674 N.ar      1 <0>        -0.5488
     14 N4         -0.0709   -4.2279   -2.0188 N.pl3     1 <0>        -0.6587
     15 C11        -0.0714   -5.0885   -3.2044 C.3       1 <0>         0.1192
     16 C12         1.3687   -5.3246   -3.6639 C.3       1 <0>        -0.1369
     17 C13         1.3681   -6.2234   -4.9021 C.3       1 <0>        -0.1270
     18 C14         0.7161   -7.5642   -4.5586 C.3       1 <0>         0.1419
     19 C15        -0.7241   -7.3282   -4.0990 C.3       1 <0>        -0.1296
     20 C16        -0.7234   -6.4293   -2.8609 C.3       1 <0>        -0.1228
     21 N5          0.7155   -8.4249   -5.7441 N.am      1 <0>        -0.7247
     22 C17         0.6773   -9.7648   -5.6041 C.2       1 <0>         0.5675
     23 O1          0.6433  -10.2593   -4.4940 O.2       1 <0>        -0.5209
     24 C18         0.6767  -10.6327   -6.7996 C.ar      1 <0>        -0.1256
     25 C19         0.7214  -10.0673   -8.0757 C.ar      1 <0>        -0.0674
     26 C20         0.7206  -10.8807   -9.1887 C.ar      1 <0>        -0.1311
     27 C21         0.6756  -12.2585   -9.0439 C.ar      1 <0>         0.1011
     28 C22         0.6305  -12.8270   -7.7781 C.ar      1 <0>         0.0668
     29 C23         0.6371  -12.0212   -6.6571 C.ar      1 <0>        -0.0647
     30 F1          0.5858  -14.1705   -7.6431 F         1 <0>        -0.1178
     31 F2          0.6750  -13.0508  -10.1382 F         1 <0>        -0.1167
     32 H1         -1.4995    1.4441    0.2188 H         1 <0>         0.0620
     33 H2         -2.0615   -0.2433    0.2908 H         1 <0>         0.0650
     34 H3         -1.1827    0.4616    1.6689 H         1 <0>         0.0832
     35 H4          1.5461   -0.3907    1.3678 H         1 <0>         0.0586
     36 H5          2.0476    0.4419   -0.1234 H         1 <0>         0.0644
     37 H6          1.1566    1.3305    1.1355 H         1 <0>         0.0887
     38 H7          0.0833    1.8666   -1.7295 H         1 <0>         0.1585
     39 H8          0.1509    2.8113   -3.9790 H         1 <0>         0.1545
     40 H9          0.1489    1.3520   -5.9548 H         1 <0>         0.1575
     41 H10         0.0799   -1.0739   -5.7168 H         1 <0>         0.1562
     42 H11        -0.0980   -4.6224   -1.1331 H         1 <0>         0.4436
     43 H12        -0.6334   -4.6055   -4.0038 H         1 <0>         0.0923
     44 H13         1.8332   -4.3693   -3.9087 H         1 <0>         0.0712
     45 H14         1.9306   -5.8076   -2.8646 H         1 <0>         0.0923
     46 H15         0.8061   -5.7404   -5.7015 H         1 <0>         0.0763
     47 H16         2.3940   -6.3916   -5.2295 H         1 <0>         0.0894
     48 H17         1.2780   -8.0473   -3.7592 H         1 <0>         0.0988
     49 H18        -1.2860   -6.8451   -4.8984 H         1 <0>         0.0736
     50 H19        -1.1886   -8.2834   -3.8543 H         1 <0>         0.0893
     51 H20        -0.1615   -6.9124   -2.0615 H         1 <0>         0.0888
     52 H21        -1.7494   -6.2612   -2.5335 H         1 <0>         0.0871
     53 H22         0.7426   -8.0304   -6.6298 H         1 <0>         0.4025
     54 H23         0.7562   -8.9940   -8.1906 H         1 <0>         0.1425
     55 H24         0.7549  -10.4435  -10.1756 H         1 <0>         0.1568
     56 H25         0.6073  -12.4635   -5.6724 H         1 <0>         0.1616
     57 H26         0.0037   -2.9368   -4.1486 H         1 <0>         0.4377
@<TRIPOS>BOND
     1    1    2 1
     2    1   32 1
     3    1   33 1
     4    1   34 1
     5    2    3 1
     6    2    4 1
     7    3   35 1
     8    3   36 1
     9    3   37 1
    10    4   13 ar
    11    4    5 ar
    12    5   10 ar
    13    5    6 ar
    14    6    7 ar
    15    6   38 1
    16    7    8 ar
    17    7   39 1
    18    8    9 ar
    19    8   40 1
    20    9   10 ar
    21    9   41 1
    22   10   11 ar
    23   11   12 ar
    24   11   57 1
    25   12   13 ar
    26   12   14 1
    27   14   15 1
    28   14   42 1
    29   15   20 1
    30   15   16 1
    31   15   43 1
    32   16   17 1
    33   16   44 1
    34   16   45 1
    35   17   18 1
    36   17   46 1
    37   17   47 1
    38   18   19 1
    39   18   21 1
    40   18   48 1
    41   19   20 1
    42   19   49 1
    43   19   50 1
    44   20   51 1
    45   20   52 1
    46   21   22 am
    47   21   53 1
    48   22   23 2
    49   22   24 1
    50   24   29 ar
    51   24   25 ar
    52   25   26 ar
    53   25   54 1
    54   26   27 ar
    55   26   55 1
    56   27   28 ar
    57   27   31 1
    58   28   29 ar
    59   28   30 1
    60   29   56 1
@<TRIPOS>MOLECULE
ZINC03949424
   73    76     0     0     0
SMALL
USER_CHARGES

@<TRIPOS>ATOM
      1 C1         -0.0663    1.4819   -0.0222 C.3       1 <0>        -0.1665
      2 C2         -0.0295   -0.0476   -0.0295 C.3       1 <0>         0.1715
      3 C3          0.7069   -0.5460    1.2156 C.3       1 <0>        -0.1560
      4 C4         -1.4594   -0.5921   -0.0285 C.3       1 <0>        -0.1576
      5 N1          0.6696   -0.5136   -1.2296 N.am      1 <0>        -0.7124
      6 C5          1.9512   -0.1561   -1.4444 C.2       1 <0>         0.5117
      7 O1          2.5257    0.5514   -0.6442 O.2       1 <0>        -0.5198
      8 C6          2.6704   -0.6354   -2.6789 C.3       1 <0>         0.1207
      9 H1          1.9938   -0.6014   -3.5328 H         1 <0>         0.1478
     10 C7          3.1574   -2.0739   -2.4651 C.3       1 <0>         0.1175
     11 N2          4.2533   -2.0580   -1.4860 N.pl3     1 <0>        -0.5629
     12 C8          5.4192   -1.2007   -1.7417 C.3       1 <0>         0.0877
     13 C9          4.9322    0.2378   -1.9556 C.3       1 <0>         0.0924
     14 N3          3.8339    0.2245   -2.9371 N.am      1 <0>        -0.5813
     15 C10         3.8943    0.9808   -4.0510 C.2       1 <0>         0.6584
     16 O2          2.9815    0.9556   -4.8526 O.2       1 <0>        -0.5552
     17 O3          4.9660    1.7642   -4.2755 O.3       1 <0>        -0.3524
     18 C11         4.9631    2.5390   -5.4762 C.3       1 <0>         0.1289
     19 C12         6.2329    3.3467   -5.5559 C.ar      1 <0>        -0.1060
     20 C13         6.2815    4.6141   -5.0060 C.ar      1 <0>        -0.0923
     21 C14         7.4462    5.3550   -5.0791 C.ar      1 <0>        -0.1215
     22 C15         8.5625    4.8284   -5.7017 C.ar      1 <0>        -0.1030
     23 C16         8.5141    3.5607   -6.2507 C.ar      1 <0>        -0.1226
     24 C17         7.3507    2.8181   -6.1739 C.ar      1 <0>        -0.0935
     25 C18         4.1886   -2.8368   -0.3438 C.ar      1 <0>         0.6847
     26 N4          5.2385   -2.8774    0.4540 N.ar      1 <0>        -0.5820
     27 C19         5.2146   -3.6215    1.5710 C.ar      1 <0>         0.2225
     28 C20         6.3124   -3.6852    2.4381 C.ar      1 <0>        -0.2297
     29 C21         6.2376   -4.4635    3.5721 C.ar      1 <0>         0.2176
     30 C22         5.0759   -5.1909    3.8654 C.ar      1 <0>         0.1145
     31 C23         3.9938   -5.1430    3.0337 C.ar      1 <0>        -0.1167
     32 C24         4.0438   -4.3588    1.8743 C.ar      1 <0>        -0.1900
     33 C25         2.9486   -4.2759    0.9810 C.ar      1 <0>         0.5620
     34 N5          3.0689   -3.5091   -0.0933 N.ar      1 <0>        -0.5918
     35 N6          1.7831   -4.9721    1.2254 N.pl3     1 <0>        -0.7735
     36 O4          5.0259   -5.9533    4.9908 O.3       1 <0>        -0.2899
     37 C26         3.8146   -6.6711    5.2349 C.3       1 <0>         0.0159
     38 O5          7.3011   -4.5272    4.4149 O.3       1 <0>        -0.2781
     39 C27         8.4560   -3.7637    4.0608 C.3       1 <0>         0.0123
     40 H2          0.9524    1.8698   -0.0229 H         1 <0>         0.0759
     41 H3         -0.5909    1.8370   -0.9092 H         1 <0>         0.0577
     42 H4         -0.5864    1.8286    0.8708 H         1 <0>         0.0669
     43 H5          0.1867   -0.1994    2.1085 H         1 <0>         0.0656
     44 H6          0.7330   -1.6357    1.2104 H         1 <0>         0.0485
     45 H7          1.7255   -0.1581    1.2149 H         1 <0>         0.0713
     46 H8         -1.9840   -0.2370   -0.9155 H         1 <0>         0.0668
     47 H9         -1.4332   -1.6818   -0.0337 H         1 <0>         0.0621
     48 H10        -1.9795   -0.2454    0.8645 H         1 <0>         0.0774
     49 H11         0.2101   -1.0794   -1.8696 H         1 <0>         0.4023
     50 H12         2.3379   -2.6852   -2.0870 H         1 <0>         0.1316
     51 H13         3.5165   -2.4828   -3.4095 H         1 <0>         0.1120
     52 H14         6.0934   -1.2352   -0.8859 H         1 <0>         0.0940
     53 H15         5.9394   -1.5474   -2.6346 H         1 <0>         0.1105
     54 H16         4.5731    0.6467   -1.0111 H         1 <0>         0.1104
     55 H17         5.7517    0.8491   -2.3336 H         1 <0>         0.1203
     56 H18         4.9009    1.8740   -6.3376 H         1 <0>         0.0818
     57 H19         4.1048    3.2108   -5.4731 H         1 <0>         0.0812
     58 H20         5.4094    5.0255   -4.5196 H         1 <0>         0.1246
     59 H21         7.4840    6.3454   -4.6501 H         1 <0>         0.1281
     60 H22         9.4722    5.4076   -5.7594 H         1 <0>         0.1274
     61 H23         9.3861    3.1494   -6.7374 H         1 <0>         0.1277
     62 H24         7.3141    1.8262   -6.5996 H         1 <0>         0.1242
     63 H25         7.2115   -3.1285    2.2190 H         1 <0>         0.1676
     64 H26         3.1036   -5.7075    3.2687 H         1 <0>         0.1584
     65 H27         1.7066   -5.5270    2.0173 H         1 <0>         0.4285
     66 H28         1.0400   -4.9066    0.6054 H         1 <0>         0.4298
     67 H29         2.9864   -5.9676    5.3207 H         1 <0>         0.0634
     68 H30         3.6254   -7.3561    4.4084 H         1 <0>         0.0635
     69 H31         3.9081   -7.2370    6.1618 H         1 <0>         0.1173
     70 H32         8.8293   -4.0973    3.0926 H         1 <0>         0.0685
     71 H33         8.1903   -2.7081    4.0037 H         1 <0>         0.0687
     72 H34         9.2295   -3.9034    4.8161 H         1 <0>         0.1204
     73 H35         6.0326   -2.3666    0.2319 H         1 <0>         0.4346
@<TRIPOS>BOND
     1    1    2 1
     2    1   40 1
     3    1   41 1
     4    1   42 1
     5    2    3 1
     6    2    4 1
     7    2    5 1
     8    3   43 1
     9    3   44 1
    10    3   45 1
    11    4   46 1
    12    4   47 1
    13    4   48 1
    14    5    6 am
    15    5   49 1
    16    6    7 2
    17    6    8 1
    18    8    9 1
    19    8   14 1
    20    8   10 1
    21   10   11 1
    22   10   50 1
    23   10   51 1
    24   11   12 1
    25   11   25 1
    26   12   13 1
    27   12   52 1
    28   12   53 1
    29   13   14 1
    30   13   54 1
    31   13   55 1
    32   14   15 am
    33   15   16 2
    34   15   17 1
    35   17   18 1
    36   18   19 1
    37   18   56 1
    38   18   57 1
    39   19   24 ar
    40   19   20 ar
    41   20   21 ar
    42   20   58 1
    43   21   22 ar
    44   21   59 1
    45   22   23 ar
    46   22   60 1
    47   23   24 ar
    48   23   61 1
    49   24   62 1
    50   25   34 ar
    51   25   26 ar
    52   26   27 ar
    53   26   73 1
    54   27   32 ar
    55   27   28 ar
    56   28   29 ar
    57   28   63 1
    58   29   30 ar
    59   29   38 1
    60   30   31 ar
    61   30   36 1
    62   31   32 ar
    63   31   64 1
    64   32   33 ar
    65   33   34 ar
    66   33   35 1
    67   35   65 1
    68   35   66 1
    69   36   37 1
    70   37   67 1
    71   37   68 1
    72   37   69 1
    73   38   39 1
    74   39   70 1
    75   39   71 1
    76   39   72 1
@<TRIPOS>MOLECULE
ZINC03825965
   61    64     0     0     0
SMALL
USER_CHARGES
2-[4-[4-(7-methoxy-1-naphthyl)piperazin-1-yl]butyl]-4-methyl-1,2,4-triazine-3,5-dione
@<TRIPOS>ATOM
      1 C1         -2.0231    1.8137    0.6582 C.3       1 <0>         0.0742
      2 N1         -0.7874    2.5524    0.3867 N.am      1 <0>        -0.5564
      3 C2         -0.8326    3.8813    0.1583 C.2       1 <0>         0.5084
      4 O1         -1.8956    4.4738    0.1762 O.2       1 <0>        -0.4669
      5 C3          0.4140    4.6017   -0.1163 C.2       1 <0>         0.0634
      6 N2          1.5380    3.9407   -0.1287 N.2       1 <0>        -0.1777
      7 N3          1.5393    2.5628    0.1185 N.am      1 <0>        -0.4527
      8 C4          0.3932    1.9057    0.3704 C.2       1 <0>         0.6789
      9 O2          0.4233    0.7087    0.5818 O.2       1 <0>        -0.5327
     10 C5          2.8060    1.8269    0.1029 C.3       1 <0>         0.1443
     11 C6          3.0823    1.3171   -1.3129 C.3       1 <0>        -0.1367
     12 C7          4.4051    0.5485   -1.3292 C.3       1 <0>        -0.1456
     13 C8          4.6814    0.0387   -2.7450 C.3       1 <0>        -0.0029
     14 C9          7.0843    0.1963   -2.4877 C.3       1 <0>        -0.0008
     15 C10         8.3766   -0.6219   -2.4340 C.3       1 <0>         0.0217
     16 N4          8.5611   -1.3257   -3.7108 N.pl3     1 <0>        -0.4829
     17 C11         7.4284   -2.2213   -3.9837 C.3       1 <0>         0.0173
     18 C12         6.1361   -1.4030   -4.0374 C.3       1 <0>         0.0026
     19 C13         9.7664   -2.0260   -3.7256 C.ar      1 <0>         0.0812
     20 C14        10.4947   -2.1813   -2.5657 C.ar      1 <0>        -0.1408
     21 C15        11.6964   -2.8835   -2.5687 C.ar      1 <0>        -0.1158
     22 C16        12.1912   -3.4252   -3.7158 C.ar      1 <0>        -0.0881
     23 C17        11.4824   -3.2847   -4.9213 C.ar      1 <0>        -0.0708
     24 C18        10.2549   -2.5774   -4.9297 C.ar      1 <0>        -0.0049
     25 C19         9.5469   -2.4379   -6.1332 C.ar      1 <0>        -0.1649
     26 C20        10.0499   -2.9838   -7.2801 C.ar      1 <0>         0.1412
     27 C21        11.2610   -3.6818   -7.2702 C.ar      1 <0>        -0.1852
     28 C22        11.9704   -3.8345   -6.1198 C.ar      1 <0>        -0.0583
     29 O3          9.3633   -2.8476   -8.4452 O.3       1 <0>        -0.3171
     30 C23         9.9390   -3.4413   -9.6106 C.3       1 <0>         0.0231
     31 H1         -2.2167    1.8112    1.7308 H         1 <0>         0.0809
     32 H2         -2.8540    2.2926    0.1401 H         1 <0>         0.0986
     33 H3         -1.9180    0.7877    0.3055 H         1 <0>         0.0965
     34 H4          0.4017    5.6648   -0.3060 H         1 <0>         0.2278
     35 H5          3.6143    2.4882    0.4152 H         1 <0>         0.1043
     36 H6          2.7433    0.9812    0.7878 H         1 <0>         0.1061
     37 H7          2.2740    0.6558   -1.6252 H         1 <0>         0.0811
     38 H8          3.1449    2.1627   -1.9978 H         1 <0>         0.0840
     39 H9          5.2134    1.2098   -1.0169 H         1 <0>         0.0927
     40 H10         4.3425   -0.2971   -0.6443 H         1 <0>         0.0923
     41 H11         3.8731   -0.6226   -3.0573 H         1 <0>         0.1313
     42 H12         4.7441    0.8843   -3.4299 H         1 <0>         0.1342
     43 H13         7.1581    0.9411   -3.2801 H         1 <0>         0.1413
     44 H14         6.9304    0.6962   -1.5314 H         1 <0>         0.1384
     45 H15         8.3135   -1.3486   -1.6240 H         1 <0>         0.0709
     46 H16         9.2218    0.0441   -2.2604 H         1 <0>         0.1291
     47 H17         7.3545   -2.9661   -3.1914 H         1 <0>         0.0693
     48 H18         7.5822   -2.7212   -4.9400 H         1 <0>         0.1333
     49 H19         5.2909   -2.0691   -4.2110 H         1 <0>         0.1378
     50 H20         6.1987   -0.6764   -4.8475 H         1 <0>         0.1413
     51 H21        10.1265   -1.7571   -1.6432 H         1 <0>         0.1270
     52 H22        12.2479   -2.9965   -1.6471 H         1 <0>         0.1296
     53 H23        13.1276   -3.9630   -3.6992 H         1 <0>         0.1330
     54 H24         8.6099   -1.9012   -6.1528 H         1 <0>         0.1365
     55 H25        11.6388   -4.1055   -8.1890 H         1 <0>         0.1364
     56 H26        12.9046   -4.3763   -6.1269 H         1 <0>         0.1387
     57 H27         9.2919   -3.2592  -10.4686 H         1 <0>         0.1058
     58 H28        10.9195   -3.0024   -9.7954 H         1 <0>         0.0600
     59 H29        10.0448   -4.5152   -9.4568 H         1 <0>         0.0595
     60 N5          5.9513   -0.7185   -2.7404 N.4       1 <0>        -0.3980
     61 H30         5.9174   -1.4221   -1.9934 H         1 <0>         0.4253
@<TRIPOS>BOND
     1    1    2 1
     2    1   31 1
     3    1   32 1
     4    1   33 1
     5    2    8 am
     6    2    3 am
     7    3    4 2
     8    3    5 1
     9    5    6 2
    10    5   34 1
    11    6    7 1
    12    7    8 am
    13    7   10 1
    14    8    9 2
    15   10   11 1
    16   10   35 1
    17   10   36 1
    18   11   12 1
    19   11   37 1
    20   11   38 1
    21   12   13 1
    22   12   39 1
    23   12   40 1
    24   13   41 1
    25   13   42 1
    26   13   60 1
    27   14   15 1
    28   14   43 1
    29   14   44 1
    30   14   60 1
    31   15   16 1
    32   15   45 1
    33   15   46 1
    34   16   17 1
    35   16   19 1
    36   17   18 1
    37   17   47 1
    38   17   48 1
    39   18   49 1
    40   18   50 1
    41   18   60 1
    42   19   24 ar
    43   19   20 ar
    44   20   21 ar
    45   20   51 1
    46   21   22 ar
    47   21   52 1
    48   22   23 ar
    49   22   53 1
    50   23   28 ar
    51   23   24 ar
    52   24   25 ar
    53   25   26 ar
    54   25   54 1
    55   26   27 ar
    56   26   29 1
    57   27   28 ar
    58   27   55 1
    59   28   56 1
    60   29   30 1
    61   30   57 1
    62   30   58 1
    63   30   59 1
    64   60   61 1
@<TRIPOS>MOLECULE
ZINC00601304
   50    53     0     0     0
SMALL
USER_CHARGES

@<TRIPOS>ATOM
      1 C1         -0.0848    1.4532   -0.3643 C.3       1 <0>         0.0157
      2 O1         -0.0673    0.0248   -0.4029 O.3       1 <0>        -0.2899
      3 C2         -1.2697   -0.6091   -0.3507 C.ar      1 <0>         0.1141
      4 C3         -2.4181    0.1263   -0.2712 C.ar      1 <0>        -0.1159
      5 C4         -3.6565   -0.5247   -0.2178 C.ar      1 <0>        -0.1900
      6 C5         -3.7118   -1.9398   -0.2465 C.ar      1 <0>         0.2208
      7 C6         -2.5225   -2.6738   -0.3282 C.ar      1 <0>        -0.2298
      8 C7         -1.3169   -2.0092   -0.3848 C.ar      1 <0>         0.2171
      9 O2         -0.1616   -2.7187   -0.4697 O.3       1 <0>        -0.2781
     10 C8         -0.2756   -4.1428   -0.5007 C.3       1 <0>         0.0126
     11 N1         -4.9113   -2.5410   -0.1946 N.ar      1 <0>        -0.5852
     12 C9         -6.0151   -1.8231   -0.1184 C.ar      1 <0>         0.6808
     13 N2         -6.0075   -0.4933   -0.0894 N.ar      1 <0>        -0.5933
     14 C10        -4.8747    0.1928   -0.1354 C.ar      1 <0>         0.5614
     15 N3         -4.8820    1.5717   -0.1036 N.pl3     1 <0>        -0.7723
     16 N4         -7.2317   -2.4807   -0.0668 N.pl3     1 <0>        -0.5638
     17 C11        -7.2984   -3.9422   -0.2055 C.3       1 <0>         0.0875
     18 C12        -8.0309   -4.5172    1.0132 C.3       1 <0>         0.0811
     19 N5         -9.2792   -3.7665    1.2081 N.am      1 <0>        -0.6161
     20 C13        -9.2125   -2.3049    1.3468 C.3       1 <0>         0.0965
     21 C14        -8.4794   -1.7305    0.1337 C.3       1 <0>         0.1036
     22 C15       -10.4640   -4.4068    1.2583 C.2       1 <0>         0.6126
     23 O3        -11.4993   -3.7686    1.3005 O.2       1 <0>        -0.5007
     24 C16       -10.5057   -5.8728    1.2622 C.2       1 <0>        -0.0999
     25 C17       -11.6286   -6.6439    1.1675 C.2       1 <0>        -0.0980
     26 C18       -11.2046   -7.9813    1.2107 C.2       1 <0>        -0.2186
     27 C19        -9.8585   -7.9681    1.3284 C.2       1 <0>        -0.0023
     28 O4         -9.4406   -6.6959    1.3540 O.3       1 <0>        -0.1695
     29 H1          0.9367    1.8304   -0.4129 H         1 <0>         0.1175
     30 H2         -0.6531    1.8327   -1.2135 H         1 <0>         0.0636
     31 H3         -0.5513    1.7859    0.5629 H         1 <0>         0.0637
     32 H4         -2.3709    1.2050   -0.2492 H         1 <0>         0.1589
     33 H5         -2.5500   -3.7532   -0.3508 H         1 <0>         0.1674
     34 H6         -0.7651   -4.4880    0.4100 H         1 <0>         0.0684
     35 H7         -0.8669   -4.4412   -1.3664 H         1 <0>         0.0684
     36 H8          0.7180   -4.5855   -0.5693 H         1 <0>         0.1203
     37 H9         -4.0457    2.0621   -0.1379 H         1 <0>         0.4288
     38 H10        -5.7233    2.0512   -0.0471 H         1 <0>         0.4313
     39 H11        -7.8428   -4.1990   -1.1142 H         1 <0>         0.1106
     40 H12        -6.2893   -4.3517   -0.2526 H         1 <0>         0.0927
     41 H13        -8.2596   -5.5687    0.8400 H         1 <0>         0.1354
     42 H14        -7.4023   -4.4179    1.8982 H         1 <0>         0.0848
     43 H15       -10.2215   -1.8954    1.3938 H         1 <0>         0.1238
     44 H16        -8.6680   -2.0481    2.2555 H         1 <0>         0.0830
     45 H17        -8.2501   -0.6797    0.3105 H         1 <0>         0.1273
     46 H18        -9.1099   -1.8262   -0.7503 H         1 <0>         0.0981
     47 H19       -12.6459   -6.2927    1.0769 H         1 <0>         0.1643
     48 H20       -11.8356   -8.8563    1.1598 H         1 <0>         0.1626
     49 H21        -9.2239   -8.8399    1.3885 H         1 <0>         0.2151
     50 H22        -4.9664   -3.5093   -0.2136 H         1 <0>         0.4337
@<TRIPOS>BOND
     1    1    2 1
     2    1   29 1
     3    1   30 1
     4    1   31 1
     5    2    3 1
     6    3    8 ar
     7    3    4 ar
     8    4    5 ar
     9    4   32 1
    10    5   14 ar
    11    5    6 ar
    12    6    7 ar
    13    6   11 ar
    14    7    8 ar
    15    7   33 1
    16    8    9 1
    17    9   10 1
    18   10   34 1
    19   10   35 1
    20   10   36 1
    21   11   12 ar
    22   11   50 1
    23   12   13 ar
    24   12   16 1
    25   13   14 ar
    26   14   15 1
    27   15   37 1
    28   15   38 1
    29   16   21 1
    30   16   17 1
    31   17   18 1
    32   17   39 1
    33   17   40 1
    34   18   19 1
    35   18   41 1
    36   18   42 1
    37   19   20 1
    38   19   22 am
    39   20   21 1
    40   20   43 1
    41   20   44 1
    42   21   45 1
    43   21   46 1
    44   22   23 2
    45   22   24 1
    46   24   28 1
    47   24   25 2
    48   25   26 1
    49   25   47 1
    50   26   27 2
    51   26   48 1
    52   27   28 1
    53   27   49 1
@<TRIPOS>MOLECULE
ZINC20534273
   43    46     0     0     0
SMALL
USER_CHARGES
2-[[4-(4-chlorophenyl)piperazin-1-yl]methyl]imidazo[1,2-a]pyridine
@<TRIPOS>ATOM
      1 C1         -1.2403    1.7584    0.0175 C.2       1 <0>        -0.0215
      2 C2         -0.0126    1.0758    0.0080 C.2       1 <0>        -0.1135
      3 C3          1.1486    1.7634    0.0006 C.2       1 <0>         0.0831
      4 N1          1.1482    3.1282    0.0074 N.pl3     1 <0>        -0.3270
      5 C4          2.1557    4.0542    0.0023 C.2       1 <0>        -0.0298
      6 C5          1.5760    5.2745    0.0141 C.2       1 <0>         0.1041
      7 N2          0.2503    5.1168    0.0262 N.pl3     1 <0>        -0.5121
      8 C6         -0.0339    3.8221    0.0225 C.cat     1 <0>         0.3152
      9 C7         -1.2550    3.1185    0.0308 C.2       1 <0>        -0.1231
     10 C8          2.3045    6.5938    0.0137 C.3       1 <0>         0.1020
     11 N3          2.4215    7.0880   -1.3647 N.3       1 <0>        -0.5402
     12 C9          3.2888    6.2132   -2.1660 C.3       1 <0>         0.0471
     13 C10         3.3209    6.7162   -3.6112 C.3       1 <0>         0.0579
     14 N4          3.8100    8.1018   -3.6341 N.pl3     1 <0>        -0.4879
     15 C11         2.9427    8.9767   -2.8328 C.3       1 <0>         0.0479
     16 C12         2.9106    8.4736   -1.3876 C.3       1 <0>         0.0550
     17 C13         3.9214    8.5720   -4.9453 C.ar      1 <0>         0.1085
     18 C14         3.2491    9.7247   -5.3306 C.ar      1 <0>        -0.1566
     19 C15         3.3660   10.1906   -6.6255 C.ar      1 <0>        -0.0818
     20 C16         4.1420    9.5031   -7.5421 C.ar      1 <0>        -0.0557
     21 C17         4.8083    8.3512   -7.1625 C.ar      1 <0>        -0.0837
     22 C18         4.7000    7.8842   -5.8673 C.ar      1 <0>        -0.1262
     23 Cl1         4.2804   10.0872   -9.1710 Cl        1 <0>        -0.0636
     24 H1         -2.1682    1.2058    0.0189 H         1 <0>         0.1741
     25 H2          0.0021   -0.0041    0.0020 H         1 <0>         0.1825
     26 H3          2.0869    1.2287   -0.0113 H         1 <0>         0.1990
     27 H4          3.2158    3.8481   -0.0091 H         1 <0>         0.2210
     28 H5         -2.1929    3.6538    0.0422 H         1 <0>         0.1779
     29 H6          1.7441    7.3222    0.6181 H         1 <0>         0.1145
     30 H7          3.3089    6.4582    0.4411 H         1 <0>         0.0904
     31 H8          4.3069    6.2254   -1.7498 H         1 <0>         0.0591
     32 H9          2.8956    5.1861   -2.1429 H         1 <0>         0.0798
     33 H10         3.9921    6.0795   -4.2062 H         1 <0>         0.0935
     34 H11         2.3068    6.6772   -4.0356 H         1 <0>         0.0541
     35 H12         3.3361   10.0037   -2.8559 H         1 <0>         0.0981
     36 H13         1.9246    8.9646   -3.2490 H         1 <0>         0.0595
     37 H14         2.2391    9.1093   -0.7919 H         1 <0>         0.0946
     38 H15         3.9244    8.5117   -0.9625 H         1 <0>         0.0590
     39 H16         2.6392   10.2588   -4.6170 H         1 <0>         0.1358
     40 H17         2.8476   11.0897   -6.9242 H         1 <0>         0.1365
     41 H18         5.4138    7.8170   -7.8797 H         1 <0>         0.1379
     42 H19         5.2205    6.9854   -5.5715 H         1 <0>         0.1334
     43 H20        -0.4083    5.9978    0.0370 H         1 <0>         0.5014
@<TRIPOS>BOND
     1    1    9 2
     2    1    2 1
     3    1   24 1
     4    2    3 2
     5    2   25 1
     6    3    4 1
     7    3   26 1
     8    4    8 1
     9    4    5 1
    10    5    6 2
    11    5   27 1
    12    6    7 1
    13    6   10 1
    14    7    8 2
    15    7   43 1
    16    8    9 1
    17    9   28 1
    18   10   11 1
    19   10   29 1
    20   10   30 1
    21   11   16 1
    22   11   12 1
    23   12   13 1
    24   12   31 1
    25   12   32 1
    26   13   14 1
    27   13   33 1
    28   13   34 1
    29   14   15 1
    30   14   17 1
    31   15   16 1
    32   15   35 1
    33   15   36 1
    34   16   37 1
    35   16   38 1
    36   17   22 ar
    37   17   18 ar
    38   18   19 ar
    39   18   39 1
    40   19   20 ar
    41   19   40 1
    42   20   21 ar
    43   20   23 1
    44   21   22 ar
    45   21   41 1
    46   22   42 1
@<TRIPOS>MOLECULE
ZINC20534273
   42    45     0     0     0
SMALL
USER_CHARGES
2-[[4-(4-chlorophenyl)piperazin-1-yl]methyl]imidazo[1,2-a]pyridine
@<TRIPOS>ATOM
      1 C1         -1.2403    1.7584    0.0175 C.2       1 <0>        -0.1026
      2 C2         -0.0126    1.0758    0.0080 C.2       1 <0>        -0.1401
      3 C3          1.1486    1.7634    0.0006 C.2       1 <0>         0.0529
      4 N1          1.1482    3.1282    0.0074 N.pl3     1 <0>        -0.3610
      5 C4          2.1557    4.0542    0.0023 C.2       1 <0>        -0.0967
      6 C5          1.5760    5.2745    0.0141 C.2       1 <0>         0.0728
      7 N2          0.2503    5.1168    0.0262 N.2       1 <0>        -0.4736
      8 C6         -0.0339    3.8221    0.0225 C.2       1 <0>         0.2228
      9 C7         -1.2550    3.1185    0.0308 C.2       1 <0>        -0.0778
     10 C8          2.3045    6.5938    0.0137 C.3       1 <0>         0.1347
     11 N3          2.4215    7.0880   -1.3647 N.3       1 <0>        -0.5317
     12 C9          3.2888    6.2132   -2.1660 C.3       1 <0>         0.0530
     13 C10         3.3209    6.7162   -3.6112 C.3       1 <0>         0.0601
     14 N4          3.8100    8.1018   -3.6341 N.pl3     1 <0>        -0.4891
     15 C11         2.9427    8.9767   -2.8328 C.3       1 <0>         0.0500
     16 C12         2.9106    8.4736   -1.3876 C.3       1 <0>         0.0560
     17 C13         3.9214    8.5720   -4.9453 C.ar      1 <0>         0.1189
     18 C14         3.2491    9.7247   -5.3306 C.ar      1 <0>        -0.1590
     19 C15         3.3660   10.1906   -6.6255 C.ar      1 <0>        -0.0817
     20 C16         4.1420    9.5031   -7.5421 C.ar      1 <0>        -0.0618
     21 C17         4.8083    8.3512   -7.1625 C.ar      1 <0>        -0.0842
     22 C18         4.7000    7.8842   -5.8673 C.ar      1 <0>        -0.1294
     23 Cl1         4.2804   10.0872   -9.1710 Cl        1 <0>        -0.0730
     24 H1         -2.1682    1.2058    0.0189 H         1 <0>         0.1438
     25 H2          0.0021   -0.0041    0.0020 H         1 <0>         0.1517
     26 H3          2.0869    1.2287   -0.0113 H         1 <0>         0.1627
     27 H4          3.2158    3.8481   -0.0091 H         1 <0>         0.1794
     28 H5         -2.1929    3.6538    0.0422 H         1 <0>         0.1514
     29 H6          1.7441    7.3222    0.6181 H         1 <0>         0.0961
     30 H7          3.3089    6.4582    0.4411 H         1 <0>         0.0550
     31 H8          4.3069    6.2254   -1.7498 H         1 <0>         0.0464
     32 H9          2.8956    5.1861   -2.1429 H         1 <0>         0.0849
     33 H10         3.9921    6.0795   -4.2062 H         1 <0>         0.0874
     34 H11         2.3068    6.6772   -4.0356 H         1 <0>         0.0550
     35 H12         3.3361   10.0037   -2.8559 H         1 <0>         0.0908
     36 H13         1.9246    8.9646   -3.2490 H         1 <0>         0.0594
     37 H14         2.2391    9.1093   -0.7919 H         1 <0>         0.0896
     38 H15         3.9244    8.5117   -0.9625 H         1 <0>         0.0475
     39 H16         2.6392   10.2588   -4.6170 H         1 <0>         0.1369
     40 H17         2.8476   11.0897   -6.9242 H         1 <0>         0.1339
     41 H18         5.4138    7.8170   -7.8797 H         1 <0>         0.1350
     42 H19         5.2205    6.9854   -5.5715 H         1 <0>         0.1334
@<TRIPOS>BOND
     1    1    9 2
     2    1    2 1
     3    1   24 1
     4    2    3 2
     5    2   25 1
     6    3    4 1
     7    3   26 1
     8    4    8 1
     9    4    5 1
    10    5    6 2
    11    5   27 1
    12    6    7 1
    13    6   10 1
    14    7    8 2
    15    8    9 1
    16    9   28 1
    17   10   11 1
    18   10   29 1
    19   10   30 1
    20   11   16 1
    21   11   12 1
    22   12   13 1
    23   12   31 1
    24   12   32 1
    25   13   14 1
    26   13   33 1
    27   13   34 1
    28   14   15 1
    29   14   17 1
    30   15   16 1
    31   15   35 1
    32   15   36 1
    33   16   37 1
    34   16   38 1
    35   17   22 ar
    36   17   18 ar
    37   18   19 ar
    38   18   39 1
    39   19   20 ar
    40   19   40 1
    41   20   21 ar
    42   20   23 1
    43   21   22 ar
    44   21   41 1
    45   22   42 1
@<TRIPOS>MOLECULE
ZINC20668191
   47    50     0     0     0
SMALL
USER_CHARGES
2-[[4-(2-methoxyphenyl)piperazin-1-yl]methyl]imidazo[1,2-a]pyridine
@<TRIPOS>ATOM
      1 C1          5.0984   12.0164   -4.4692 C.3       1 <0>         0.0203
      2 O1          4.6646   10.6935   -4.1472 O.3       1 <0>        -0.3076
      3 C2          4.3516    9.8758   -5.1880 C.ar      1 <0>         0.1219
      4 C3          4.4601   10.3365   -6.4897 C.ar      1 <0>        -0.1888
      5 C4          4.1423    9.5037   -7.5469 C.ar      1 <0>        -0.0936
      6 C5          3.7159    8.2103   -7.3091 C.ar      1 <0>        -0.1339
      7 C6          3.6096    7.7413   -6.0132 C.ar      1 <0>        -0.1310
      8 C7          3.9215    8.5727   -4.9474 C.ar      1 <0>         0.0674
      9 N1          3.8100    8.1018   -3.6341 N.pl3     1 <0>        -0.4789
     10 C8          2.7458    8.8101   -2.9092 C.3       1 <0>         0.0585
     11 C9          2.7092    8.3235   -1.4586 C.3       1 <0>         0.0571
     12 N2          2.4809    6.8719   -1.4372 N.3       1 <0>        -0.5400
     13 C10         3.5451    6.1636   -2.1621 C.3       1 <0>         0.0493
     14 C11         3.5817    6.6502   -3.6127 C.3       1 <0>         0.0520
     15 C12         2.3638    6.3776   -0.0588 C.3       1 <0>         0.1013
     16 C13         1.8902    4.9471   -0.0766 C.2       1 <0>         0.1058
     17 C14         2.6823    3.8539   -0.0248 C.2       1 <0>        -0.0302
     18 N3          1.8629    2.7588   -0.0643 N.pl3     1 <0>        -0.3268
     19 C15         2.1130    1.4172   -0.0417 C.2       1 <0>         0.0833
     20 C16         1.0990    0.5282   -0.0940 C.2       1 <0>        -0.1140
     21 C17        -0.2306    0.9738   -0.1781 C.2       1 <0>        -0.0222
     22 C18        -0.4942    2.3081   -0.1951 C.2       1 <0>        -0.1229
     23 C19         0.5757    3.2239   -0.1403 C.cat     1 <0>         0.3145
     24 N4          0.6178    4.5488   -0.1463 N.pl3     1 <0>        -0.5120
     25 H1          5.3171   12.5664   -3.5420 H         1 <0>         0.1035
     26 H2          4.3053   12.5370   -5.0259 H         1 <0>         0.0566
     27 H3          6.0067   11.9641   -5.0875 H         1 <0>         0.0581
     28 H4          4.7932   11.3462   -6.6790 H         1 <0>         0.1331
     29 H5          4.2279    9.8647   -8.5613 H         1 <0>         0.1280
     30 H6          3.4692    7.5634   -8.1380 H         1 <0>         0.1262
     31 H7          3.2802    6.7292   -5.8303 H         1 <0>         0.1296
     32 H8          2.9457    9.8916   -2.9292 H         1 <0>         0.1008
     33 H9          1.7772    8.6073   -3.3895 H         1 <0>         0.0485
     34 H10         3.6683    8.5521   -0.9709 H         1 <0>         0.0587
     35 H11         1.8946    8.8317   -0.9218 H         1 <0>         0.0913
     36 H12         4.5137    6.3665   -1.6817 H         1 <0>         0.0578
     37 H13         3.3453    5.0821   -2.1421 H         1 <0>         0.0773
     38 H14         2.6227    6.4226   -4.1011 H         1 <0>         0.0523
     39 H15         4.3964    6.1429   -4.1502 H         1 <0>         0.0908
     40 H16         3.3451    6.4328    0.4351 H         1 <0>         0.0898
     41 H17         1.6405    6.9964    0.4925 H         1 <0>         0.1136
     42 H18         3.7606    3.8459    0.0364 H         1 <0>         0.2211
     43 H19         3.1317    1.0638    0.0184 H         1 <0>         0.1988
     44 H20         1.3109   -0.5306   -0.0756 H         1 <0>         0.1821
     45 H21        -1.0399    0.2602   -0.2243 H         1 <0>         0.1737
     46 H22        -1.5127    2.6622   -0.2555 H         1 <0>         0.1776
     47 H23        -0.1898    5.2939   -0.1969 H         1 <0>         0.5014
@<TRIPOS>BOND
     1    1    2 1
     2    1   25 1
     3    1   26 1
     4    1   27 1
     5    2    3 1
     6    3    8 ar
     7    3    4 ar
     8    4    5 ar
     9    4   28 1
    10    5    6 ar
    11    5   29 1
    12    6    7 ar
    13    6   30 1
    14    7    8 ar
    15    7   31 1
    16    8    9 1
    17    9   14 1
    18    9   10 1
    19   10   11 1
    20   10   32 1
    21   10   33 1
    22   11   12 1
    23   11   34 1
    24   11   35 1
    25   12   13 1
    26   12   15 1
    27   13   14 1
    28   13   36 1
    29   13   37 1
    30   14   38 1
    31   14   39 1
    32   15   16 1
    33   15   40 1
    34   15   41 1
    35   16   24 1
    36   16   17 2
    37   17   18 1
    38   17   42 1
    39   18   23 1
    40   18   19 1
    41   19   20 2
    42   19   43 1
    43   20   21 1
    44   20   44 1
    45   21   22 2
    46   21   45 1
    47   22   23 1
    48   22   46 1
    49   23   24 2
    50   24   47 1
@<TRIPOS>MOLECULE
ZINC03961758
   68    71     0     0     0
SMALL
USER_CHARGES
N-[3-[1-[[4-(3,4-difluorophenoxy)phenyl]methyl]-4-piperidyl]-4-methyl-phenyl]-2-methyl-propanamide
@<TRIPOS>ATOM
      1 C1        -11.4774   -0.2377   -4.1281 C.3       1 <0>        -0.1190
      2 C2        -10.4099   -0.7752   -5.0461 C.ar      1 <0>        -0.0895
      3 C3        -10.7160   -1.0703   -6.3621 C.ar      1 <0>        -0.0922
      4 C4         -9.7402   -1.5634   -7.2057 C.ar      1 <0>        -0.1081
      5 C5         -8.4501   -1.7625   -6.7313 C.ar      1 <0>         0.1512
      6 C6         -8.1445   -1.4595   -5.4111 C.ar      1 <0>        -0.1406
      7 C7         -9.1265   -0.9719   -4.5709 C.ar      1 <0>        -0.0766
      8 C8         -8.7971   -0.6481   -3.1364 C.3       1 <0>        -0.0584
      9 C9         -8.1920   -1.8810   -2.4595 C.3       1 <0>        -0.1410
     10 C10        -7.8036   -1.5286   -1.0218 C.3       1 <0>        -0.0014
     11 C11        -7.4071    0.7822   -1.6344 C.3       1 <0>        -0.0072
     12 C12        -7.7836    0.4988   -3.0904 C.3       1 <0>        -0.1381
     13 C13        -6.3322   -0.1541    0.3222 C.3       1 <0>         0.0481
     14 C14        -5.1697    0.8018    0.2450 C.ar      1 <0>        -0.1615
     15 C15        -5.3924    2.1653    0.3018 C.ar      1 <0>        -0.0790
     16 C16        -4.3286    3.0436    0.2312 C.ar      1 <0>        -0.1313
     17 C17        -3.0356    2.5566    0.1033 C.ar      1 <0>         0.1219
     18 C18        -2.8154    1.1880    0.0408 C.ar      1 <0>        -0.1151
     19 C19        -3.8823    0.3138    0.1170 C.ar      1 <0>        -0.0753
     20 O1         -1.9874    3.4184    0.0337 O.3       1 <0>        -0.2510
     21 C20        -1.5829    4.0251    1.1808 C.ar      1 <0>         0.1359
     22 C21        -2.2928    3.8302    2.3569 C.ar      1 <0>        -0.1795
     23 C22        -1.8844    4.4511    3.5216 C.ar      1 <0>        -0.0839
     24 C23        -0.7605    5.2588    3.5192 C.ar      1 <0>         0.0469
     25 C24        -0.0457    5.4503    2.3466 C.ar      1 <0>         0.1143
     26 C25        -0.4562    4.8340    1.1780 C.ar      1 <0>        -0.1488
     27 F1          1.0513    6.2389    2.3451 F         1 <0>        -0.1132
     28 F2         -0.3593    5.8607    4.6602 F         1 <0>        -0.1207
     29 N1         -7.4589   -2.2615   -7.5836 N.am      1 <0>        -0.6794
     30 C26        -7.4578   -1.9215   -8.8877 C.2       1 <0>         0.5168
     31 O2         -8.2537   -1.1056   -9.3024 O.2       1 <0>        -0.5104
     32 C27        -6.4678   -2.5552   -9.8308 C.3       1 <0>        -0.1123
     33 C28        -6.6744   -4.0711   -9.8442 C.3       1 <0>        -0.1471
     34 C29        -6.6786   -1.9993  -11.2406 C.3       1 <0>        -0.1376
     35 H1        -11.4235    0.8508   -4.1063 H         1 <0>         0.0724
     36 H2        -12.4578   -0.5457   -4.4915 H         1 <0>         0.0720
     37 H3        -11.3230   -0.6294   -3.1227 H         1 <0>         0.0665
     38 H4        -11.7194   -0.9152   -6.7304 H         1 <0>         0.1310
     39 H5         -9.9800   -1.7943   -8.2331 H         1 <0>         0.1361
     40 H6         -7.1411   -1.6087   -5.0405 H         1 <0>         0.1208
     41 H7         -9.7053   -0.3529   -2.6108 H         1 <0>         0.1037
     42 H8         -7.3056   -2.1992   -3.0083 H         1 <0>         0.0886
     43 H9         -8.9246   -2.6880   -2.4511 H         1 <0>         0.1151
     44 H10        -7.3593   -2.4003   -0.5415 H         1 <0>         0.1307
     45 H11        -8.6927   -1.2237   -0.4698 H         1 <0>         0.1324
     46 H12        -8.2981    1.0763   -1.0795 H         1 <0>         0.1321
     47 H13        -6.6748    1.5888   -1.5991 H         1 <0>         0.1292
     48 H14        -6.8908    0.2181   -3.6491 H         1 <0>         0.0879
     49 H15        -8.2244    1.3919   -3.5334 H         1 <0>         0.1137
     50 H16        -6.0062   -1.0860    0.7840 H         1 <0>         0.1379
     51 H17        -7.1279    0.2892    0.9209 H         1 <0>         0.1394
     52 H18        -6.3989    2.5439    0.4017 H         1 <0>         0.1411
     53 H19        -4.5031    4.1085    0.2760 H         1 <0>         0.1464
     54 H20        -1.8105    0.8065   -0.0636 H         1 <0>         0.1476
     55 H21        -3.7111   -0.7516    0.0729 H         1 <0>         0.1420
     56 H22        -3.1674    3.1966    2.3609 H         1 <0>         0.1427
     57 H23        -2.4401    4.3025    4.4356 H         1 <0>         0.1551
     58 H24         0.1002    4.9824    0.2643 H         1 <0>         0.1607
     59 H25        -6.7725   -2.8522   -7.2358 H         1 <0>         0.4107
     60 H26        -5.4543   -2.3295   -9.4990 H         1 <0>         0.1007
     61 H27        -6.5242   -4.4671   -8.8398 H         1 <0>         0.0582
     62 H28        -7.6879   -4.2967  -10.1759 H         1 <0>         0.0639
     63 H29        -5.9583   -4.5294  -10.5263 H         1 <0>         0.0754
     64 H30        -6.5314   -0.9193  -11.2310 H         1 <0>         0.0638
     65 H31        -5.9625   -2.4576  -11.9227 H         1 <0>         0.0682
     66 H32        -7.6921   -2.2249  -11.5723 H         1 <0>         0.0648
     67 N2         -6.8084   -0.4357   -1.0478 N.4       1 <0>        -0.3933
     68 H33        -6.0104   -0.7257   -1.6251 H         1 <0>         0.4257
@<TRIPOS>BOND
     1    1    2 1
     2    1   35 1
     3    1   36 1
     4    1   37 1
     5    2    7 ar
     6    2    3 ar
     7    3    4 ar
     8    3   38 1
     9    4    5 ar
    10    4   39 1
    11    5    6 ar
    12    5   29 1
    13    6    7 ar
    14    6   40 1
    15    7    8 1
    16    8   12 1
    17    8    9 1
    18    8   41 1
    19    9   10 1
    20    9   42 1
    21    9   43 1
    22   10   44 1
    23   10   45 1
    24   10   67 1
    25   11   12 1
    26   11   46 1
    27   11   47 1
    28   11   67 1
    29   12   48 1
    30   12   49 1
    31   13   14 1
    32   13   50 1
    33   13   51 1
    34   13   67 1
    35   14   19 ar
    36   14   15 ar
    37   15   16 ar
    38   15   52 1
    39   16   17 ar
    40   16   53 1
    41   17   18 ar
    42   17   20 1
    43   18   19 ar
    44   18   54 1
    45   19   55 1
    46   20   21 1
    47   21   26 ar
    48   21   22 ar
    49   22   23 ar
    50   22   56 1
    51   23   24 ar
    52   23   57 1
    53   24   25 ar
    54   24   28 1
    55   25   26 ar
    56   25   27 1
    57   26   58 1
    58   29   30 am
    59   29   59 1
    60   30   31 2
    61   30   32 1
    62   32   33 1
    63   32   34 1
    64   32   60 1
    65   33   61 1
    66   33   62 1
    67   33   63 1
    68   34   64 1
    69   34   65 1
    70   34   66 1
    71   67   68 1
@<TRIPOS>MOLECULE
ZINC03806063
   68    70     0     0     0
SMALL
USER_CHARGES
1-(3-hydroxypropyl)-5-[2-[2-[2-(2,2,2-trifluoroethoxy)phenoxy]ethylamino]propyl]indoline-7-carboxamide
@<TRIPOS>ATOM
      1 C1          0.2428   -0.0809    2.7850 C.3       1 <0>        -0.1825
      2 C2          0.2855    1.3868    2.3548 C.3       1 <0>         0.0317
      3 H1          1.3054    1.6549    2.0788 H         1 <0>         0.1411
      4 C3         -0.1786    2.2716    3.5135 C.3       1 <0>        -0.0958
      5 C4         -0.0085    3.7211    3.1380 C.ar      1 <0>        -0.1497
      6 C5          1.2151    4.3457    3.3254 C.ar      1 <0>        -0.0488
      7 C6          1.3830    5.6690    2.9810 C.ar      1 <0>        -0.1338
      8 C7          0.3259    6.4027    2.4546 C.ar      1 <0>         0.1784
      9 C8         -0.9171    5.7684    2.2678 C.ar      1 <0>        -0.1297
     10 C9         -1.0704    4.4251    2.6145 C.ar      1 <0>        -0.0921
     11 C10        -2.0538    6.5211    1.7067 C.2       1 <0>         0.5505
     12 O1         -1.8920    7.6577    1.3059 O.2       1 <0>        -0.5006
     13 N1         -3.2724    5.9494    1.6379 N.am      1 <0>        -0.8555
     14 N2          0.7065    7.7169    2.1983 N.pl3     1 <0>        -0.4765
     15 C11         2.1839    7.7637    2.1496 C.3       1 <0>         0.0408
     16 C12         2.5888    6.5844    3.0639 C.3       1 <0>        -0.1150
     17 C13         0.1845    8.6263    3.2271 C.3       1 <0>         0.0726
     18 C14         0.4051   10.0749    2.7867 C.3       1 <0>        -0.1178
     19 C15        -0.1385   11.0221    3.8583 C.3       1 <0>         0.0782
     20 O2          0.0675   12.3750    3.4470 O.3       1 <0>        -0.5721
     21 C16         0.0684    1.2074   -0.0501 C.3       1 <0>         0.0037
     22 C17        -0.8339    1.5523   -1.2365 C.3       1 <0>         0.0230
     23 O3         -2.0211    0.7590   -1.1785 O.3       1 <0>        -0.3177
     24 C18        -2.8894    0.8702   -2.2192 C.ar      1 <0>         0.0929
     25 C19        -2.6599    1.8023   -3.2185 C.ar      1 <0>        -0.1635
     26 C20        -3.5408    1.9103   -4.2785 C.ar      1 <0>        -0.1067
     27 C21        -4.6572    1.0971   -4.3391 C.ar      1 <0>        -0.0968
     28 C22        -4.8950    0.1690   -3.3426 C.ar      1 <0>        -0.1674
     29 C23        -4.0133    0.0519   -2.2801 C.ar      1 <0>         0.1049
     30 O4         -4.2461   -0.8602   -1.2986 O.3       1 <0>        -0.2956
     31 C24        -5.3569   -1.7405   -1.4813 C.3       1 <0>         0.0110
     32 C25        -5.5155   -2.6252   -0.2431 C.3       1 <0>         0.4674
     33 F1         -5.8458   -1.8295    0.8592 F         1 <0>        -0.1749
     34 F2         -6.5325   -3.5599   -0.4650 F         1 <0>        -0.1652
     35 F3         -4.3134   -3.2950    0.0087 F         1 <0>        -0.1729
     36 H2          0.5735   -0.7112    1.9595 H         1 <0>         0.0834
     37 H3          0.9014   -0.2279    3.6409 H         1 <0>         0.1083
     38 H4         -0.7770   -0.3490    3.0610 H         1 <0>         0.0850
     39 H5         -1.2291    2.0719    3.7249 H         1 <0>         0.0999
     40 H6          0.4181    2.0532    4.3991 H         1 <0>         0.1244
     41 H7          2.0431    3.7900    3.7401 H         1 <0>         0.1346
     42 H8         -2.0231    3.9369    2.4719 H         1 <0>         0.1301
     43 H9         -3.4015    5.0427    1.9576 H         1 <0>         0.3941
     44 H10        -4.0203    6.4446    1.2687 H         1 <0>         0.4106
     45 H11         2.5544    8.7078    2.5491 H         1 <0>         0.0987
     46 H12         2.5427    7.6056    1.1325 H         1 <0>         0.0970
     47 H13         2.7457    6.9250    4.0873 H         1 <0>         0.0920
     48 H14         3.4792    6.0862    2.6804 H         1 <0>         0.0970
     49 H15        -0.8818    8.4465    3.3639 H         1 <0>         0.0833
     50 H16         0.7065    8.4490    4.1674 H         1 <0>         0.0464
     51 H17         1.4714   10.2547    2.6500 H         1 <0>         0.0721
     52 H18        -0.1168   10.2523    1.8464 H         1 <0>         0.0864
     53 H19        -1.2048   10.8423    3.9951 H         1 <0>         0.0464
     54 H20         0.3834   10.8447    4.7986 H         1 <0>         0.0440
     55 H21        -0.2537   13.0318    4.0799 H         1 <0>         0.3847
     56 H22         0.2692    0.1361   -0.0457 H         1 <0>         0.1450
     57 H23         1.0081    1.7528   -0.1376 H         1 <0>         0.1505
     58 H24        -1.1003    2.6085   -1.1954 H         1 <0>         0.0865
     59 H25        -0.3049    1.3470   -2.1671 H         1 <0>         0.1116
     60 H26        -1.7909    2.4418   -3.1711 H         1 <0>         0.1379
     61 H27        -3.3586    2.6344   -5.0588 H         1 <0>         0.1370
     62 H28        -5.3451    1.1873   -5.1667 H         1 <0>         0.1383
     63 H29        -5.7682   -0.4646   -3.3920 H         1 <0>         0.1421
     64 H30        -6.2643   -1.1548   -1.6281 H         1 <0>         0.1131
     65 H31        -5.1836   -2.3675   -2.3560 H         1 <0>         0.1142
     66 N3         -0.6122    1.5887    1.2018 N.4       1 <0>        -0.5218
     67 H32        -0.8828    2.5780    1.1525 H         1 <0>         0.4242
     68 H33        -1.4517    1.0098    1.3208 H         1 <0>         0.4378
@<TRIPOS>BOND
     1    1    2 1
     2    1   36 1
     3    1   37 1
     4    1   38 1
     5    2    3 1
     6    2    4 1
     7    2   66 1
     8    4    5 1
     9    4   39 1
    10    4   40 1
    11    5   10 ar
    12    5    6 ar
    13    6    7 ar
    14    6   41 1
    15    7   16 1
    16    7    8 ar
    17    8    9 ar
    18    8   14 1
    19    9   10 ar
    20    9   11 1
    21   10   42 1
    22   11   12 2
    23   11   13 am
    24   13   43 1
    25   13   44 1
    26   14   15 1
    27   14   17 1
    28   15   16 1
    29   15   45 1
    30   15   46 1
    31   16   47 1
    32   16   48 1
    33   17   18 1
    34   17   49 1
    35   17   50 1
    36   18   19 1
    37   18   51 1
    38   18   52 1
    39   19   20 1
    40   19   53 1
    41   19   54 1
    42   20   55 1
    43   21   22 1
    44   21   56 1
    45   21   57 1
    46   21   66 1
    47   22   23 1
    48   22   58 1
    49   22   59 1
    50   23   24 1
    51   24   29 ar
    52   24   25 ar
    53   25   26 ar
    54   25   60 1
    55   26   27 ar
    56   26   61 1
    57   27   28 ar
    58   27   62 1
    59   28   29 ar
    60   28   63 1
    61   29   30 1
    62   30   31 1
    63   31   32 1
    64   31   64 1
    65   31   65 1
    66   32   33 1
    67   32   34 1
    68   32   35 1
    69   66   67 1
    70   66   68 1
@<TRIPOS>MOLECULE
ZINC03917109
   63    66     0     0     0
SMALL
USER_CHARGES

@<TRIPOS>ATOM
      1 C1         -0.0173    1.4248    0.0099 C.3       1 <0>         0.0228
      2 O1          0.0021   -0.0041    0.0020 O.3       1 <0>        -0.3111
      3 C2          0.6063   -0.6076   -1.0566 C.ar      1 <0>         0.1291
      4 C3          1.1727    0.1584   -2.0619 C.ar      1 <0>        -0.2022
      5 C4          1.7862   -0.4565   -3.1379 C.ar      1 <0>        -0.0669
      6 C5          1.8369   -1.8361   -3.2138 C.ar      1 <0>        -0.1491
      7 C6          1.2745   -2.6077   -2.2144 C.ar      1 <0>        -0.0822
      8 C7          0.6620   -1.9977   -1.1294 C.ar      1 <0>         0.1088
      9 N1          0.0968   -2.7768   -0.1132 N.pl3     1 <0>        -0.6636
     10 C8         -1.3057   -3.2146   -0.1871 C.3       1 <0>         0.1216
     11 C9         -1.3569   -4.7253    0.0636 C.3       1 <0>        -0.0220
     12 N2         -0.6925   -5.0320    1.3366 N.4       1 <0>        -0.3806
     13 C10         0.7338   -4.6939    1.2505 C.3       1 <0>        -0.0274
     14 C11         0.8902   -3.1864    1.0559 C.3       1 <0>         0.1218
     15 C12        -0.8376   -6.4641    1.6301 C.3       1 <0>        -0.0087
     16 C13        -0.2558   -6.7628    3.0132 C.3       1 <0>        -0.1461
     17 C14        -0.4069   -8.2543    3.3189 C.3       1 <0>        -0.1300
     18 C15         0.1750   -8.5530    4.7020 C.3       1 <0>         0.1193
     19 N3          0.0302   -9.9811    4.9947 N.am      1 <0>        -0.7331
     20 C16         0.4752  -10.4775    6.1660 C.2       1 <0>         0.5643
     21 O2          0.9967   -9.7401    6.9797 O.2       1 <0>        -0.5315
     22 C17         0.3293  -11.9181    6.4612 C.ar      1 <0>        -0.1484
     23 C18        -0.2697  -12.7675    5.5136 C.ar      1 <0>        -0.0967
     24 C19        -0.4150  -14.0939    5.7614 C.ar      1 <0>        -0.1051
     25 C20         0.0356  -14.6361    6.9791 C.ar      1 <0>        -0.0320
     26 C21        -0.1038  -16.0058    7.2582 C.ar      1 <0>        -0.1147
     27 C22         0.3421  -16.5017    8.4450 C.ar      1 <0>        -0.0983
     28 C23         0.9368  -15.6705    9.3925 C.ar      1 <0>        -0.1143
     29 C24         1.0892  -14.3386    9.1579 C.ar      1 <0>        -0.0963
     30 C25         0.6411  -13.7901    7.9427 C.ar      1 <0>        -0.0651
     31 C26         0.7884  -12.4225    7.6665 C.ar      1 <0>        -0.0245
     32 H1          1.0053    1.8021    0.0021 H         1 <0>         0.0589
     33 H2         -0.5445    1.7859   -0.8732 H         1 <0>         0.0589
     34 H3         -0.5275    1.7763    0.9067 H         1 <0>         0.1037
     35 H4          1.1348    1.2363   -2.0057 H         1 <0>         0.1341
     36 H5          2.2267    0.1425   -3.9212 H         1 <0>         0.1320
     37 H6          2.3168   -2.3119   -4.0562 H         1 <0>         0.1305
     38 H7          1.3151   -3.6852   -2.2764 H         1 <0>         0.1264
     39 H8         -1.8914   -2.6971    0.5728 H         1 <0>         0.0778
     40 H9         -1.7068   -2.9936   -1.1762 H         1 <0>         0.1138
     41 H10        -2.3961   -5.0513    0.1082 H         1 <0>         0.1357
     42 H11        -0.8470   -5.2457   -0.7471 H         1 <0>         0.1295
     43 H12         1.2353   -4.9969    2.1697 H         1 <0>         0.1375
     44 H13         1.1804   -5.2153    0.4039 H         1 <0>         0.1298
     45 H14         1.9402   -2.9468    0.8881 H         1 <0>         0.1137
     46 H15         0.5300   -2.6661    1.9434 H         1 <0>         0.0774
     47 H16        -1.8938   -6.7330    1.6144 H         1 <0>         0.1318
     48 H17        -0.3036   -7.0450    0.8781 H         1 <0>         0.1294
     49 H18         0.8004   -6.4939    3.0289 H         1 <0>         0.0916
     50 H19        -0.7898   -6.1819    3.7652 H         1 <0>         0.0922
     51 H20        -1.4631   -8.5232    3.3032 H         1 <0>         0.0826
     52 H21         0.1271   -8.8352    2.5669 H         1 <0>         0.0820
     53 H22         1.2312   -8.2841    4.7177 H         1 <0>         0.0723
     54 H23        -0.3590   -7.9721    5.4540 H         1 <0>         0.0726
     55 H24        -0.3859  -10.5695    4.3454 H         1 <0>         0.4021
     56 H25        -0.6188  -12.3588    4.5768 H         1 <0>         0.1223
     57 H26        -0.8770  -14.7335    5.0239 H         1 <0>         0.1343
     58 H27        -0.5632  -16.6627    6.5343 H         1 <0>         0.1320
     59 H28         0.2331  -17.5553    8.6557 H         1 <0>         0.1293
     60 H29         1.2814  -16.0892   10.3264 H         1 <0>         0.1298
     61 H30         1.5515  -13.7060    9.9012 H         1 <0>         0.1331
     62 H31         1.2517  -11.7677    8.3897 H         1 <0>         0.1429
     63 H32        -1.1202   -4.4947    2.0759 H         1 <0>         0.4226
@<TRIPOS>BOND
     1    1    2 1
     2    1   32 1
     3    1   33 1
     4    1   34 1
     5    2    3 1
     6    3    8 ar
     7    3    4 ar
     8    4    5 ar
     9    4   35 1
    10    5    6 ar
    11    5   36 1
    12    6    7 ar
    13    6   37 1
    14    7    8 ar
    15    7   38 1
    16    8    9 1
    17    9   14 1
    18    9   10 1
    19   10   11 1
    20   10   39 1
    21   10   40 1
    22   11   12 1
    23   11   41 1
    24   11   42 1
    25   12   13 1
    26   12   15 1
    27   12   63 1
    28   13   14 1
    29   13   43 1
    30   13   44 1
    31   14   45 1
    32   14   46 1
    33   15   16 1
    34   15   47 1
    35   15   48 1
    36   16   17 1
    37   16   49 1
    38   16   50 1
    39   17   18 1
    40   17   51 1
    41   17   52 1
    42   18   19 1
    43   18   53 1
    44   18   54 1
    45   19   20 am
    46   19   55 1
    47   20   21 2
    48   20   22 1
    49   22   31 ar
    50   22   23 ar
    51   23   24 ar
    52   23   56 1
    53   24   25 ar
    54   24   57 1
    55   25   30 ar
    56   25   26 ar
    57   26   27 ar
    58   26   58 1
    59   27   28 ar
    60   27   59 1
    61   28   29 ar
    62   28   60 1
    63   29   30 ar
    64   29   61 1
    65   30   31 ar
    66   31   62 1
@<TRIPOS>MOLECULE
ZINC03917109
   62    65     0     0     0
SMALL
USER_CHARGES

@<TRIPOS>ATOM
      1 C1         -0.0173    1.4248    0.0099 C.3       1 <0>         0.0251
      2 O1          0.0021   -0.0041    0.0020 O.3       1 <0>        -0.3039
      3 C2         -1.2013   -0.6380    0.0101 C.ar      1 <0>         0.1197
      4 C3         -2.3740    0.0989    0.0195 C.ar      1 <0>        -0.2065
      5 C4         -3.5967   -0.5469    0.0283 C.ar      1 <0>        -0.0836
      6 C5         -3.6532   -1.9283    0.0271 C.ar      1 <0>        -0.1523
      7 C6         -2.4875   -2.6710    0.0173 C.ar      1 <0>        -0.0882
      8 C7         -1.2572   -2.0300    0.0032 C.ar      1 <0>         0.1390
      9 N1         -0.0754   -2.7797   -0.0127 N.pl3     1 <0>        -0.6683
     10 C8          0.5713   -3.1961    1.2410 C.3       1 <0>         0.1532
     11 C9          0.8354   -4.7041    1.1750 C.3       1 <0>         0.0416
     12 N2          1.5913   -5.0126   -0.0462 N.3       1 <0>        -0.5348
     13 C10         0.8175   -4.6811   -1.2500 C.3       1 <0>         0.0379
     14 C11         0.5494   -3.1773   -1.2834 C.3       1 <0>         0.1529
     15 C12         2.0135   -6.4196   -0.0626 C.3       1 <0>         0.0570
     16 C13         2.9994   -6.6428   -1.2111 C.3       1 <0>        -0.1132
     17 C14         3.4391   -8.1081   -1.2283 C.3       1 <0>        -0.1303
     18 C15         4.4250   -8.3314   -2.3768 C.3       1 <0>         0.1194
     19 N3          4.8460   -9.7345   -2.3932 N.am      1 <0>        -0.7276
     20 C16         5.7188  -10.1653   -3.3255 C.2       1 <0>         0.5586
     21 O2          6.1567   -9.3896   -4.1527 O.2       1 <0>        -0.5351
     22 C17         6.1435  -11.5806   -3.3420 C.ar      1 <0>        -0.1394
     23 C18         5.6291  -12.4748   -2.3860 C.ar      1 <0>        -0.0931
     24 C19         6.0037  -13.7793   -2.3806 C.ar      1 <0>        -0.1083
     25 C20         6.9183  -14.2530   -3.3393 C.ar      1 <0>        -0.0339
     26 C21         7.3209  -15.5988   -3.3538 C.ar      1 <0>        -0.1133
     27 C22         8.2070  -16.0282   -4.2939 C.ar      1 <0>        -0.1034
     28 C23         8.7244  -15.1520   -5.2462 C.ar      1 <0>        -0.1183
     29 C24         8.3580  -13.8415   -5.2638 C.ar      1 <0>        -0.0955
     30 C25         7.4441  -13.3613   -4.3084 C.ar      1 <0>        -0.0641
     31 C26         7.0406  -12.0176   -4.3023 C.ar      1 <0>        -0.0303
     32 H1          1.0053    1.8021    0.0021 H         1 <0>         0.0993
     33 H2         -0.5445    1.7859   -0.8732 H         1 <0>         0.0537
     34 H3         -0.5275    1.7763    0.9067 H         1 <0>         0.0537
     35 H4         -2.3335    1.1781    0.0204 H         1 <0>         0.1277
     36 H5         -4.5101    0.0293    0.0363 H         1 <0>         0.1245
     37 H6         -4.6104   -2.4284    0.0343 H         1 <0>         0.1238
     38 H7         -2.5344   -3.7500    0.0168 H         1 <0>         0.1249
     39 H8          1.5150   -2.6639    1.3604 H         1 <0>         0.0581
     40 H9         -0.0855   -2.9758    2.0825 H         1 <0>         0.0690
     41 H10         1.4125   -5.0108    2.0473 H         1 <0>         0.0793
     42 H11        -0.1140   -5.2393    1.1600 H         1 <0>         0.0339
     43 H12         1.3817   -4.9710   -2.1364 H         1 <0>         0.0831
     44 H13        -0.1317   -5.2166   -1.2312 H         1 <0>         0.0333
     45 H14        -0.1219   -2.9447   -2.1101 H         1 <0>         0.0686
     46 H15         1.4910   -2.6433   -1.4113 H         1 <0>         0.0577
     47 H16         2.4960   -6.6652    0.8834 H         1 <0>         0.0748
     48 H17         1.1418   -7.0588   -0.2026 H         1 <0>         0.0322
     49 H18         2.5169   -6.3971   -2.1571 H         1 <0>         0.0668
     50 H19         3.8711   -6.0035   -1.0711 H         1 <0>         0.0766
     51 H20         3.9216   -8.3538   -0.2823 H         1 <0>         0.0712
     52 H21         2.5674   -8.7474   -1.3683 H         1 <0>         0.0684
     53 H22         3.9425   -8.0857   -3.3228 H         1 <0>         0.0696
     54 H23         5.2967   -7.6921   -2.2368 H         1 <0>         0.0713
     55 H24         4.4966  -10.3534   -1.7332 H         1 <0>         0.4001
     56 H25         4.9272  -12.1188   -1.6463 H         1 <0>         0.1252
     57 H26         5.6001  -14.4539   -1.6401 H         1 <0>         0.1336
     58 H27         6.9294  -16.2899   -2.6219 H         1 <0>         0.1303
     59 H28         8.5140  -17.0636   -4.3016 H         1 <0>         0.1266
     60 H29         9.4265  -15.5182   -5.9806 H         1 <0>         0.1272
     61 H30         8.7671  -13.1735   -6.0073 H         1 <0>         0.1318
     62 H31         7.4298  -11.3288   -5.0374 H         1 <0>         0.1429
@<TRIPOS>BOND
     1    1    2 1
     2    1   32 1
     3    1   33 1
     4    1   34 1
     5    2    3 1
     6    3    8 ar
     7    3    4 ar
     8    4    5 ar
     9    4   35 1
    10    5    6 ar
    11    5   36 1
    12    6    7 ar
    13    6   37 1
    14    7    8 ar
    15    7   38 1
    16    8    9 1
    17    9   14 1
    18    9   10 1
    19   10   11 1
    20   10   39 1
    21   10   40 1
    22   11   12 1
    23   11   41 1
    24   11   42 1
    25   12   13 1
    26   12   15 1
    27   13   14 1
    28   13   43 1
    29   13   44 1
    30   14   45 1
    31   14   46 1
    32   15   16 1
    33   15   47 1
    34   15   48 1
    35   16   17 1
    36   16   49 1
    37   16   50 1
    38   17   18 1
    39   17   51 1
    40   17   52 1
    41   18   19 1
    42   18   53 1
    43   18   54 1
    44   19   20 am
    45   19   55 1
    46   20   21 2
    47   20   22 1
    48   22   31 ar
    49   22   23 ar
    50   23   24 ar
    51   23   56 1
    52   24   25 ar
    53   24   57 1
    54   25   30 ar
    55   25   26 ar
    56   26   27 ar
    57   26   58 1
    58   27   28 ar
    59   27   59 1
    60   28   29 ar
    61   28   60 1
    62   29   30 ar
    63   29   61 1
    64   30   31 ar
    65   31   62 1
@<TRIPOS>MOLECULE
ZINC02169422
   49    51     0     0     0
SMALL
USER_CHARGES

@<TRIPOS>ATOM
      1 C1         -0.0173    1.4248    0.0099 C.3       1 <0>         0.0220
      2 O1          0.0021   -0.0041    0.0020 O.3       1 <0>        -0.3158
      3 C2          0.6263   -0.6188    1.0422 C.ar      1 <0>         0.1556
      4 C3          1.2023    0.1379    2.0514 C.ar      1 <0>        -0.2329
      5 C4          1.8370   -0.4860    3.1091 C.ar      1 <0>        -0.0259
      6 C5          1.9002   -1.8657    3.1656 C.ar      1 <0>        -0.2322
      7 C6          1.3266   -2.6296    2.1604 C.ar      1 <0>         0.1603
      8 C7          0.6826   -2.0063    1.0982 C.ar      1 <0>         0.0101
      9 O2          0.1135   -2.7526    0.1126 O.3       1 <0>        -0.3151
     10 C8          0.9387   -3.0899   -1.0043 C.3       1 <0>         0.0248
     11 C9          0.1318   -3.9245   -2.0009 C.3       1 <0>         0.0027
     12 N1         -0.9570   -3.1085   -2.5546 N.4       1 <0>        -0.5070
     13 C10        -1.7317   -3.9098   -3.5115 C.3       1 <0>         0.0060
     14 C11        -2.8656   -3.0599   -4.0881 C.3       1 <0>         0.0197
     15 H1         -2.4506   -2.1903   -4.5978 H         1 <0>         0.1086
     16 C12        -3.6875   -3.8964   -5.0780 C.3       1 <0>         0.0336
     17 O3         -4.7457   -3.0771   -5.5867 O.3       1 <0>        -0.2940
     18 C13        -5.4491   -2.3511   -4.6753 C.ar      1 <0>         0.0502
     19 C14        -6.6865   -1.8324   -5.0268 C.ar      1 <0>        -0.1085
     20 C15        -7.4109   -1.0903   -4.1134 C.ar      1 <0>        -0.1000
     21 C16        -6.9048   -0.8632   -2.8471 C.ar      1 <0>        -0.1093
     22 C17        -5.6732   -1.3784   -2.4899 C.ar      1 <0>        -0.1051
     23 C18        -4.9414   -2.1250   -3.4015 C.ar      1 <0>         0.0395
     24 O4         -3.7333   -2.6322   -3.0325 O.3       1 <0>        -0.3160
     25 O5          1.3897   -3.9870    2.2166 O.3       1 <0>        -0.3070
     26 C19         2.0623   -4.5592    3.3400 C.3       1 <0>         0.0218
     27 H2          1.0053    1.8021    0.0021 H         1 <0>         0.0625
     28 H3         -0.5445    1.7859   -0.8732 H         1 <0>         0.1060
     29 H4         -0.5275    1.7763    0.9067 H         1 <0>         0.0643
     30 H5          1.1554    1.2161    2.0107 H         1 <0>         0.1408
     31 H6          2.2850    0.1061    3.8934 H         1 <0>         0.1398
     32 H7          2.3972   -2.3494    3.9934 H         1 <0>         0.1417
     33 H8          1.2835   -2.1771   -1.4901 H         1 <0>         0.0771
     34 H9          1.7981   -3.6654   -0.6604 H         1 <0>         0.1012
     35 H10         0.7840   -4.2565   -2.8087 H         1 <0>         0.1485
     36 H11        -0.2873   -4.7927   -1.4923 H         1 <0>         0.1435
     37 H12        -1.5607   -2.8012   -1.8068 H         1 <0>         0.4445
     38 H13        -1.0795   -4.2418   -4.3193 H         1 <0>         0.1556
     39 H14        -2.1508   -4.7780   -3.0028 H         1 <0>         0.1460
     40 H15        -3.0503   -4.2255   -5.8989 H         1 <0>         0.1319
     41 H16        -4.1068   -4.7633   -4.5672 H         1 <0>         0.0891
     42 H17        -7.0840   -2.0082   -6.0155 H         1 <0>         0.1416
     43 H18        -8.3743   -0.6875   -4.3892 H         1 <0>         0.1408
     44 H19        -7.4727   -0.2818   -2.1359 H         1 <0>         0.1399
     45 H20        -5.2800   -1.1994   -1.5001 H         1 <0>         0.1376
     46 H21         2.0404   -5.6461    3.2617 H         1 <0>         0.1081
     47 H22         3.0971   -4.2169    3.3570 H         1 <0>         0.0620
     48 H23         1.5626   -4.2509    4.2584 H         1 <0>         0.0634
     49 H24        -0.5690   -2.3048   -3.0254 H         1 <0>         0.4279
@<TRIPOS>BOND
     1    1    2 1
     2    1   27 1
     3    1   28 1
     4    1   29 1
     5    2    3 1
     6    3    8 ar
     7    3    4 ar
     8    4    5 ar
     9    4   30 1
    10    5    6 ar
    11    5   31 1
    12    6    7 ar
    13    6   32 1
    14    7    8 ar
    15    7   25 1
    16    8    9 1
    17    9   10 1
    18   10   11 1
    19   10   33 1
    20   10   34 1
    21   11   12 1
    22   11   35 1
    23   11   36 1
    24   12   13 1
    25   12   37 1
    26   12   49 1
    27   13   14 1
    28   13   38 1
    29   13   39 1
    30   14   15 1
    31   14   24 1
    32   14   16 1
    33   16   17 1
    34   16   40 1
    35   16   41 1
    36   17   18 1
    37   18   23 ar
    38   18   19 ar
    39   19   20 ar
    40   19   42 1
    41   20   21 ar
    42   20   43 1
    43   21   22 ar
    44   21   44 1
    45   22   23 ar
    46   22   45 1
    47   23   24 1
    48   25   26 1
    49   26   46 1
    50   26   47 1
    51   26   48 1
@<TRIPOS>MOLECULE
ZINC02169424
   49    51     0     0     0
SMALL
USER_CHARGES

@<TRIPOS>ATOM
      1 C1         -0.0173    1.4248    0.0099 C.3       1 <0>         0.0220
      2 O1          0.0021   -0.0041    0.0020 O.3       1 <0>        -0.3161
      3 C2          0.6263   -0.6188    1.0422 C.ar      1 <0>         0.1555
      4 C3          1.2023    0.1379    2.0514 C.ar      1 <0>        -0.2328
      5 C4          1.8370   -0.4860    3.1091 C.ar      1 <0>        -0.0256
      6 C5          1.9002   -1.8657    3.1656 C.ar      1 <0>        -0.2321
      7 C6          1.3266   -2.6296    2.1604 C.ar      1 <0>         0.1604
      8 C7          0.6826   -2.0063    1.0982 C.ar      1 <0>         0.0097
      9 O2          0.1135   -2.7526    0.1126 O.3       1 <0>        -0.3164
     10 C8          0.9387   -3.0899   -1.0043 C.3       1 <0>         0.0247
     11 C9          0.1318   -3.9245   -2.0009 C.3       1 <0>         0.0033
     12 N1         -0.9570   -3.1085   -2.5546 N.4       1 <0>        -0.5074
     13 C10        -1.7317   -3.9098   -3.5115 C.3       1 <0>         0.0060
     14 C11        -2.8656   -3.0599   -4.0881 C.3       1 <0>         0.0198
     15 H1         -3.4690   -2.6528   -3.2767 H         1 <0>         0.1089
     16 C12        -3.7445   -3.9223   -5.0040 C.3       1 <0>         0.0338
     17 O3         -4.7846   -3.0948   -5.5364 O.3       1 <0>        -0.2938
     18 C13        -4.4107   -1.8796   -6.0222 C.ar      1 <0>         0.0506
     19 C14        -5.2702   -1.1893   -6.8640 C.ar      1 <0>        -0.1082
     20 C15        -4.9061    0.0471   -7.3627 C.ar      1 <0>        -0.0999
     21 C16        -3.6849    0.5995   -7.0236 C.ar      1 <0>        -0.1096
     22 C17        -2.8233   -0.0837   -6.1866 C.ar      1 <0>        -0.1058
     23 C18        -3.1817   -1.3259   -5.6843 C.ar      1 <0>         0.0388
     24 O4         -2.3191   -1.9901   -4.8670 O.3       1 <0>        -0.3164
     25 O5          1.3897   -3.9870    2.2166 O.3       1 <0>        -0.3071
     26 C19         2.0623   -4.5592    3.3400 C.3       1 <0>         0.0218
     27 H2          1.0053    1.8021    0.0021 H         1 <0>         0.0628
     28 H3         -0.5445    1.7859   -0.8732 H         1 <0>         0.1064
     29 H4         -0.5275    1.7763    0.9067 H         1 <0>         0.0642
     30 H5          1.1554    1.2161    2.0107 H         1 <0>         0.1409
     31 H6          2.2850    0.1061    3.8934 H         1 <0>         0.1399
     32 H7          2.3972   -2.3494    3.9934 H         1 <0>         0.1418
     33 H8          1.2835   -2.1771   -1.4901 H         1 <0>         0.0775
     34 H9          1.7981   -3.6654   -0.6604 H         1 <0>         0.1014
     35 H10         0.7840   -4.2565   -2.8087 H         1 <0>         0.1483
     36 H11        -0.2873   -4.7927   -1.4923 H         1 <0>         0.1439
     37 H12        -1.5607   -2.8012   -1.8068 H         1 <0>         0.4373
     38 H13        -1.0795   -4.2418   -4.3193 H         1 <0>         0.1463
     39 H14        -2.1508   -4.7780   -3.0028 H         1 <0>         0.1563
     40 H15        -3.1423   -4.3253   -5.8184 H         1 <0>         0.0892
     41 H16        -4.1822   -4.7395   -4.4306 H         1 <0>         0.1322
     42 H17        -6.2248   -1.6185   -7.1302 H         1 <0>         0.1418
     43 H18        -5.5768    0.5828   -8.0181 H         1 <0>         0.1409
     44 H19        -3.4037    1.5665   -7.4138 H         1 <0>         0.1399
     45 H20        -1.8699    0.3501   -5.9233 H         1 <0>         0.1368
     46 H21         2.0404   -5.6461    3.2617 H         1 <0>         0.1082
     47 H22         3.0971   -4.2169    3.3570 H         1 <0>         0.0621
     48 H23         1.5626   -4.2509    4.2584 H         1 <0>         0.0634
     49 H24        -0.5690   -2.3048   -3.0254 H         1 <0>         0.4346
@<TRIPOS>BOND
     1    1    2 1
     2    1   27 1
     3    1   28 1
     4    1   29 1
     5    2    3 1
     6    3    8 ar
     7    3    4 ar
     8    4    5 ar
     9    4   30 1
    10    5    6 ar
    11    5   31 1
    12    6    7 ar
    13    6   32 1
    14    7    8 ar
    15    7   25 1
    16    8    9 1
    17    9   10 1
    18   10   11 1
    19   10   33 1
    20   10   34 1
    21   11   12 1
    22   11   35 1
    23   11   36 1
    24   12   13 1
    25   12   37 1
    26   12   49 1
    27   13   14 1
    28   13   38 1
    29   13   39 1
    30   14   15 1
    31   14   24 1
    32   14   16 1
    33   16   17 1
    34   16   40 1
    35   16   41 1
    36   17   18 1
    37   18   23 ar
    38   18   19 ar
    39   19   20 ar
    40   19   42 1
    41   20   21 ar
    42   20   43 1
    43   21   22 ar
    44   21   44 1
    45   22   23 ar
    46   22   45 1
    47   23   24 1
    48   25   26 1
    49   26   46 1
    50   26   47 1
    51   26   48 1
@<TRIPOS>MOLECULE
ZINC00643233
   56    59     0     0     0
SMALL
USER_CHARGES

@<TRIPOS>ATOM
      1 C1         -0.0167    1.3786    0.0096 C.ar      1 <0>        -0.1573
      2 C2          1.1695    2.0894    0.0021 C.ar      1 <0>        -0.0635
      3 C3          2.3774    1.4200   -0.0130 C.ar      1 <0>        -0.1784
      4 C4          2.3998    0.0311   -0.0206 C.ar      1 <0>         0.2317
      5 C5          1.2064   -0.6798   -0.0130 C.ar      1 <0>        -0.1988
      6 C6          0.0021   -0.0041    0.0020 C.ar      1 <0>        -0.0706
      7 N1          3.6196   -0.6492   -0.0363 N.pl3     1 <0>        -0.6334
      8 C7          4.9637   -0.0571   -0.0400 C.3       1 <0>         0.3326
      9 N2          5.9388   -1.1470   -0.0572 N.am      1 <0>        -0.7166
     10 C8          5.3099   -2.3344   -0.0641 C.2       1 <0>         0.5288
     11 O1          5.8532   -3.4187   -0.0778 O.2       1 <0>        -0.5133
     12 C9          3.8222   -2.1026   -0.0461 C.3       1 <0>         0.1361
     13 C10         3.1820   -2.7114   -1.2943 C.3       1 <0>        -0.1499
     14 C11         3.3480   -4.2326   -1.2552 C.3       1 <0>        -0.0132
     15 N3          2.7020   -4.7671   -0.0503 N.4       1 <0>        -0.3794
     16 C12         3.3698   -4.2457    1.1482 C.3       1 <0>        -0.0190
     17 C13         3.2050   -2.7250    1.2070 C.3       1 <0>        -0.1492
     18 C14         2.7905   -6.2335   -0.0591 C.3       1 <0>        -0.0094
     19 C15         2.0109   -6.7986    1.1299 C.3       1 <0>        -0.1425
     20 C16         2.1030   -8.3258    1.1207 C.3       1 <0>        -0.1654
     21 C17         1.3351   -8.8824    2.2919 C.2       1 <0>         0.4040
     22 O2          0.7698   -8.1316    3.0583 O.2       1 <0>        -0.4484
     23 C18         1.2712  -10.3355    2.5052 C.ar      1 <0>        -0.1962
     24 C19         1.9272  -11.2044    1.6259 C.ar      1 <0>        -0.0430
     25 C20         1.8634  -12.5650    1.8315 C.ar      1 <0>        -0.1669
     26 C21         1.1505  -13.0743    2.9070 C.ar      1 <0>         0.1434
     27 C22         0.4980  -12.2186    3.7823 C.ar      1 <0>        -0.1651
     28 C23         0.5590  -10.8557    3.5917 C.ar      1 <0>        -0.0262
     29 F1          1.0910  -14.4098    3.1025 F         1 <0>        -0.1261
     30 H1         -0.9598    1.9046    0.0260 H         1 <0>         0.1276
     31 H2          1.1513    3.1692    0.0077 H         1 <0>         0.1312
     32 H3          3.3034    1.9757   -0.0192 H         1 <0>         0.1257
     33 H4          1.2204   -1.7597   -0.0193 H         1 <0>         0.1144
     34 H5         -0.9261   -0.5561    0.0079 H         1 <0>         0.1276
     35 H6          5.0901    0.5643   -0.9265 H         1 <0>         0.0880
     36 H7          5.1025    0.5473    0.8564 H         1 <0>         0.0877
     37 H8          6.9016   -1.0295   -0.0627 H         1 <0>         0.4365
     38 H9          2.1214   -2.4613   -1.3183 H         1 <0>         0.1096
     39 H10         3.6706   -2.3147   -2.1843 H         1 <0>         0.1192
     40 H11         2.8858   -4.6710   -2.1397 H         1 <0>         0.1383
     41 H12         4.4090   -4.4817   -1.2391 H         1 <0>         0.1470
     42 H13         2.9238   -4.6937    2.0361 H         1 <0>         0.1399
     43 H14         4.4303   -4.4946    1.1101 H         1 <0>         0.1471
     44 H15         3.7099   -2.3380    2.0921 H         1 <0>         0.1189
     45 H16         2.1450   -2.4752    1.2532 H         1 <0>         0.1098
     46 H17         2.3668   -6.6175   -0.9870 H         1 <0>         0.1347
     47 H18         3.8354   -6.5348    0.0153 H         1 <0>         0.1347
     48 H19         2.4346   -6.4145    2.0578 H         1 <0>         0.0947
     49 H20         0.9660   -6.4972    1.0555 H         1 <0>         0.0950
     50 H21         1.6793   -8.7098    0.1928 H         1 <0>         0.1132
     51 H22         3.1479   -8.6271    1.1951 H         1 <0>         0.1132
     52 H23         2.4820  -10.8091    0.7879 H         1 <0>         0.1415
     53 H24         2.3692  -13.2366    1.1537 H         1 <0>         0.1468
     54 H25        -0.0554  -12.6215    4.6177 H         1 <0>         0.1475
     55 H26         0.0543  -10.1903    4.2765 H         1 <0>         0.1457
     56 H27         1.7315   -4.4913   -0.0400 H         1 <0>         0.4195
@<TRIPOS>BOND
     1    1    6 ar
     2    1    2 ar
     3    1   30 1
     4    2    3 ar
     5    2   31 1
     6    3    4 ar
     7    3   32 1
     8    4    5 ar
     9    4    7 1
    10    5    6 ar
    11    5   33 1
    12    6   34 1
    13    7   12 1
    14    7    8 1
    15    8    9 1
    16    8   35 1
    17    8   36 1
    18    9   10 am
    19    9   37 1
    20   10   11 2
    21   10   12 1
    22   12   17 1
    23   12   13 1
    24   13   14 1
    25   13   38 1
    26   13   39 1
    27   14   15 1
    28   14   40 1
    29   14   41 1
    30   15   16 1
    31   15   18 1
    32   15   56 1
    33   16   17 1
    34   16   42 1
    35   16   43 1
    36   17   44 1
    37   17   45 1
    38   18   19 1
    39   18   46 1
    40   18   47 1
    41   19   20 1
    42   19   48 1
    43   19   49 1
    44   20   21 1
    45   20   50 1
    46   20   51 1
    47   21   22 2
    48   21   23 1
    49   23   28 ar
    50   23   24 ar
    51   24   25 ar
    52   24   52 1
    53   25   26 ar
    54   25   53 1
    55   26   27 ar
    56   26   29 1
    57   27   28 ar
    58   27   54 1
    59   28   55 1
@<TRIPOS>MOLECULE
ZINC13806045
   34    35     0     0     0
SMALL
USER_CHARGES
2-(4-tert-butylphenyl)-4,5-dihydro-1H-imidazole
@<TRIPOS>ATOM
      1 C1          3.2463    3.5785   -1.2590 C.3       1 <0>        -0.1438
      2 C2          2.4523    3.9333   -0.0003 C.3       1 <0>        -0.0426
      3 C3          2.1576    5.4346    0.0106 C.3       1 <0>        -0.1526
      4 C4          3.2702    3.5651    1.2393 C.3       1 <0>        -0.1438
      5 C5          1.1549    3.1666    0.0080 C.ar      1 <0>         0.0014
      6 C6          1.1721    1.7834    0.0004 C.ar      1 <0>        -0.1131
      7 C7         -0.0126    1.0758    0.0080 C.ar      1 <0>        -0.0575
      8 C8         -1.2288    1.7581    0.0174 C.ar      1 <0>        -0.1476
      9 C9         -1.2396    3.1526    0.0299 C.ar      1 <0>        -0.0512
     10 C10        -0.0484    3.8490    0.0227 C.ar      1 <0>        -0.1199
     11 C11        -2.5038    1.0047    0.0194 C.cat     1 <0>         0.5688
     12 C12        -3.9548   -0.7359    0.0180 C.3       1 <0>         0.0562
     13 C13        -4.7688    0.5732    0.0289 C.3       1 <0>         0.0688
     14 N1         -3.7303    1.6171    0.0339 N.pl3     1 <0>        -0.6691
     15 H1          2.6637    3.8408   -2.1421 H         1 <0>         0.0603
     16 H2          4.1847    4.1330   -1.2650 H         1 <0>         0.0710
     17 H3          3.4563    2.5089   -1.2668 H         1 <0>         0.0606
     18 H4          1.5919    5.6873    0.9074 H         1 <0>         0.0626
     19 H5          3.0960    5.9891    0.0046 H         1 <0>         0.0703
     20 H6          1.5750    5.6969   -0.8725 H         1 <0>         0.0626
     21 H7          3.4801    2.4955    1.2316 H         1 <0>         0.0606
     22 H8          4.2085    4.1196    1.2333 H         1 <0>         0.0710
     23 H9          2.7045    3.8179    2.1361 H         1 <0>         0.0603
     24 H10         2.1146    1.2562   -0.0110 H         1 <0>         0.1460
     25 H11         0.0021   -0.0041    0.0020 H         1 <0>         0.1339
     26 H12        -2.1784    3.6864    0.0413 H         1 <0>         0.1352
     27 H13        -0.0554    4.9289    0.0289 H         1 <0>         0.1510
     28 H14        -4.1733   -1.3142   -0.8798 H         1 <0>         0.1271
     29 H15        -4.1640   -1.3232    0.9121 H         1 <0>         0.1271
     30 H16        -5.3891    0.6477   -0.8644 H         1 <0>         0.1216
     31 H17        -5.3820    0.6373    0.9277 H         1 <0>         0.1215
     32 H18        -3.8872    2.5742    0.0440 H         1 <0>         0.4549
     33 N2         -2.5525   -0.2887    0.0131 N.pl3     1 <0>        -0.6242
     34 H19        -1.7350   -0.9100    0.0057 H         1 <0>         0.4725
@<TRIPOS>BOND
     1    1    2 1
     2    1   15 1
     3    1   16 1
     4    1   17 1
     5    2    3 1
     6    2    4 1
     7    2    5 1
     8    3   18 1
     9    3   19 1
    10    3   20 1
    11    4   21 1
    12    4   22 1
    13    4   23 1
    14    5   10 ar
    15    5    6 ar
    16    6    7 ar
    17    6   24 1
    18    7    8 ar
    19    7   25 1
    20    8    9 ar
    21    8   11 1
    22    9   10 ar
    23    9   26 1
    24   10   27 1
    25   11   14 1
    26   11   33 2
    27   12   13 1
    28   12   28 1
    29   12   29 1
    30   12   33 1
    31   13   14 1
    32   13   30 1
    33   13   31 1
    34   14   32 1
    35   33   34 1
@<TRIPOS>MOLECULE
ZINC00001567
   52    55     0     0     0
SMALL
USER_CHARGES

@<TRIPOS>ATOM
      1 C1         -0.0167    1.3794    0.0096 C.ar      1 <0>        -0.0838
      2 C2          1.1684    2.0935    0.0021 C.ar      1 <0>        -0.1241
      3 C3          2.3774    1.4292   -0.0129 C.ar      1 <0>        -0.0559
      4 C4          2.4034    0.0337   -0.0206 C.ar      1 <0>        -0.1495
      5 C5          1.2043   -0.6806   -0.0130 C.ar      1 <0>        -0.0865
      6 C6          0.0021   -0.0041    0.0020 C.ar      1 <0>        -0.1264
      7 C7          3.6955   -0.6847   -0.0372 C.2       1 <0>         0.5687
      8 O1          4.7382   -0.0600   -0.0443 O.2       1 <0>        -0.5263
      9 N1          3.7172   -2.0323   -0.0446 N.am      1 <0>        -0.7287
     10 C8          4.9975   -2.7441   -0.0611 C.3       1 <0>         0.1364
     11 C9          5.4871   -2.8841   -1.5054 C.3       1 <0>        -0.1610
     12 C10         6.7833   -3.6970   -1.5223 C.3       1 <0>        -0.0017
     13 N2          6.5373   -5.0288   -0.9563 N.4       1 <0>        -0.3847
     14 C11         6.1366   -4.9059    0.4504 C.3       1 <0>        -0.0067
     15 C12         4.8154   -4.1394    0.5432 C.3       1 <0>        -0.1555
     16 C13         7.7643   -5.8316   -1.0460 C.3       1 <0>        -0.0082
     17 C14         7.4765   -7.2576   -0.5719 C.3       1 <0>        -0.0580
     18 C15         8.7352   -8.0812   -0.6639 C.2       1 <0>        -0.2048
     19 C16         9.1004   -8.8698   -1.6870 C.2       1 <0>         0.0846
     20 N3         10.3049   -9.4593   -1.4149 N.pl3     1 <0>        -0.5881
     21 H1         10.7716  -10.0714   -2.0050 H         1 <0>         0.4231
     22 C17        10.7557   -9.0540   -0.1786 C.ar      1 <0>         0.0943
     23 C18         9.7953   -8.1680    0.3434 C.ar      1 <0>        -0.1003
     24 C19         9.9919   -7.5876    1.5975 C.ar      1 <0>        -0.0845
     25 C20        11.1198   -7.8806    2.3114 C.ar      1 <0>        -0.1322
     26 C21        12.0721   -8.7507    1.7992 C.ar      1 <0>        -0.0935
     27 C22        11.8937   -9.3420    0.5674 C.ar      1 <0>        -0.1216
     28 H2         -0.9605    1.9042    0.0260 H         1 <0>         0.1328
     29 H3          1.1468    3.1732    0.0078 H         1 <0>         0.1351
     30 H4          3.3017    1.9878   -0.0191 H         1 <0>         0.1375
     31 H5          1.2176   -1.7605   -0.0193 H         1 <0>         0.1227
     32 H6         -0.9265   -0.5556    0.0079 H         1 <0>         0.1326
     33 H7          2.8851   -2.5308   -0.0391 H         1 <0>         0.4058
     34 H8          5.7316   -2.1875    0.5215 H         1 <0>         0.1067
     35 H9          4.7290   -3.3954   -2.0988 H         1 <0>         0.0908
     36 H10         5.6722   -1.8950   -1.9244 H         1 <0>         0.1173
     37 H11         7.1347   -3.7984   -2.5491 H         1 <0>         0.1342
     38 H12         7.5407   -3.1848   -0.9289 H         1 <0>         0.1321
     39 H13         6.0105   -5.8997    0.8800 H         1 <0>         0.1390
     40 H14         6.9077   -4.3678    1.0017 H         1 <0>         0.1334
     41 H15         4.5205   -4.0477    1.5885 H         1 <0>         0.1198
     42 H16         4.0434   -4.6768   -0.0076 H         1 <0>         0.0947
     43 H17         8.1084   -5.8550   -2.0800 H         1 <0>         0.1313
     44 H18         8.5356   -5.3881   -0.4163 H         1 <0>         0.1310
     45 H19         7.1324   -7.2342    0.4621 H         1 <0>         0.0912
     46 H20         6.7052   -7.7011   -1.2016 H         1 <0>         0.0907
     47 H21         8.5280   -9.0175   -2.5908 H         1 <0>         0.1728
     48 H22         9.2555   -6.9090    2.0021 H         1 <0>         0.1174
     49 H23        11.2715   -7.4313    3.2817 H         1 <0>         0.1270
     50 H24        12.9587   -8.9719    2.3750 H         1 <0>         0.1315
     51 H25        12.6411  -10.0168    0.1770 H         1 <0>         0.1255
     52 H26         5.8016   -5.4834   -1.4760 H         1 <0>         0.4217
@<TRIPOS>BOND
     1    1    6 ar
     2    1    2 ar
     3    1   28 1
     4    2    3 ar
     5    2   29 1
     6    3    4 ar
     7    3   30 1
     8    4    5 ar
     9    4    7 1
    10    5    6 ar
    11    5   31 1
    12    6   32 1
    13    7    8 2
    14    7    9 am
    15    9   10 1
    16    9   33 1
    17   10   15 1
    18   10   11 1
    19   10   34 1
    20   11   12 1
    21   11   35 1
    22   11   36 1
    23   12   13 1
    24   12   37 1
    25   12   38 1
    26   13   14 1
    27   13   16 1
    28   13   52 1
    29   14   15 1
    30   14   39 1
    31   14   40 1
    32   15   41 1
    33   15   42 1
    34   16   17 1
    35   16   43 1
    36   16   44 1
    37   17   18 1
    38   17   45 1
    39   17   46 1
    40   18   23 1
    41   18   19 2
    42   19   20 1
    43   19   47 1
    44   20   21 1
    45   20   22 1
    46   22   27 ar
    47   22   23 ar
    48   23   24 ar
    49   24   25 ar
    50   24   48 1
    51   25   26 ar
    52   25   49 1
    53   26   27 ar
    54   26   50 1
    55   27   51 1
@<TRIPOS>MOLECULE
ZINC29210986
   33    34     0     0     0
SMALL
USER_CHARGES
(1R)-1-(dimethylaminomethyl)indane-4,5-diol
@<TRIPOS>ATOM
      1 C1         -1.3950    1.2161    4.0725 C.3       1 <0>        -0.0548
      2 N1         -0.6237    2.3527    3.5518 N.4       1 <0>        -0.4134
      3 C2          0.2485    2.9170    4.5904 C.3       1 <0>        -0.0489
      4 C3          0.1524    1.9635    2.3668 C.3       1 <0>        -0.0067
      5 C4         -0.8027    1.6171    1.2228 C.3       1 <0>        -0.0636
      6 H1         -1.5219    0.8845    1.6178 H         1 <0>         0.1065
      7 C5         -0.0127    1.0858    0.0080 C.3       1 <0>        -0.1090
      8 C6         -0.8257    1.6300   -1.1857 C.3       1 <0>        -0.0752
      9 C7         -1.5151    2.8718   -0.6623 C.ar      1 <0>        -0.0774
     10 C8         -1.5046    2.8647    0.7206 C.ar      1 <0>        -0.1280
     11 C9         -2.0831    3.9092    1.4219 C.ar      1 <0>        -0.1207
     12 C10        -2.6729    4.9613    0.7481 C.ar      1 <0>        -0.1092
     13 C11        -2.6867    4.9744   -0.6370 C.ar      1 <0>         0.0861
     14 C12        -2.1058    3.9265   -1.3434 C.ar      1 <0>         0.0958
     15 O1         -2.1173    3.9355   -2.7033 O.3       1 <0>        -0.4906
     16 O2         -3.2667    6.0080   -1.3038 O.3       1 <0>        -0.4905
     17 H2         -2.0381    0.8137    3.2759 H         1 <0>         0.1241
     18 H3         -2.0195    1.5514    4.9137 H         1 <0>         0.1253
     19 H4         -0.7049    0.4321    4.4178 H         1 <0>         0.1219
     20 H5          0.8131    3.7644    4.1744 H         1 <0>         0.1233
     21 H6          0.9500    2.1449    4.9393 H         1 <0>         0.1206
     22 H7         -0.3645    3.2642    5.4352 H         1 <0>         0.1246
     23 H8          0.8010    2.7983    2.0629 H         1 <0>         0.1325
     24 H9          0.7716    1.0863    2.6059 H         1 <0>         0.1333
     25 H10         1.0145    1.4783    0.0385 H         1 <0>         0.0851
     26 H11         0.0137   -0.0134    0.0400 H         1 <0>         0.0930
     27 H12        -0.1443    1.8654   -2.0165 H         1 <0>         0.0888
     28 H13        -1.5521    0.8708   -1.5112 H         1 <0>         0.0914
     29 H14        -2.0738    3.9010    2.5018 H         1 <0>         0.1075
     30 H15        -3.1231    5.7727    1.3008 H         1 <0>         0.1436
     31 H16        -2.5854    4.7714   -3.2438 H         1 <0>         0.4254
     32 H17        -3.2766    6.0165   -2.4037 H         1 <0>         0.4267
     33 H18        -1.3361    3.1337    3.2477 H         1 <0>         0.4322
@<TRIPOS>BOND
     1    1    2 1
     2    1   17 1
     3    1   18 1
     4    1   19 1
     5    2    3 1
     6    2    4 1
     7    2   33 1
     8    3   20 1
     9    3   21 1
    10    3   22 1
    11    4    5 1
    12    4   23 1
    13    4   24 1
    14    5    6 1
    15    5   10 1
    16    5    7 1
    17    7    8 1
    18    7   25 1
    19    7   26 1
    20    8    9 1
    21    8   27 1
    22    8   28 1
    23    9   14 ar
    24    9   10 ar
    25   10   11 ar
    26   11   12 ar
    27   11   29 1
    28   12   13 ar
    29   12   30 1
    30   13   14 ar
    31   13   16 1
    32   14   15 1
    33   15   31 1
    34   16   32 1
@<TRIPOS>MOLECULE
ZINC29210990
   33    34     0     0     0
SMALL
USER_CHARGES
(1S)-1-(dimethylaminomethyl)indane-4,5-diol
@<TRIPOS>ATOM
      1 C1          3.4593    4.6239   -1.6648 C.3       1 <0>        -0.0489
      2 N1          3.1382    3.5499   -0.7154 N.4       1 <0>        -0.4137
      3 C2          3.4826    3.9410    0.6581 C.3       1 <0>        -0.0546
      4 C3          1.7238    3.1653   -0.8143 C.3       1 <0>        -0.0066
      5 C4          1.4838    1.8912   -0.0020 C.3       1 <0>        -0.0637
      6 H1          1.8868    2.0694    1.0059 H         1 <0>         0.1068
      7 C5         -0.0189    1.5392    0.0105 C.3       1 <0>        -0.1089
      8 C6          0.0021   -0.0041    0.0020 C.3       1 <0>        -0.0753
      9 C7          1.3100   -0.3789   -0.6614 C.ar      1 <0>        -0.0774
     10 C8          2.1620    0.7106   -0.6640 C.ar      1 <0>        -0.1282
     11 C9          3.4239    0.6002   -1.2233 C.ar      1 <0>        -0.1207
     12 C10         3.8393   -0.5939   -1.7804 C.ar      1 <0>        -0.1090
     13 C11         2.9908   -1.6888   -1.7809 C.ar      1 <0>         0.0861
     14 C12         1.7228   -1.5802   -1.2196 C.ar      1 <0>         0.0960
     15 O1          0.8868   -2.6529   -1.2177 O.3       1 <0>        -0.4905
     16 O2          3.3960   -2.8659   -2.3284 O.3       1 <0>        -0.4905
     17 H2          3.1920    4.3051   -2.6831 H         1 <0>         0.1233
     18 H3          4.5363    4.8430   -1.6200 H         1 <0>         0.1246
     19 H4          2.8900    5.5277   -1.4022 H         1 <0>         0.1205
     20 H5          3.2324    3.1204    1.3466 H         1 <0>         0.1240
     21 H6          2.9135    4.8401    0.9369 H         1 <0>         0.1219
     22 H7          4.5598    4.1553    0.7191 H         1 <0>         0.1252
     23 H8          1.0948    3.9764   -0.4187 H         1 <0>         0.1331
     24 H9          1.4664    2.9824   -1.8680 H         1 <0>         0.1325
     25 H10        -0.4855    1.9556    0.9154 H         1 <0>         0.0932
     26 H11        -0.5028    1.9653   -0.8808 H         1 <0>         0.0852
     27 H12        -0.0487   -0.3772    1.0356 H         1 <0>         0.0915
     28 H13        -0.8618   -0.3795   -0.5662 H         1 <0>         0.0888
     29 H14         4.0874    1.4524   -1.2238 H         1 <0>         0.1075
     30 H15         4.8249   -0.6738   -2.2148 H         1 <0>         0.1437
     31 H16         1.2135   -3.6056   -1.6601 H         1 <0>         0.4254
     32 H17         2.7206   -3.7341   -2.3277 H         1 <0>         0.4267
     33 H18         3.7465    2.6723   -0.9795 H         1 <0>         0.4321
@<TRIPOS>BOND
     1    1    2 1
     2    1   17 1
     3    1   18 1
     4    1   19 1
     5    2    3 1
     6    2    4 1
     7    2   33 1
     8    3   20 1
     9    3   21 1
    10    3   22 1
    11    4    5 1
    12    4   23 1
    13    4   24 1
    14    5    6 1
    15    5   10 1
    16    5    7 1
    17    7    8 1
    18    7   25 1
    19    7   26 1
    20    8    9 1
    21    8   27 1
    22    8   28 1
    23    9   14 ar
    24    9   10 ar
    25   10   11 ar
    26   11   12 ar
    27   11   29 1
    28   12   13 ar
    29   12   30 1
    30   13   14 ar
    31   13   16 1
    32   14   15 1
    33   15   31 1
    34   16   32 1
@<TRIPOS>MOLECULE
ZINC02539810
   24    24     0     0     0
SMALL
USER_CHARGES

@<TRIPOS>ATOM
      1 C1         -0.0167    1.3808    0.0096 C.ar      1 <0>        -0.0903
      2 C2          1.1711    2.0889    0.0021 C.ar      1 <0>        -0.1735
      3 C3          2.3807    1.4163   -0.0135 C.ar      1 <0>         0.1248
      4 C4          2.4052    0.0319   -0.0211 C.ar      1 <0>        -0.1619
      5 C5          1.2178   -0.6814   -0.0131 C.ar      1 <0>         0.1379
      6 C6          0.0021   -0.0041    0.0020 C.ar      1 <0>         0.0858
      7 O1         -1.1661   -0.7012    0.0098 O.3       1 <0>        -0.4852
      8 O2          1.2399   -2.0411   -0.0211 O.3       1 <0>        -0.4822
      9 F1          3.5390    2.1116   -0.0217 F         1 <0>        -0.1289
     10 C7          1.1485    3.5957    0.0104 C.3       1 <0>         0.1370
     11 H1          1.9791    3.9749   -0.5850 H         1 <0>         0.1381
     12 C8          1.2802    4.0999    1.4489 C.3       1 <0>        -0.0423
     13 N1          1.2582    5.5687    1.4569 N.4       1 <0>        -0.6318
     14 O3         -0.0849    4.0567   -0.5449 O.3       1 <0>        -0.5433
     15 H2         -0.9593    1.9078    0.0260 H         1 <0>         0.1474
     16 H3          3.3498   -0.4916   -0.0336 H         1 <0>         0.1575
     17 H4         -1.5126   -0.8980   -0.8713 H         1 <0>         0.4052
     18 H5          1.2553   -2.4394    0.8600 H         1 <0>         0.4081
     19 H6          0.4496    3.7208    2.0443 H         1 <0>         0.1421
     20 H7          2.2210    3.7483    1.8724 H         1 <0>         0.1470
     21 H8          2.0270    5.9197    0.9058 H         1 <0>         0.4381
     22 H9          0.3873    5.8942    1.0649 H         1 <0>         0.4392
     23 H10        -0.8689    3.7569   -0.0645 H         1 <0>         0.3903
     24 H11         1.3450    5.9012    2.4056 H         1 <0>         0.4410
@<TRIPOS>BOND
     1    1    6 ar
     2    1    2 ar
     3    1   15 1
     4    2    3 ar
     5    2   10 1
     6    3    4 ar
     7    3    9 1
     8    4    5 ar
     9    4   16 1
    10    5    6 ar
    11    5    8 1
    12    6    7 1
    13    7   17 1
    14    8   18 1
    15   10   11 1
    16   10   12 1
    17   10   14 1
    18   12   13 1
    19   12   19 1
    20   12   20 1
    21   13   21 1
    22   13   22 1
    23   13   24 1
    24   14   23 1
@<TRIPOS>MOLECULE
ZINC03871196
   24    24     0     0     0
SMALL
USER_CHARGES

@<TRIPOS>ATOM
      1 C1         -0.0167    1.3808    0.0096 C.ar      1 <0>        -0.0901
      2 C2          1.1711    2.0889    0.0021 C.ar      1 <0>        -0.1737
      3 C3          2.3807    1.4163   -0.0135 C.ar      1 <0>         0.1244
      4 C4          2.4052    0.0319   -0.0211 C.ar      1 <0>        -0.1617
      5 C5          1.2178   -0.6814   -0.0131 C.ar      1 <0>         0.1376
      6 C6          0.0021   -0.0041    0.0020 C.ar      1 <0>         0.0861
      7 O1         -1.1661   -0.7012    0.0098 O.3       1 <0>        -0.4828
      8 O2          1.2399   -2.0411   -0.0211 O.3       1 <0>        -0.4837
      9 F1          3.5390    2.1116   -0.0217 F         1 <0>        -0.1293
     10 C7          1.1485    3.5957    0.0104 C.3       1 <0>         0.1368
     11 H1          1.9903    3.9686    0.5938 H         1 <0>         0.1371
     12 C8          1.2528    4.1152   -1.4250 C.3       1 <0>        -0.0415
     13 N1          1.3513    5.5809   -1.4093 N.4       1 <0>        -0.6324
     14 O3         -0.0741    4.0506    0.5938 O.3       1 <0>        -0.5423
     15 H2         -0.9593    1.9078    0.0260 H         1 <0>         0.1479
     16 H3          3.3498   -0.4916   -0.0336 H         1 <0>         0.1574
     17 H4         -1.5126   -0.8980   -0.8713 H         1 <0>         0.4026
     18 H5          1.2553   -2.4394    0.8600 H         1 <0>         0.4098
     19 H6          2.1404    3.6965   -1.8993 H         1 <0>         0.1464
     20 H7          0.3665    3.8166   -1.9848 H         1 <0>         0.1422
     21 H8          0.5297    5.9685   -0.9702 H         1 <0>         0.4398
     22 H9          2.1717    5.8573   -0.8911 H         1 <0>         0.4380
     23 H10        -0.8670    3.7559    0.1254 H         1 <0>         0.3905
     24 H11         1.4201    5.9235   -2.3559 H         1 <0>         0.4410
@<TRIPOS>BOND
     1    1    6 ar
     2    1    2 ar
     3    1   15 1
     4    2    3 ar
     5    2   10 1
     6    3    4 ar
     7    3    9 1
     8    4    5 ar
     9    4   16 1
    10    5    6 ar
    11    5    8 1
    12    6    7 1
    13    7   17 1
    14    8   18 1
    15   10   11 1
    16   10   12 1
    17   10   14 1
    18   12   13 1
    19   12   19 1
    20   12   20 1
    21   13   21 1
    22   13   22 1
    23   13   24 1
    24   14   23 1
