@<TRIPOS>MOLECULE
ZINC52956332
   66    69     0     0     0
SMALL
USER_CHARGES

@<TRIPOS>ATOM
      1 C1         -0.2570   -0.0396   -0.2249 C.3       1 <0>        -0.1481
      2 C2         -0.4777   -1.5512   -0.1410 C.3       1 <0>         0.0719
      3 C3          0.2510   -2.1058    1.0847 C.3       1 <0>        -0.1743
      4 O1         -1.8760   -1.8229   -0.0272 O.3       1 <0>        -0.2968
      5 C4         -2.3308   -2.9699   -0.5993 C.ar      1 <0>         0.1238
      6 C5         -1.4369   -3.8709   -1.1538 C.ar      1 <0>        -0.2108
      7 C6         -1.9007   -5.0365   -1.7356 C.ar      1 <0>        -0.0833
      8 C7         -3.2562   -5.3067   -1.7656 C.ar      1 <0>        -0.1528
      9 C8         -4.1549   -4.4130   -1.2140 C.ar      1 <0>        -0.0865
     10 C9         -3.6965   -3.2442   -0.6239 C.ar      1 <0>         0.1375
     11 N1         -4.6040   -2.3403   -0.0596 N.pl3     1 <0>        -0.6674
     12 C10        -5.1972   -1.2631   -0.8665 C.3       1 <0>         0.1547
     13 C11        -5.0050    0.0635   -0.1240 C.3       1 <0>         0.0426
     14 N2         -5.5408   -0.0593    1.2382 N.3       1 <0>        -0.5278
     15 C12        -4.8056   -1.0693    2.0110 C.3       1 <0>         0.0391
     16 C13        -4.9943   -2.4462    1.3545 C.3       1 <0>         0.1554
     17 C14        -5.5326    1.2387    1.9262 C.3       1 <0>         0.0947
     18 C15        -6.3064    1.1292    3.2147 C.ar      1 <0>        -0.0813
     19 C16        -7.6662    1.3854    3.2273 C.ar      1 <0>        -0.0744
     20 C17        -8.3840    1.2867    4.4058 C.ar      1 <0>        -0.1211
     21 C18        -7.7471    0.9321    5.5774 C.ar      1 <0>        -0.0675
     22 C19        -6.3760    0.6723    5.5716 C.ar      1 <0>        -0.1273
     23 C20        -5.6587    0.7682    4.3778 C.ar      1 <0>        -0.0879
     24 C21        -5.6870    0.2923    6.8233 C.2       1 <0>         0.5617
     25 O2         -6.1780   -0.5424    7.5580 O.2       1 <0>        -0.5326
     26 N3         -4.5146    0.8713    7.1497 N.am      1 <0>        -0.6059
     27 C22        -3.8640    1.8148    6.2303 C.3       1 <0>         0.0916
     28 C23        -3.5771    3.1180    6.9827 C.3       1 <0>        -0.1360
     29 C24        -2.7654    2.8071    8.2423 C.3       1 <0>        -0.1214
     30 C25        -3.5758    1.8882    9.1594 C.3       1 <0>        -0.1356
     31 C26        -3.8657    0.5757    8.4343 C.3       1 <0>         0.1105
     32 H1          0.8096    0.1676   -0.3117 H         1 <0>         0.0754
     33 H2         -0.7761    0.3555   -1.0981 H         1 <0>         0.0627
     34 H3         -0.6472    0.4351    0.6754 H         1 <0>         0.0636
     35 H4         -0.0875   -2.0259   -1.0413 H         1 <0>         0.0742
     36 H5         -0.1393   -1.6311    1.9850 H         1 <0>         0.0650
     37 H6          0.0937   -3.1828    1.1445 H         1 <0>         0.0608
     38 H7          1.3176   -1.8986    0.9979 H         1 <0>         0.0710
     39 H8         -0.3773   -3.6629   -1.1321 H         1 <0>         0.1279
     40 H9         -1.2021   -5.7375   -2.1681 H         1 <0>         0.1235
     41 H10        -3.6139   -6.2182   -2.2214 H         1 <0>         0.1239
     42 H11        -5.2133   -4.6264   -1.2391 H         1 <0>         0.1282
     43 H12        -4.7006   -1.2157   -1.8356 H         1 <0>         0.0685
     44 H13        -6.2613   -1.4538   -1.0061 H         1 <0>         0.0563
     45 H14        -3.9427    0.3033   -0.0768 H         1 <0>         0.0406
     46 H15        -5.5341    0.8563   -0.6529 H         1 <0>         0.0772
     47 H16        -3.7461   -0.8138    2.0285 H         1 <0>         0.0394
     48 H17        -5.1901   -1.0982    3.0305 H         1 <0>         0.0783
     49 H18        -6.0393   -2.7483    1.4243 H         1 <0>         0.0563
     50 H19        -4.3636   -3.1812    1.8544 H         1 <0>         0.0674
     51 H20        -4.5044    1.5283    2.1433 H         1 <0>         0.0422
     52 H21        -5.9950    1.9913    1.2875 H         1 <0>         0.0858
     53 H22        -8.1693    1.6640    2.3132 H         1 <0>         0.1285
     54 H23        -9.4450    1.4880    4.4089 H         1 <0>         0.1309
     55 H24        -8.3085    0.8561    6.4969 H         1 <0>         0.1292
     56 H25        -4.5982    0.5642    4.3658 H         1 <0>         0.1264
     57 H26        -2.9283    1.3874    5.8698 H         1 <0>         0.0700
     58 H27        -4.5244    2.0175    5.3871 H         1 <0>         0.0990
     59 H28        -3.0089    3.7912    6.3407 H         1 <0>         0.0765
     60 H29        -4.5182    3.5906    7.2637 H         1 <0>         0.0681
     61 H30        -1.8355    2.3122    7.9621 H         1 <0>         0.0648
     62 H31        -2.5388    3.7354    8.7666 H         1 <0>         0.0672
     63 H32        -3.0066    1.6860   10.0668 H         1 <0>         0.0777
     64 H33        -4.5169    2.3723    9.4200 H         1 <0>         0.0669
     65 H34        -4.5272   -0.0389    9.0449 H         1 <0>         0.0936
     66 H35        -2.9302    0.0450    8.2576 H         1 <0>         0.0683
@<TRIPOS>BOND
     1    1    2 1
     2    1   32 1
     3    1   33 1
     4    1   34 1
     5    2    3 1
     6    2    4 1
     7    2   35 1
     8    3   36 1
     9    3   37 1
    10    3   38 1
    11    4    5 1
    12    5   10 ar
    13    5    6 ar
    14    6    7 ar
    15    6   39 1
    16    7    8 ar
    17    7   40 1
    18    8    9 ar
    19    8   41 1
    20    9   10 ar
    21    9   42 1
    22   10   11 1
    23   11   16 1
    24   11   12 1
    25   12   13 1
    26   12   43 1
    27   12   44 1
    28   13   14 1
    29   13   45 1
    30   13   46 1
    31   14   15 1
    32   14   17 1
    33   15   16 1
    34   15   47 1
    35   15   48 1
    36   16   49 1
    37   16   50 1
    38   17   18 1
    39   17   51 1
    40   17   52 1
    41   18   23 ar
    42   18   19 ar
    43   19   20 ar
    44   19   53 1
    45   20   21 ar
    46   20   54 1
    47   21   22 ar
    48   21   55 1
    49   22   23 ar
    50   22   24 1
    51   23   56 1
    52   24   25 2
    53   24   26 am
    54   26   31 1
    55   26   27 1
    56   27   28 1
    57   27   57 1
    58   27   58 1
    59   28   29 1
    60   28   59 1
    61   28   60 1
    62   29   30 1
    63   29   61 1
    64   29   62 1
    65   30   31 1
    66   30   63 1
    67   30   64 1
    68   31   65 1
    69   31   66 1
@<TRIPOS>MOLECULE
ZINC02001180
   30    30     0     0     0
SMALL
USER_CHARGES
(1S)-2-amino-1-(2,5-dimethoxyphenyl)ethanol
@<TRIPOS>ATOM
      1 C1         -0.0127    1.0858    0.0080 C.3       1 <0>         0.0235
      2 O1         -0.6816    1.5467    1.1837 O.3       1 <0>        -0.3136
      3 C2         -0.7875    2.8926    1.3463 C.ar      1 <0>         0.1061
      4 C3         -0.2530    3.7502    0.3959 C.ar      1 <0>        -0.1501
      5 C4         -0.3656    5.1171    0.5581 C.ar      1 <0>        -0.1580
      6 C5         -1.0031    5.6326    1.6771 C.ar      1 <0>         0.1049
      7 C6         -1.5323    4.7753    2.6301 C.ar      1 <0>        -0.1366
      8 C7         -1.4247    3.4079    2.4650 C.ar      1 <0>        -0.1041
      9 C8         -2.2244    5.3353    3.8460 C.3       1 <0>         0.1435
     10 H1         -1.7304    6.2572    4.1529 H         1 <0>         0.1365
     11 C9         -3.6880    5.6283    3.5101 C.3       1 <0>        -0.0353
     12 O2         -2.1612    4.3840    4.9105 O.3       1 <0>        -0.5480
     13 O3         -1.1094    6.9785    1.8394 O.3       1 <0>        -0.3258
     14 C10        -0.5416    7.8019    0.8188 C.3       1 <0>         0.0240
     15 H2          0.0021   -0.0041    0.0020 H         1 <0>         0.1085
     16 H3          1.0099    1.4631    0.0003 H         1 <0>         0.0598
     17 H4         -0.5399    1.4469   -0.8751 H         1 <0>         0.0591
     18 H5          0.2474    3.3489   -0.4730 H         1 <0>         0.1406
     19 H6          0.0465    5.7847   -0.1841 H         1 <0>         0.1405
     20 H7         -1.8372    2.7403    3.2069 H         1 <0>         0.1408
     21 H8         -3.7370    6.2847    2.6413 H         1 <0>         0.1443
     22 H9         -4.2041    4.6940    3.2893 H         1 <0>         0.1396
     23 H10        -5.2999    6.4883    4.4592 H         1 <0>         0.4405
     24 H11        -4.2427    5.7236    5.4904 H         1 <0>         0.4406
     25 H12        -2.5822    3.5376    4.7070 H         1 <0>         0.3894
     26 H13        -0.6954    8.8511    1.0709 H         1 <0>         0.1072
     27 H14         0.5267    7.5997    0.7413 H         1 <0>         0.0620
     28 H15        -1.0229    7.5829   -0.1344 H         1 <0>         0.0607
     29 N1         -4.3176    6.3053    4.6575 N.4       1 <0>        -0.6419
     30 H16        -3.8384    7.1973    4.8277 H         1 <0>         0.4411
@<TRIPOS>BOND
     1    1    2 1
     2    1   15 1
     3    1   16 1
     4    1   17 1
     5    2    3 1
     6    3    8 ar
     7    3    4 ar
     8    4    5 ar
     9    4   18 1
    10    5    6 ar
    11    5   19 1
    12    6    7 ar
    13    6   13 1
    14    7    8 ar
    15    7    9 1
    16    8   20 1
    17    9   10 1
    18    9   11 1
    19    9   12 1
    20   11   21 1
    21   11   22 1
    22   11   29 1
    23   12   25 1
    24   13   14 1
    25   14   26 1
    26   14   27 1
    27   14   28 1
    28   23   29 1
    29   24   29 1
    30   29   30 1
@<TRIPOS>MOLECULE
ZINC02001181
   30    30     0     0     0
SMALL
USER_CHARGES
(1R)-2-amino-1-(2,5-dimethoxyphenyl)ethanol
@<TRIPOS>ATOM
      1 C1         -0.0127    1.0858    0.0080 C.3       1 <0>         0.0235
      2 O1         -0.6816    1.5467    1.1837 O.3       1 <0>        -0.3137
      3 C2         -0.1485    1.1819    2.3803 C.ar      1 <0>         0.1058
      4 C3          0.9945    0.3968    2.4200 C.ar      1 <0>        -0.1500
      5 C4          1.5359    0.0263    3.6353 C.ar      1 <0>        -0.1581
      6 C5          0.9367    0.4392    4.8163 C.ar      1 <0>         0.1056
      7 C6         -0.2056    1.2244    4.7767 C.ar      1 <0>        -0.1369
      8 C7         -0.7442    1.5994    3.5610 C.ar      1 <0>        -0.1042
      9 C8         -0.8560    1.6739    6.0597 C.3       1 <0>         0.1434
     10 H1         -0.0879    1.8625    6.8097 H         1 <0>         0.1372
     11 C9         -1.8018    0.5812    6.5620 C.3       1 <0>        -0.0357
     12 O2         -1.5962    2.8732    5.8239 O.3       1 <0>        -0.5485
     13 O3          1.4698    0.0744    6.0130 O.3       1 <0>        -0.3253
     14 C10         2.6473   -0.7345    5.9790 C.3       1 <0>         0.0240
     15 H2          0.0021   -0.0041    0.0020 H         1 <0>         0.0591
     16 H3          1.0099    1.4631    0.0003 H         1 <0>         0.0598
     17 H4         -0.5399    1.4469   -0.8751 H         1 <0>         0.1085
     18 H5          1.4612    0.0756    1.5005 H         1 <0>         0.1405
     19 H6          2.4260   -0.5846    3.6662 H         1 <0>         0.1406
     20 H7         -1.6315    2.2143    3.5301 H         1 <0>         0.1406
     21 H8         -2.5699    0.3925    5.8120 H         1 <0>         0.1393
     22 H9         -1.2372   -0.3336    6.7419 H         1 <0>         0.1450
     23 H10        -2.9122    1.8999    7.6875 H         1 <0>         0.4402
     24 H11        -3.0658    0.3143    8.1650 H         1 <0>         0.4405
     25 H12        -2.2984    2.7790    5.1658 H         1 <0>         0.3890
     26 H13         3.4403   -0.2000    5.4559 H         1 <0>         0.0620
     27 H14         2.9674   -0.9532    6.9978 H         1 <0>         0.1073
     28 H15         2.4325   -1.6672    5.4575 H         1 <0>         0.0606
     29 N1         -2.4153    1.0217    7.8273 N.4       1 <0>        -0.6415
     30 H16        -1.6787    1.1616    8.5288 H         1 <0>         0.4411
@<TRIPOS>BOND
     1    1    2 1
     2    1   15 1
     3    1   16 1
     4    1   17 1
     5    2    3 1
     6    3    8 ar
     7    3    4 ar
     8    4    5 ar
     9    4   18 1
    10    5    6 ar
    11    5   19 1
    12    6    7 ar
    13    6   13 1
    14    7    8 ar
    15    7    9 1
    16    8   20 1
    17    9   10 1
    18    9   11 1
    19    9   12 1
    20   11   21 1
    21   11   22 1
    22   11   29 1
    23   12   25 1
    24   13   14 1
    25   14   26 1
    26   14   27 1
    27   14   28 1
    28   23   29 1
    29   24   29 1
    30   29   30 1
@<TRIPOS>MOLECULE
ZINC02581459
   41    43     0     0     0
SMALL
USER_CHARGES

@<TRIPOS>ATOM
      1 C1         -0.1339    1.9422   -2.4462 C.3       1 <0>        -0.6728
      2 S1         -0.3197    0.7725   -1.0722 S.o2      1 <0>         2.5956
      3 O1          0.2181    1.3283    0.1199 O.2       1 <0>        -0.9097
      4 O2         -1.6232    0.2068   -1.0840 O.2       1 <0>        -0.9459
      5 N1          0.6903   -0.4857   -1.4450 N.pl3     1 <0>        -1.0607
      6 C2          2.0674   -0.2659   -1.5645 C.ar      1 <0>         0.1032
      7 C3          2.7939    0.1829   -0.4668 C.ar      1 <0>         0.1368
      8 C4          4.1563    0.3977   -0.5896 C.ar      1 <0>        -0.1258
      9 C5          4.7815    0.1624   -1.7975 C.ar      1 <0>        -0.1043
     10 C6          4.0591   -0.2867   -2.8955 C.ar      1 <0>        -0.1117
     11 C7          2.7038   -0.5034   -2.7811 C.ar      1 <0>        -0.0352
     12 C8          1.8585   -0.9795   -3.9333 C.3       1 <0>        -0.0953
     13 C9          2.7337   -1.5916   -5.0251 C.3       1 <0>        -0.1172
     14 C10         3.8537   -0.5997   -5.3603 C.3       1 <0>        -0.1241
     15 C11         4.8123   -0.5280   -4.1778 C.3       1 <0>        -0.0228
     16 H1          5.3493   -1.4739   -4.1067 H         1 <0>         0.1398
     17 C12         5.8011    0.5891   -4.3911 C.cat     1 <0>         0.5221
     18 N2          5.4951    1.6856   -5.0439 N.pl3     1 <0>        -0.6264
     19 C13         6.6681    2.5739   -5.0785 C.3       1 <0>         0.0552
     20 C14         7.7385    1.7737   -4.3076 C.3       1 <0>         0.0564
     21 N3          7.0299    0.5393   -3.9330 N.pl3     1 <0>        -0.6339
     22 O3          2.1698    0.4099    0.7202 O.3       1 <0>        -0.4533
     23 H2          0.9146    2.2232   -2.5449 H         1 <0>         0.1216
     24 H3         -0.4732    1.4742   -3.3703 H         1 <0>         0.1286
     25 H4         -0.7315    2.8322   -2.2490 H         1 <0>         0.1355
     26 H5          0.3276   -1.3751   -1.5805 H         1 <0>         0.4272
     27 H6          4.7278    0.7486    0.2569 H         1 <0>         0.1456
     28 H7          5.8445    0.3297   -1.8900 H         1 <0>         0.1206
     29 H8          1.1531   -1.7295   -3.5756 H         1 <0>         0.0928
     30 H9          1.3061   -0.1356   -4.3465 H         1 <0>         0.0887
     31 H10         3.1659   -2.5263   -4.6681 H         1 <0>         0.0815
     32 H11         2.1325   -1.7807   -5.9144 H         1 <0>         0.0917
     33 H12         4.3881   -0.9359   -6.2489 H         1 <0>         0.0936
     34 H13         3.4282    0.3878   -5.5389 H         1 <0>         0.0747
     35 H14         6.9862    2.7515   -6.1059 H         1 <0>         0.1287
     36 H15         6.4531    3.5152   -4.5730 H         1 <0>         0.1279
     37 H16         8.5905    1.5521   -4.9503 H         1 <0>         0.1289
     38 H17         8.0573    2.3159   -3.4174 H         1 <0>         0.1279
     39 H18         7.4115   -0.1961   -3.4284 H         1 <0>         0.4601
     40 H19         2.0766   -0.3783    1.2726 H         1 <0>         0.3958
     41 H20         4.6319    1.8799   -5.4415 H         1 <0>         0.4586
@<TRIPOS>BOND
     1    1    2 1
     2    1   23 1
     3    1   24 1
     4    1   25 1
     5    2    3 2
     6    2    4 2
     7    2    5 1
     8    5    6 1
     9    5   26 1
    10    6   11 ar
    11    6    7 ar
    12    7    8 ar
    13    7   22 1
    14    8    9 ar
    15    8   27 1
    16    9   10 ar
    17    9   28 1
    18   10   15 1
    19   10   11 ar
    20   11   12 1
    21   12   13 1
    22   12   29 1
    23   12   30 1
    24   13   14 1
    25   13   31 1
    26   13   32 1
    27   14   15 1
    28   14   33 1
    29   14   34 1
    30   15   16 1
    31   15   17 1
    32   17   21 1
    33   17   18 2
    34   18   19 1
    35   18   41 1
    36   19   20 1
    37   19   35 1
    38   19   36 1
    39   20   21 1
    40   20   37 1
    41   20   38 1
    42   21   39 1
    43   22   40 1
@<TRIPOS>MOLECULE
ZINC03995494
   41    43     0     0     0
SMALL
USER_CHARGES

@<TRIPOS>ATOM
      1 C1         -0.1291    1.9418   -2.4489 C.3       1 <0>        -0.6719
      2 S1         -0.3204    0.7721   -1.0756 S.o2      1 <0>         2.5947
      3 O1          0.2134    1.3276    0.1184 O.2       1 <0>        -0.9101
      4 O2         -1.6241    0.2069   -1.0920 O.2       1 <0>        -0.9468
      5 N1          0.6905   -0.4866   -1.4447 N.pl3     1 <0>        -1.0607
      6 C2          2.0675   -0.2663   -1.5644 C.ar      1 <0>         0.1037
      7 C3          2.7939    0.1829   -0.4668 C.ar      1 <0>         0.1364
      8 C4          4.1557    0.4005   -0.5905 C.ar      1 <0>        -0.1256
      9 C5          4.7795    0.1730   -1.8006 C.ar      1 <0>        -0.1059
     10 C6          4.0569   -0.2747   -2.8989 C.ar      1 <0>        -0.1111
     11 C7          2.7039   -0.5038   -2.7809 C.ar      1 <0>        -0.0358
     12 C8          1.8642   -1.0101   -3.9244 C.3       1 <0>        -0.0945
     13 C9          2.5887   -0.8089   -5.2537 C.3       1 <0>        -0.1188
     14 C10         4.0006   -1.3933   -5.1286 C.3       1 <0>        -0.1258
     15 C11         4.8059   -0.4934   -4.1878 C.3       1 <0>        -0.0216
     16 H1          4.9904    0.4695   -4.6641 H         1 <0>         0.1424
     17 C12         6.1241   -1.1600   -3.8895 C.cat     1 <0>         0.5214
     18 N2          6.2875   -2.4603   -3.9581 N.pl3     1 <0>        -0.6265
     19 C13         7.6784   -2.7943   -3.6119 C.3       1 <0>         0.0554
     20 C14         8.3096   -1.4166   -3.3223 C.3       1 <0>         0.0562
     21 N3          7.1947   -0.4824   -3.5474 N.pl3     1 <0>        -0.6348
     22 O3          2.1702    0.4075    0.7209 O.3       1 <0>        -0.4521
     23 H2          0.9177    2.2331   -2.5348 H         1 <0>         0.1247
     24 H3         -0.4521    1.4691   -3.3764 H         1 <0>         0.1284
     25 H4         -0.7380    2.8260   -2.2605 H         1 <0>         0.1361
     26 H5          0.3283   -1.3765   -1.5780 H         1 <0>         0.4267
     27 H6          4.7280    0.7476    0.2572 H         1 <0>         0.1458
     28 H7          5.8415    0.3455   -1.8945 H         1 <0>         0.1203
     29 H8          1.6646   -2.0720   -3.7810 H         1 <0>         0.0922
     30 H9          0.9193   -0.4670   -3.9443 H         1 <0>         0.0885
     31 H10         2.0477   -1.3230   -6.0481 H         1 <0>         0.0917
     32 H11         2.6508    0.2555   -5.4805 H         1 <0>         0.0809
     33 H12         3.9451   -2.4038   -4.7237 H         1 <0>         0.0778
     34 H13         4.4769   -1.4157   -6.1088 H         1 <0>         0.0933
     35 H14         7.7129   -3.4274   -2.7253 H         1 <0>         0.1276
     36 H15         8.1784   -3.2778   -4.4511 H         1 <0>         0.1285
     37 H16         8.6589   -1.3624   -2.2912 H         1 <0>         0.1280
     38 H17         9.1244   -1.2129   -4.0170 H         1 <0>         0.1282
     39 H18         7.2431    0.4820   -3.4555 H         1 <0>         0.4598
     40 H19         2.0787   -0.3815    1.2725 H         1 <0>         0.3943
     41 H20         5.5996   -3.1006   -4.1986 H         1 <0>         0.4587
@<TRIPOS>BOND
     1    1    2 1
     2    1   23 1
     3    1   24 1
     4    1   25 1
     5    2    3 2
     6    2    4 2
     7    2    5 1
     8    5    6 1
     9    5   26 1
    10    6   11 ar
    11    6    7 ar
    12    7    8 ar
    13    7   22 1
    14    8    9 ar
    15    8   27 1
    16    9   10 ar
    17    9   28 1
    18   10   15 1
    19   10   11 ar
    20   11   12 1
    21   12   13 1
    22   12   29 1
    23   12   30 1
    24   13   14 1
    25   13   31 1
    26   13   32 1
    27   14   15 1
    28   14   33 1
    29   14   34 1
    30   15   16 1
    31   15   17 1
    32   17   21 1
    33   17   18 2
    34   18   19 1
    35   18   41 1
    36   19   20 1
    37   19   35 1
    38   19   36 1
    39   20   21 1
    40   20   37 1
    41   20   38 1
    42   21   39 1
    43   22   40 1
@<TRIPOS>MOLECULE
ZINC00020245
   46    48     0     0     0
SMALL
USER_CHARGES

@<TRIPOS>ATOM
      1 C1         -5.6836    1.3838    0.0162 C.3       1 <0>        -0.0473
      2 N1         -5.6620   -0.0833   -0.0564 N.4       1 <0>        -0.3868
      3 C2         -6.3713   -0.5242   -1.2649 C.3       1 <0>        -0.0522
      4 C3         -4.2702   -0.5505   -0.1076 C.3       1 <0>        -0.0086
      5 C4         -4.2434   -2.0795   -0.0575 C.3       1 <0>        -0.1781
      6 C5         -2.7938   -2.5661   -0.1108 C.3       1 <0>         0.1490
      7 N2         -2.7704   -4.0309   -0.1190 N.pl3     1 <0>        -0.6108
      8 C6         -2.7295   -4.7451   -1.3212 C.ar      1 <0>         0.1758
      9 C7         -1.6865   -4.4783   -2.2022 C.ar      1 <0>        -0.1411
     10 C8         -1.5734   -5.1772   -3.3856 C.ar      1 <0>        -0.1022
     11 C9         -2.5089   -6.1508   -3.6854 C.ar      1 <0>        -0.1266
     12 C10        -3.5489   -6.4041   -2.8209 C.ar      1 <0>        -0.1101
     13 C11        -3.6933   -5.6947   -1.6266 C.ar      1 <0>        -0.0998
     14 C12        -4.9357   -6.0340   -0.8354 C.3       1 <0>        -0.0687
     15 C13        -5.1005   -5.1892    0.4158 C.3       1 <0>        -0.0773
     16 C14        -3.9592   -5.4030    1.3779 C.ar      1 <0>        -0.0996
     17 C15        -2.7824   -4.7590    1.0748 C.ar      1 <0>         0.1523
     18 C16        -1.6837   -4.8488    1.9126 C.ar      1 <0>        -0.1184
     19 C17        -1.7825   -5.6251    3.0560 C.ar      1 <0>        -0.1094
     20 C18        -2.9565   -6.2950    3.3488 C.ar      1 <0>        -0.1165
     21 C19        -4.0679   -6.1865    2.5030 C.ar      1 <0>        -0.1028
     22 H1         -6.7163    1.7305    0.0542 H         1 <0>         0.1245
     23 H2         -5.1573    1.7109    0.9129 H         1 <0>         0.1235
     24 H3         -5.1933    1.7984   -0.8646 H         1 <0>         0.1221
     25 H4         -6.3552   -1.6128   -1.3188 H         1 <0>         0.1231
     26 H5         -7.4040   -0.1775   -1.2269 H         1 <0>         0.1246
     27 H6         -5.8810   -0.1096   -2.1457 H         1 <0>         0.1227
     28 H7         -3.8061   -0.2091   -1.0329 H         1 <0>         0.1308
     29 H8         -3.7207   -0.1494    0.7440 H         1 <0>         0.1320
     30 H9         -4.7075   -2.4209    0.8678 H         1 <0>         0.0908
     31 H10        -4.7929   -2.4806   -0.9091 H         1 <0>         0.0915
     32 H11        -2.3174   -2.1901   -1.0161 H         1 <0>         0.0824
     33 H12        -2.2550   -2.1990    0.7627 H         1 <0>         0.0801
     34 H13        -0.9599   -3.7176   -1.9576 H         1 <0>         0.1215
     35 H14        -0.7646   -4.9667   -4.0697 H         1 <0>         0.1276
     36 H15        -2.4229   -6.7145   -4.6025 H         1 <0>         0.1250
     37 H16        -4.2693   -7.1687   -3.0712 H         1 <0>         0.1222
     38 H17        -5.8074   -5.8880   -1.4734 H         1 <0>         0.0793
     39 H18        -4.8898   -7.0837   -0.5452 H         1 <0>         0.0765
     40 H19        -5.1365   -4.1371    0.1334 H         1 <0>         0.0724
     41 H20        -6.0358   -5.4578    0.9068 H         1 <0>         0.0709
     42 H21        -0.7686   -4.3248    1.6795 H         1 <0>         0.1257
     43 H22        -0.9372   -5.7074    3.7231 H         1 <0>         0.1275
     44 H23        -3.0178   -6.9071    4.2365 H         1 <0>         0.1269
     45 H24        -4.9880   -6.7067    2.7249 H         1 <0>         0.1290
     46 H25        -6.1159   -0.4671    0.7589 H         1 <0>         0.4268
@<TRIPOS>BOND
     1    1    2 1
     2    1   22 1
     3    1   23 1
     4    1   24 1
     5    2    3 1
     6    2    4 1
     7    2   46 1
     8    3   25 1
     9    3   26 1
    10    3   27 1
    11    4    5 1
    12    4   28 1
    13    4   29 1
    14    5    6 1
    15    5   30 1
    16    5   31 1
    17    6    7 1
    18    6   32 1
    19    6   33 1
    20    7   17 1
    21    7    8 1
    22    8   13 ar
    23    8    9 ar
    24    9   10 ar
    25    9   34 1
    26   10   11 ar
    27   10   35 1
    28   11   12 ar
    29   11   36 1
    30   12   13 ar
    31   12   37 1
    32   13   14 1
    33   14   15 1
    34   14   38 1
    35   14   39 1
    36   15   16 1
    37   15   40 1
    38   15   41 1
    39   16   21 ar
    40   16   17 ar
    41   17   18 ar
    42   18   19 ar
    43   18   42 1
    44   19   20 ar
    45   19   43 1
    46   20   21 ar
    47   20   44 1
    48   21   45 1
@<TRIPOS>MOLECULE
ZINC00009342
   45    46     0     0     0
SMALL
USER_CHARGES
4-[2-dimethylamino-1-(1-hydroxycyclohexyl)-ethyl]phenol
@<TRIPOS>ATOM
      1 C1          4.0754    1.7770    3.9402 C.3       1 <0>        -0.0526
      2 C2          5.8408    1.8687    2.2857 C.3       1 <0>        -0.0457
      3 C3          4.3854   -0.0630    2.3972 C.3       1 <0>         0.0011
      4 C4          2.9174   -0.4882    2.4702 C.3       1 <0>        -0.0486
      5 H1          2.4740   -0.1068    3.3900 H         1 <0>         0.1101
      6 C5          2.8288   -1.9925    2.4560 C.ar      1 <0>        -0.1106
      7 C6          3.3250   -2.7029    1.3786 C.ar      1 <0>        -0.0774
      8 C7          3.2501   -4.0823    1.3657 C.ar      1 <0>        -0.1474
      9 C8          2.6657   -4.7540    2.4297 C.ar      1 <0>         0.1257
     10 C9          2.1635   -4.0385    3.5070 C.ar      1 <0>        -0.1460
     11 C10         2.2464   -2.6596    3.5178 C.ar      1 <0>        -0.0893
     12 O1          2.5850   -6.1105    2.4164 O.3       1 <0>        -0.4985
     13 C11         2.1619    0.0786    1.2666 C.3       1 <0>         0.1301
     14 C12         0.7353   -0.4742    1.2534 C.3       1 <0>        -0.1408
     15 C13        -0.0203    0.0926    0.0498 C.3       1 <0>        -0.1289
     16 C14        -0.0657    1.6187    0.1487 C.3       1 <0>        -0.1268
     17 C15         1.3609    2.1716    0.1618 C.3       1 <0>        -0.1260
     18 C16         2.1165    1.6048    1.3655 C.3       1 <0>        -0.1593
     19 O2          2.8310   -0.3010    0.0623 O.3       1 <0>        -0.5539
     20 H2          4.7225    1.2870    4.6677 H         1 <0>         0.1234
     21 H3          4.1579    2.8582    4.0507 H         1 <0>         0.1212
     22 H4          3.0426    1.4722    4.1093 H         1 <0>         0.1167
     23 H5          6.0915    1.6307    1.2520 H         1 <0>         0.1193
     24 H6          5.8859    2.9480    2.4313 H         1 <0>         0.1194
     25 H7          6.5519    1.3821    2.9533 H         1 <0>         0.1203
     26 H8          4.9495   -0.5686    3.1810 H         1 <0>         0.1309
     27 H9          4.7939   -0.3334    1.4235 H         1 <0>         0.1390
     28 H10         3.7752   -2.1792    0.5482 H         1 <0>         0.1418
     29 H11         3.6421   -4.6370    0.5261 H         1 <0>         0.1334
     30 H12         1.7078   -4.5591    4.3363 H         1 <0>         0.1344
     31 H13         1.8556   -2.1022    4.3562 H         1 <0>         0.1272
     32 H14         1.7756   -6.4524    2.0126 H         1 <0>         0.3992
     33 H15         0.2250   -0.1847    2.1720 H         1 <0>         0.0769
     34 H16         0.7677   -1.5615    1.1830 H         1 <0>         0.0861
     35 H17        -1.0365   -0.3013    0.0404 H         1 <0>         0.0780
     36 H18         0.4901   -0.1970   -0.8688 H         1 <0>         0.0675
     37 H19        -0.6039    2.0225   -0.7088 H         1 <0>         0.0774
     38 H20        -0.5760    1.9082    1.0673 H         1 <0>         0.0702
     39 H21         1.8713    1.8820   -0.7568 H         1 <0>         0.0743
     40 H22         1.3285    3.2588    0.2323 H         1 <0>         0.0810
     41 H23         1.6061    1.8943    2.2840 H         1 <0>         0.0978
     42 H24         3.1328    1.9987    1.3748 H         1 <0>         0.0645
     43 H25         2.4062    0.0246   -0.7431 H         1 <0>         0.3898
     44 N1          4.4660    1.4033    2.5645 N.4       1 <0>        -0.4270
     45 H26         3.8217    1.8505    1.9018 H         1 <0>         0.4221
@<TRIPOS>BOND
     1    1   20 1
     2    1   21 1
     3    1   22 1
     4    1   44 1
     5    2   23 1
     6    2   24 1
     7    2   25 1
     8    2   44 1
     9    3    4 1
    10    3   26 1
    11    3   27 1
    12    3   44 1
    13    4    5 1
    14    4    6 1
    15    4   13 1
    16    6   11 ar
    17    6    7 ar
    18    7    8 ar
    19    7   28 1
    20    8    9 ar
    21    8   29 1
    22    9   10 ar
    23    9   12 1
    24   10   11 ar
    25   10   30 1
    26   11   31 1
    27   12   32 1
    28   13   18 1
    29   13   14 1
    30   13   19 1
    31   14   15 1
    32   14   33 1
    33   14   34 1
    34   15   16 1
    35   15   35 1
    36   15   36 1
    37   16   17 1
    38   16   37 1
    39   16   38 1
    40   17   18 1
    41   17   39 1
    42   17   40 1
    43   18   41 1
    44   18   42 1
    45   19   43 1
    46   44   45 1
@<TRIPOS>MOLECULE
ZINC02525885
   45    46     0     0     0
SMALL
USER_CHARGES
4-[2-dimethylamino-1-(1-hydroxycyclohexyl)-ethyl]phenol
@<TRIPOS>ATOM
      1 C1          2.5905   -0.6841    2.2375 C.3       1 <0>        -0.0450
      2 C2          3.6068    1.1716    3.4149 C.3       1 <0>        -0.0438
      3 C3          3.3210    1.2726    1.0126 C.3       1 <0>        -0.0027
      4 C4          2.2252    1.2856   -0.0551 C.3       1 <0>        -0.0490
      5 H1          1.8139    0.2822   -0.1658 H         1 <0>         0.1083
      6 C5          1.1304    2.2343    0.3602 C.ar      1 <0>        -0.1406
      7 C6         -0.1942    1.8636    0.2194 C.ar      1 <0>        -0.0831
      8 C7         -1.1997    2.7337    0.5941 C.ar      1 <0>        -0.1383
      9 C8         -0.8793    3.9758    1.1224 C.ar      1 <0>         0.1319
     10 C9          0.4505    4.3452    1.2630 C.ar      1 <0>        -0.1399
     11 C10         1.4522    3.4737    0.8816 C.ar      1 <0>        -0.1068
     12 O1         -1.8666    4.8315    1.4965 O.3       1 <0>        -0.4972
     13 C11         2.8183    1.7437   -1.3890 C.3       1 <0>         0.1518
     14 C12         3.3988    3.1506   -1.2327 C.3       1 <0>        -0.1588
     15 C13         3.9919    3.6087   -2.5666 C.3       1 <0>        -0.1251
     16 C14         2.8953    3.6251   -3.6334 C.3       1 <0>        -0.1269
     17 C15         2.3148    2.2182   -3.7898 C.3       1 <0>        -0.1260
     18 C16         1.7217    1.7601   -2.4559 C.3       1 <0>        -0.1433
     19 O2          3.8541    0.8422   -1.7844 O.3       1 <0>        -0.5630
     20 H2          3.5554   -1.1615    2.0668 H         1 <0>         0.1256
     21 H3          2.1783   -1.0270    3.1865 H         1 <0>         0.1224
     22 H4          1.9077   -0.9456    1.4291 H         1 <0>         0.1196
     23 H5          3.5991    2.2574    3.5102 H         1 <0>         0.1199
     24 H6          3.2173    0.7238    4.3291 H         1 <0>         0.1235
     25 H7          4.6281    0.8286    3.2489 H         1 <0>         0.1249
     26 H8          4.1340    0.6218    0.6910 H         1 <0>         0.1462
     27 H9          3.7004    2.2843    1.1561 H         1 <0>         0.1297
     28 H10        -0.4430    0.8948   -0.1878 H         1 <0>         0.1340
     29 H11        -2.2342    2.4456    0.4795 H         1 <0>         0.1391
     30 H12         0.7024    5.3131    1.6706 H         1 <0>         0.1380
     31 H13         2.4876    3.7609    0.9905 H         1 <0>         0.1316
     32 H14        -2.1620    5.4236    0.7913 H         1 <0>         0.4034
     33 H15         2.6087    3.8382   -0.9310 H         1 <0>         0.0864
     34 H16         4.1800    3.1389   -0.4726 H         1 <0>         0.0680
     35 H17         4.7820    2.9210   -2.8682 H         1 <0>         0.0655
     36 H18         4.4055    4.6110   -2.4552 H         1 <0>         0.0731
     37 H19         3.3178    3.9515   -4.5837 H         1 <0>         0.0709
     38 H20         2.1052    4.3128   -3.3318 H         1 <0>         0.0652
     39 H21         3.1049    1.5306   -4.0914 H         1 <0>         0.0654
     40 H22         1.5336    2.2299   -4.5498 H         1 <0>         0.0738
     41 H23         1.3081    0.7578   -2.5672 H         1 <0>         0.0734
     42 H24         0.9316    2.4478   -2.1542 H         1 <0>         0.0778
     43 H25         4.2760    1.0716   -2.6237 H         1 <0>         0.3912
     44 N1          2.7400    0.7857    2.2815 N.4       1 <0>        -0.3993
     45 H26         1.8144    1.2114    2.4095 H         1 <0>         0.4280
@<TRIPOS>BOND
     1    1   20 1
     2    1   21 1
     3    1   22 1
     4    1   44 1
     5    2   23 1
     6    2   24 1
     7    2   25 1
     8    2   44 1
     9    3    4 1
    10    3   26 1
    11    3   27 1
    12    3   44 1
    13    4    5 1
    14    4    6 1
    15    4   13 1
    16    6   11 ar
    17    6    7 ar
    18    7    8 ar
    19    7   28 1
    20    8    9 ar
    21    8   29 1
    22    9   10 ar
    23    9   12 1
    24   10   11 ar
    25   10   30 1
    26   11   31 1
    27   12   32 1
    28   13   18 1
    29   13   14 1
    30   13   19 1
    31   14   15 1
    32   14   33 1
    33   14   34 1
    34   15   16 1
    35   15   35 1
    36   15   36 1
    37   16   17 1
    38   16   37 1
    39   16   38 1
    40   17   18 1
    41   17   39 1
    42   17   40 1
    43   18   41 1
    44   18   42 1
    45   19   43 1
    46   44   45 1
@<TRIPOS>MOLECULE
ZINC00538337
   58    62     0     0     0
SMALL
USER_CHARGES

@<TRIPOS>ATOM
      1 C1         -0.0168    1.3842    0.0097 C.ar      1 <0>        -0.0898
      2 C2          1.1703    2.0901    0.0021 C.ar      1 <0>        -0.1344
      3 C3          2.3788    1.4141   -0.0135 C.ar      1 <0>         0.1119
      4 C4          2.3997    0.0295   -0.0216 C.ar      1 <0>        -0.1322
      5 C5          1.2148   -0.6800   -0.0137 C.ar      1 <0>        -0.0888
      6 C6          0.0021   -0.0041    0.0020 C.ar      1 <0>         0.1035
      7 N1         -1.2015   -0.7222    0.0101 N.pl3     1 <0>        -0.4255
      8 C7         -2.2407   -0.5077    0.8765 C.2       1 <0>         0.0751
      9 C8         -3.2397   -1.3652    0.6140 C.2       1 <0>        -0.1721
     10 C9         -2.8068   -2.1974   -0.5117 C.ar      1 <0>        -0.0841
     11 C10        -1.5194   -1.7470   -0.8569 C.ar      1 <0>         0.1032
     12 C11        -0.8430   -2.3517   -1.9103 C.ar      1 <0>        -0.1070
     13 C12        -1.4366   -3.3808   -2.6081 C.ar      1 <0>        -0.0841
     14 C13        -2.7089   -3.8239   -2.2706 C.ar      1 <0>        -0.0491
     15 C14        -3.3935   -3.2441   -1.2250 C.ar      1 <0>        -0.0671
     16 Cl1        -3.4366   -5.1218   -3.1648 Cl        1 <0>        -0.0596
     17 C15        -4.5571   -1.4553    1.3402 C.3       1 <0>        -0.0164
     18 C16        -4.3063   -1.7573    2.8204 C.3       1 <0>        -0.1397
     19 C17        -5.6422   -1.7687    3.5665 C.3       1 <0>        -0.0052
     20 N2         -6.2909   -0.4585    3.4359 N.4       1 <0>        -0.3798
     21 C18        -6.5994   -0.1937    2.0255 C.3       1 <0>        -0.0131
     22 C19        -5.3003   -0.1217    1.2201 C.3       1 <0>        -0.1392
     23 C20        -7.5345   -0.4493    4.2177 C.3       1 <0>        -0.0330
     24 C21        -8.1476    0.9521    4.1845 C.3       1 <0>         0.1326
     25 N3         -9.3878    0.9612    4.9641 N.am      1 <0>        -0.6351
     26 C22       -10.7283    0.6664    4.4362 C.3       1 <0>         0.0898
     27 C23       -11.6494    0.8170    5.6625 C.3       1 <0>         0.0871
     28 N4        -10.7301    1.1807    6.7511 N.am      1 <0>        -0.7327
     29 C24        -9.4802    1.2337    6.2723 C.2       1 <0>         0.7000
     30 O1         -8.5172    1.5083    6.9620 O.2       1 <0>        -0.5776
     31 F1          3.5389    2.1063   -0.0213 F         1 <0>        -0.1276
     32 H1         -0.9590    1.9118    0.0260 H         1 <0>         0.1391
     33 H2          1.1561    3.1700    0.0080 H         1 <0>         0.1488
     34 H3          3.3432   -0.4959   -0.0345 H         1 <0>         0.1499
     35 H4          1.2315   -1.7598   -0.0203 H         1 <0>         0.1411
     36 H5         -2.2541    0.2401    1.6556 H         1 <0>         0.1691
     37 H6          0.1466   -2.0149   -2.1816 H         1 <0>         0.1333
     38 H7         -0.9074   -3.8472   -3.4259 H         1 <0>         0.1426
     39 H8         -4.3833   -3.5900   -0.9659 H         1 <0>         0.1336
     40 H9         -5.1611   -2.2499    0.9021 H         1 <0>         0.0971
     41 H10        -3.8271   -2.7315    2.9171 H         1 <0>         0.1158
     42 H11        -3.6594   -0.9891    3.2440 H         1 <0>         0.0884
     43 H12        -6.2882   -2.5373    3.1423 H         1 <0>         0.1304
     44 H13        -5.4673   -1.9836    4.6207 H         1 <0>         0.1320
     45 H14        -7.2250   -0.9960    1.6341 H         1 <0>         0.1319
     46 H15        -7.1311    0.7541    1.9420 H         1 <0>         0.1316
     47 H16        -4.6740    0.6804    1.6106 H         1 <0>         0.0885
     48 H17        -5.5315    0.0731    0.1729 H         1 <0>         0.1159
     49 H18        -8.2379   -1.1638    3.7899 H         1 <0>         0.1318
     50 H19        -7.3173   -0.7265    5.2492 H         1 <0>         0.1351
     51 H20        -7.4442    1.6665    4.6123 H         1 <0>         0.1060
     52 H21        -8.3648    1.2293    3.1530 H         1 <0>         0.1030
     53 H22       -11.0011    1.3839    3.6624 H         1 <0>         0.0916
     54 H23       -10.7713   -0.3513    4.0481 H         1 <0>         0.0867
     55 H24       -12.3795    1.6093    5.4975 H         1 <0>         0.0926
     56 H25       -12.1498   -0.1259    5.8832 H         1 <0>         0.0914
     57 H26       -10.9875    1.3510    7.6707 H         1 <0>         0.4382
     58 H27        -5.6719    0.2583    3.7840 H         1 <0>         0.4243
@<TRIPOS>BOND
     1    1    6 ar
     2    1    2 ar
     3    1   32 1
     4    2    3 ar
     5    2   33 1
     6    3    4 ar
     7    3   31 1
     8    4    5 ar
     9    4   34 1
    10    5    6 ar
    11    5   35 1
    12    6    7 1
    13    7   11 1
    14    7    8 1
    15    8    9 2
    16    8   36 1
    17    9   10 1
    18    9   17 1
    19   10   15 ar
    20   10   11 ar
    21   11   12 ar
    22   12   13 ar
    23   12   37 1
    24   13   14 ar
    25   13   38 1
    26   14   15 ar
    27   14   16 1
    28   15   39 1
    29   17   22 1
    30   17   18 1
    31   17   40 1
    32   18   19 1
    33   18   41 1
    34   18   42 1
    35   19   20 1
    36   19   43 1
    37   19   44 1
    38   20   21 1
    39   20   23 1
    40   20   58 1
    41   21   22 1
    42   21   45 1
    43   21   46 1
    44   22   47 1
    45   22   48 1
    46   23   24 1
    47   23   49 1
    48   23   50 1
    49   24   25 1
    50   24   51 1
    51   24   52 1
    52   25   29 am
    53   25   26 1
    54   26   27 1
    55   26   53 1
    56   26   54 1
    57   27   28 1
    58   27   55 1
    59   27   56 1
    60   28   29 am
    61   28   57 1
    62   29   30 2
@<TRIPOS>MOLECULE
ZINC53064442
   59    62     0     0     0
SMALL
USER_CHARGES

@<TRIPOS>ATOM
      1 C1         -0.0173    1.4248    0.0099 C.3       1 <0>         0.0252
      2 O1          0.0021   -0.0041    0.0020 O.3       1 <0>        -0.3038
      3 C2          0.6063   -0.6076   -1.0566 C.ar      1 <0>         0.1200
      4 C3          1.1727    0.1584   -2.0619 C.ar      1 <0>        -0.2067
      5 C4          1.7862   -0.4565   -3.1379 C.ar      1 <0>        -0.0837
      6 C5          1.8369   -1.8361   -3.2138 C.ar      1 <0>        -0.1522
      7 C6          1.2745   -2.6077   -2.2144 C.ar      1 <0>        -0.0880
      8 C7          0.6620   -1.9977   -1.1294 C.ar      1 <0>         0.1392
      9 N1          0.0968   -2.7768   -0.1132 N.pl3     1 <0>        -0.6682
     10 C8         -1.3056   -3.2137   -0.1884 C.3       1 <0>         0.1543
     11 C9         -1.3570   -4.7276    0.0431 C.3       1 <0>         0.0432
     12 N2         -0.6724   -5.0507    1.3020 N.3       1 <0>        -0.5286
     13 C10         0.7517   -4.6956    1.2405 C.3       1 <0>         0.0373
     14 C11         0.8913   -3.1855    1.0551 C.3       1 <0>         0.1540
     15 C12        -0.8472   -6.4678    1.6476 C.3       1 <0>         0.0496
     16 C13        -0.3417   -6.7116    3.0710 C.3       1 <0>         0.0947
     17 N3         -0.5160   -8.1248    3.4157 N.am      1 <0>        -0.5648
     18 C14        -1.6686   -8.5092    3.9834 C.2       1 <0>         0.5224
     19 O2         -2.5368   -7.6868    4.1818 O.2       1 <0>        -0.4928
     20 C15        -1.9055   -9.9436    4.3791 C.3       1 <0>        -0.1313
     21 C16        -1.0927  -10.8580    3.4640 C.3       1 <0>        -0.0666
     22 C17        -1.2370  -12.3190    3.9117 C.3       1 <0>        -0.1127
     23 C18        -1.8643  -13.0802    2.7242 C.3       1 <0>        -0.1253
     24 C19        -1.5011  -12.2210    1.4873 C.3       1 <0>        -0.1236
     25 C20        -1.6310  -10.7733    2.0249 C.3       1 <0>        -0.1241
     26 C21         0.3768  -10.4406    3.4955 C.3       1 <0>        -0.1304
     27 C22         0.4818   -8.9790    3.1448 C.2       1 <0>         0.5233
     28 O3          1.4894   -8.5664    2.6118 O.2       1 <0>        -0.4984
     29 H1          1.0053    1.8021    0.0021 H         1 <0>         0.0536
     30 H2         -0.5445    1.7859   -0.8732 H         1 <0>         0.0536
     31 H3         -0.5275    1.7763    0.9067 H         1 <0>         0.0992
     32 H4          1.1348    1.2363   -2.0057 H         1 <0>         0.1276
     33 H5          2.2267    0.1425   -3.9212 H         1 <0>         0.1244
     34 H6          2.3168   -2.3119   -4.0562 H         1 <0>         0.1237
     35 H7          1.3151   -3.6852   -2.2764 H         1 <0>         0.1250
     36 H8         -1.8890   -2.7058    0.5796 H         1 <0>         0.0594
     37 H9         -1.7097   -2.9800   -1.1734 H         1 <0>         0.0701
     38 H10        -2.3961   -5.0517    0.1006 H         1 <0>         0.0801
     39 H11        -0.8612   -5.2388   -0.7821 H         1 <0>         0.0352
     40 H12         1.2419   -4.9966    2.1663 H         1 <0>         0.0816
     41 H13         1.2181   -5.2073    0.3986 H         1 <0>         0.0367
     42 H14         1.9390   -2.9332    0.8918 H         1 <0>         0.0699
     43 H15         0.5231   -2.6749    1.9450 H         1 <0>         0.0584
     44 H16        -1.9037   -6.7288    1.5875 H         1 <0>         0.0781
     45 H17        -0.2804   -7.0845    0.9501 H         1 <0>         0.0366
     46 H18         0.7149   -6.4507    3.1310 H         1 <0>         0.0953
     47 H19        -0.9085   -6.0950    3.7685 H         1 <0>         0.1048
     48 H20        -1.5937  -10.0924    5.4129 H         1 <0>         0.1126
     49 H21        -2.9654  -10.1783    4.2802 H         1 <0>         0.1162
     50 H22        -0.2581  -12.7361    4.1480 H         1 <0>         0.0750
     51 H23        -1.8902  -12.3805    4.7822 H         1 <0>         0.0752
     52 H24        -1.4301  -14.0763    2.6375 H         1 <0>         0.0698
     53 H25        -2.9462  -13.1434    2.8404 H         1 <0>         0.0689
     54 H26        -0.4799  -12.4224    1.1636 H         1 <0>         0.0695
     55 H27        -2.2064  -12.3960    0.6750 H         1 <0>         0.0702
     56 H28        -2.6746  -10.4585    2.0255 H         1 <0>         0.0752
     57 H29        -1.0253  -10.0894    1.4303 H         1 <0>         0.0639
     58 H30         0.7821  -10.6095    4.4932 H         1 <0>         0.1130
     59 H31         0.9381  -11.0285    2.7693 H         1 <0>         0.1151
@<TRIPOS>BOND
     1    1    2 1
     2    1   29 1
     3    1   30 1
     4    1   31 1
     5    2    3 1
     6    3    8 ar
     7    3    4 ar
     8    4    5 ar
     9    4   32 1
    10    5    6 ar
    11    5   33 1
    12    6    7 ar
    13    6   34 1
    14    7    8 ar
    15    7   35 1
    16    8    9 1
    17    9   14 1
    18    9   10 1
    19   10   11 1
    20   10   36 1
    21   10   37 1
    22   11   12 1
    23   11   38 1
    24   11   39 1
    25   12   13 1
    26   12   15 1
    27   13   14 1
    28   13   40 1
    29   13   41 1
    30   14   42 1
    31   14   43 1
    32   15   16 1
    33   15   44 1
    34   15   45 1
    35   16   17 1
    36   16   46 1
    37   16   47 1
    38   17   27 am
    39   17   18 am
    40   18   19 2
    41   18   20 1
    42   20   21 1
    43   20   48 1
    44   20   49 1
    45   21   25 1
    46   21   22 1
    47   21   26 1
    48   22   23 1
    49   22   50 1
    50   22   51 1
    51   23   24 1
    52   23   52 1
    53   23   53 1
    54   24   25 1
    55   24   54 1
    56   24   55 1
    57   25   56 1
    58   25   57 1
    59   26   27 1
    60   26   58 1
    61   26   59 1
    62   27   28 2
@<TRIPOS>MOLECULE
ZINC00157545
   25    25     0     0     0
SMALL
USER_CHARGES

@<TRIPOS>ATOM
      1 C1         -0.0187    1.5258    0.0104 C.3       1 <0>        -0.1971
      2 C2          0.0021   -0.0041    0.0020 C.3       1 <0>        -0.0065
      3 H1         -1.0205   -0.3814    0.0098 H         1 <0>         0.1528
      4 C3          0.7182   -0.4975   -1.2568 C.3       1 <0>         0.1383
      5 H2          0.8116   -1.5829   -1.2198 H         1 <0>         0.1315
      6 C4         -0.0771   -0.1029   -2.4745 C.ar      1 <0>        -0.1435
      7 C5          0.0932    1.1491   -3.0353 C.ar      1 <0>        -0.1086
      8 C6         -0.6364    1.5111   -4.1523 C.ar      1 <0>        -0.1112
      9 C7         -1.5358    0.6210   -4.7087 C.ar      1 <0>        -0.0981
     10 C8         -1.7054   -0.6313   -4.1484 C.ar      1 <0>        -0.1114
     11 C9         -0.9728   -0.9949   -3.0340 C.ar      1 <0>        -0.1027
     12 O1          2.0188    0.0904   -1.3262 O.3       1 <0>        -0.5464
     13 N1          0.7126   -0.4907    1.1921 N.4       1 <0>        -0.6323
     14 H3          1.0039    1.9031    0.0027 H         1 <0>         0.0840
     15 H4         -0.5459    1.8868   -0.8726 H         1 <0>         0.1136
     16 H5         -0.5289    1.8773    0.9072 H         1 <0>         0.0916
     17 H6          0.7959    1.8445   -2.6006 H         1 <0>         0.1226
     18 H7         -0.5039    2.4895   -4.5901 H         1 <0>         0.1324
     19 H8         -2.1063    0.9040   -5.5810 H         1 <0>         0.1326
     20 H9         -2.4084   -1.3266   -4.5829 H         1 <0>         0.1327
     21 H10        -1.1025   -1.9746   -2.5984 H         1 <0>         0.1273
     22 H11         2.0123    1.0567   -1.3619 H         1 <0>         0.3873
     23 H12         0.2403   -0.1653    2.0223 H         1 <0>         0.4373
     24 H13         0.7262   -1.4996    1.1866 H         1 <0>         0.4370
     25 H14         1.6592   -0.1415    1.1850 H         1 <0>         0.4369
@<TRIPOS>BOND
     1    1    2 1
     2    1   14 1
     3    1   15 1
     4    1   16 1
     5    2    3 1
     6    2    4 1
     7    2   13 1
     8    4    5 1
     9    4    6 1
    10    4   12 1
    11    6   11 ar
    12    6    7 ar
    13    7    8 ar
    14    7   17 1
    15    8    9 ar
    16    8   18 1
    17    9   10 ar
    18    9   19 1
    19   10   11 ar
    20   10   20 1
    21   11   21 1
    22   12   22 1
    23   13   23 1
    24   13   24 1
    25   13   25 1
@<TRIPOS>MOLECULE
ZINC00057624
   24    24     0     0     0
SMALL
USER_CHARGES

@<TRIPOS>ATOM
      1 C1         -0.0167    1.3779    0.0096 C.ar      1 <0>        -0.0981
      2 C2          1.1696    2.0886    0.0021 C.ar      1 <0>        -0.1236
      3 C3          2.3802    1.4154   -0.0130 C.ar      1 <0>         0.1055
      4 C4          2.3990    0.0236   -0.0206 C.ar      1 <0>         0.0900
      5 C5          1.2071   -0.6822   -0.0130 C.ar      1 <0>        -0.1137
      6 C6          0.0021   -0.0041    0.0020 C.ar      1 <0>        -0.1399
      7 C7         -1.2936   -0.7736    0.0102 C.3       1 <0>         0.1354
      8 H1         -1.1263   -1.7622    0.4376 H         1 <0>         0.1339
      9 C8         -1.8100   -0.9182   -1.4228 C.3       1 <0>        -0.0430
     10 N1         -3.0730   -1.6683   -1.4148 N.4       1 <0>        -0.6330
     11 O1         -2.2593   -0.0721    0.7960 O.3       1 <0>        -0.5475
     12 O2          3.5850   -0.6417   -0.0359 O.3       1 <0>        -0.4846
     13 O3          3.5476    2.1129   -0.0209 O.3       1 <0>        -0.4848
     14 H2         -0.9598    1.9038    0.0259 H         1 <0>         0.1309
     15 H3          1.1522    3.1684    0.0077 H         1 <0>         0.1437
     16 H4          1.2190   -1.7621   -0.0189 H         1 <0>         0.1389
     17 H5         -1.9772    0.0704   -1.8502 H         1 <0>         0.1398
     18 H6         -1.0734   -1.4533   -2.0221 H         1 <0>         0.1477
     19 H7         -2.9181   -2.5835   -1.0191 H         1 <0>         0.4371
     20 H8         -3.7548   -1.1730   -0.8600 H         1 <0>         0.4387
     21 H9         -2.4578    0.8175    0.4731 H         1 <0>         0.3897
     22 H10         3.9367   -0.8389    0.8430 H         1 <0>         0.3974
     23 H11         3.8938    2.3101    0.8602 H         1 <0>         0.3992
     24 H12        -3.4135   -1.7637   -2.3598 H         1 <0>         0.4402
@<TRIPOS>BOND
     1    1    6 ar
     2    1    2 ar
     3    1   14 1
     4    2    3 ar
     5    2   15 1
     6    3    4 ar
     7    3   13 1
     8    4    5 ar
     9    4   12 1
    10    5    6 ar
    11    5   16 1
    12    6    7 1
    13    7    8 1
    14    7    9 1
    15    7   11 1
    16    9   10 1
    17    9   17 1
    18    9   18 1
    19   10   19 1
    20   10   20 1
    21   10   24 1
    22   11   21 1
    23   12   22 1
    24   13   23 1
@<TRIPOS>MOLECULE
ZINC00896218
   45    47     0     0     0
SMALL
USER_CHARGES
1-[(3-hydroxy-4-methoxy-phenyl)methyl]-6-methoxy-1,2,3,4-tetrahydroisoquinolin-7-ol
@<TRIPOS>ATOM
      1 C1          2.2215    5.3022    0.0079 C.3       1 <0>         0.0203
      2 O1          2.3211    3.8766   -0.0002 O.3       1 <0>        -0.3013
      3 C2          1.1554    3.1762    0.0076 C.ar      1 <0>         0.1211
      4 C3         -0.0572    3.8465    0.0223 C.ar      1 <0>        -0.1861
      5 C4         -1.2413    3.1330    0.0298 C.ar      1 <0>        -0.0688
      6 C5         -1.2190    1.7507    0.0173 C.ar      1 <0>        -0.1524
      7 C6         -0.0126    1.0758    0.0080 C.ar      1 <0>        -0.1272
      8 C7          1.1779    1.7849    0.0004 C.ar      1 <0>         0.0868
      9 O2          2.3655    1.1226   -0.0136 O.3       1 <0>        -0.4855
     10 C8         -2.5128    0.9779    0.0198 C.3       1 <0>        -0.0922
     11 C9         -2.9435    0.7090    1.4630 C.3       1 <0>         0.0966
     12 H1         -2.9983    1.6537    2.0040 H         1 <0>         0.1463
     13 C10        -4.3013    0.0564    1.4633 C.ar      1 <0>        -0.1517
     14 C11        -5.2657    0.5429    0.5919 C.ar      1 <0>        -0.0839
     15 C12        -6.5279   -0.0217    0.5585 C.ar      1 <0>         0.0935
     16 C13        -6.8311   -1.0842    1.4051 C.ar      1 <0>         0.1337
     17 C14        -5.8674   -1.5653    2.2708 C.ar      1 <0>        -0.1884
     18 C15        -4.6020   -0.9972    2.2992 C.ar      1 <0>        -0.0529
     19 C16        -3.5842   -1.5621    3.2570 C.3       1 <0>        -0.1073
     20 C17        -2.4327   -0.5729    3.4388 C.3       1 <0>         0.0007
     21 O3         -8.0698   -1.6450    1.3812 O.3       1 <0>        -0.2971
     22 C18        -8.3074   -2.7315    2.2785 C.3       1 <0>         0.0196
     23 O4         -7.4685    0.4589   -0.2981 O.3       1 <0>        -0.4794
     24 H2          1.6750    5.6332   -0.8752 H         1 <0>         0.0617
     25 H3          1.6923    5.6243    0.9047 H         1 <0>         0.0610
     26 H4          3.2213    5.7363    0.0004 H         1 <0>         0.1105
     27 H5         -0.0774    4.9263    0.0283 H         1 <0>         0.1423
     28 H6         -2.1858    3.6566    0.0409 H         1 <0>         0.1361
     29 H7          0.0021   -0.0041    0.0020 H         1 <0>         0.1348
     30 H8          2.7009    0.9351   -0.9010 H         1 <0>         0.3979
     31 H9         -3.2836    1.5582   -0.4873 H         1 <0>         0.1222
     32 H10        -2.3709    0.0301   -0.4996 H         1 <0>         0.1006
     33 H11        -5.0293    1.3677   -0.0639 H         1 <0>         0.1487
     34 H12        -6.1006   -2.3897    2.9284 H         1 <0>         0.1445
     35 H13        -3.1960   -2.5003    2.8605 H         1 <0>         0.1067
     36 H14        -4.0580   -1.7469    4.2210 H         1 <0>         0.1242
     37 H15        -1.6213   -1.0520    3.9866 H         1 <0>         0.1414
     38 H16        -2.7804    0.3011    3.9895 H         1 <0>         0.1346
     39 H17        -7.6141   -3.5432    2.0580 H         1 <0>         0.0612
     40 H18        -8.1581   -2.3948    3.3044 H         1 <0>         0.0618
     41 H19        -9.3313   -3.0853    2.1576 H         1 <0>         0.1122
     42 H20        -7.4692    0.0278   -1.1637 H         1 <0>         0.3981
     43 N1         -1.9514   -0.1631    2.1065 N.4       1 <0>        -0.5135
     44 H21        -1.0649    0.3452    2.2062 H         1 <0>         0.4375
     45 H22        -1.8042   -0.9974    1.5262 H         1 <0>         0.4310
@<TRIPOS>BOND
     1    1    2 1
     2    1   24 1
     3    1   25 1
     4    1   26 1
     5    2    3 1
     6    3    8 ar
     7    3    4 ar
     8    4    5 ar
     9    4   27 1
    10    5    6 ar
    11    5   28 1
    12    6    7 ar
    13    6   10 1
    14    7    8 ar
    15    7   29 1
    16    8    9 1
    17    9   30 1
    18   10   11 1
    19   10   31 1
    20   10   32 1
    21   11   12 1
    22   11   13 1
    23   11   43 1
    24   13   18 ar
    25   13   14 ar
    26   14   15 ar
    27   14   33 1
    28   15   16 ar
    29   15   23 1
    30   16   17 ar
    31   16   21 1
    32   17   18 ar
    33   17   34 1
    34   18   19 1
    35   19   20 1
    36   19   35 1
    37   19   36 1
    38   20   37 1
    39   20   38 1
    40   20   43 1
    41   21   22 1
    42   22   39 1
    43   22   40 1
    44   22   41 1
    45   23   42 1
    46   43   44 1
    47   43   45 1
@<TRIPOS>MOLECULE
ZINC00896220
   45    47     0     0     0
SMALL
USER_CHARGES
1-[(3-hydroxy-4-methoxy-phenyl)methyl]-6-methoxy-1,2,3,4-tetrahydroisoquinolin-7-ol
@<TRIPOS>ATOM
      1 C1          1.6300   -5.2215    1.9842 C.3       1 <0>         0.0210
      2 O1          2.6828   -4.4648    1.3833 O.3       1 <0>        -0.3005
      3 C2          2.5352   -3.1132    1.3586 C.ar      1 <0>         0.1202
      4 C3          1.4023   -2.5283    1.9012 C.ar      1 <0>        -0.1882
      5 C4          1.2567   -1.1537    1.8808 C.ar      1 <0>        -0.1048
      6 C5          2.2344   -0.3604    1.3096 C.ar      1 <0>        -0.1507
      7 C6          3.3671   -0.9375    0.7665 C.ar      1 <0>        -0.0925
      8 C7          3.5219   -2.3143    0.7888 C.ar      1 <0>         0.0900
      9 O2          4.6358   -2.8836    0.2553 O.3       1 <0>        -0.4838
     10 C8          2.0677    1.1371    1.2844 C.3       1 <0>        -0.0933
     11 C9          1.3499    1.5489   -0.0025 C.3       1 <0>         0.0968
     12 H1          1.8909    1.1485   -0.8599 H         1 <0>         0.1468
     13 C10         1.3169    3.0522   -0.0933 C.ar      1 <0>        -0.1519
     14 C11         2.4607    3.7581    0.2524 C.ar      1 <0>        -0.0838
     15 C12         2.4794    5.1393    0.1817 C.ar      1 <0>         0.0936
     16 C13         1.3430    5.8239   -0.2398 C.ar      1 <0>         0.1339
     17 C14         0.2049    5.1163   -0.5823 C.ar      1 <0>        -0.1884
     18 C15         0.1909    3.7311   -0.5077 C.ar      1 <0>        -0.0532
     19 C16        -1.0765    3.0060   -0.8823 C.3       1 <0>        -0.1074
     20 C17        -0.7775    1.5282   -1.1348 C.3       1 <0>         0.0009
     21 O3          1.3516    7.1818   -0.3140 O.3       1 <0>        -0.2970
     22 C18         0.1488    7.8150   -0.7549 C.3       1 <0>         0.0197
     23 O4          3.6029    5.8254    0.5227 O.3       1 <0>        -0.4798
     24 H2          1.5147   -4.9204    3.0254 H         1 <0>         0.0609
     25 H3          0.6989   -5.0383    1.4478 H         1 <0>         0.0596
     26 H4          1.8732   -6.2830    1.9377 H         1 <0>         0.1103
     27 H5          0.6350   -3.1461    2.3441 H         1 <0>         0.1414
     28 H6          0.3754   -0.6988    2.3083 H         1 <0>         0.1276
     29 H7          4.1312   -0.3153    0.3245 H         1 <0>         0.1431
     30 H8          5.3627   -2.9900    0.8841 H         1 <0>         0.3981
     31 H9          3.0479    1.6125    1.3218 H         1 <0>         0.1219
     32 H10         1.4783    1.4516    2.1457 H         1 <0>         0.1015
     33 H11         3.3417    3.2256    0.5792 H         1 <0>         0.1488
     34 H12        -0.6779    5.6452   -0.9098 H         1 <0>         0.1445
     35 H13        -1.7982    3.0955   -0.0703 H         1 <0>         0.1066
     36 H14        -1.4939    3.4503   -1.7860 H         1 <0>         0.1241
     37 H15        -0.1909    1.4241   -2.0476 H         1 <0>         0.1348
     38 H16        -1.7127    0.9767   -1.2322 H         1 <0>         0.1410
     39 H17        -0.0974    7.4684   -1.7585 H         1 <0>         0.0614
     40 H18        -0.6645    7.5641   -0.0740 H         1 <0>         0.0615
     41 H19         0.2910    8.8956   -0.7683 H         1 <0>         0.1121
     42 H20         4.2101    5.9772   -0.2144 H         1 <0>         0.3987
     43 N1         -0.0135    1.0014    0.0113 N.4       1 <0>        -0.5133
     44 H21        -0.4802    1.2720    0.8849 H         1 <0>         0.4310
     45 H22         0.0302   -0.0226   -0.0504 H         1 <0>         0.4366
@<TRIPOS>BOND
     1    1    2 1
     2    1   24 1
     3    1   25 1
     4    1   26 1
     5    2    3 1
     6    3    8 ar
     7    3    4 ar
     8    4    5 ar
     9    4   27 1
    10    5    6 ar
    11    5   28 1
    12    6    7 ar
    13    6   10 1
    14    7    8 ar
    15    7   29 1
    16    8    9 1
    17    9   30 1
    18   10   11 1
    19   10   31 1
    20   10   32 1
    21   11   12 1
    22   11   13 1
    23   11   43 1
    24   13   18 ar
    25   13   14 ar
    26   14   15 ar
    27   14   33 1
    28   15   16 ar
    29   15   23 1
    30   16   17 ar
    31   16   21 1
    32   17   18 ar
    33   17   34 1
    34   18   19 1
    35   19   20 1
    36   19   35 1
    37   19   36 1
    38   20   37 1
    39   20   38 1
    40   20   43 1
    41   21   22 1
    42   22   39 1
    43   22   40 1
    44   22   41 1
    45   23   42 1
    46   43   44 1
    47   43   45 1
@<TRIPOS>MOLECULE
ZINC00601304
   50    53     0     0     0
SMALL
USER_CHARGES

@<TRIPOS>ATOM
      1 C1         -0.0848    1.4532   -0.3643 C.3       1 <0>         0.0157
      2 O1         -0.0673    0.0248   -0.4029 O.3       1 <0>        -0.2899
      3 C2         -1.2697   -0.6091   -0.3507 C.ar      1 <0>         0.1141
      4 C3         -2.4181    0.1263   -0.2712 C.ar      1 <0>        -0.1159
      5 C4         -3.6565   -0.5247   -0.2178 C.ar      1 <0>        -0.1900
      6 C5         -3.7118   -1.9398   -0.2465 C.ar      1 <0>         0.2208
      7 C6         -2.5225   -2.6738   -0.3282 C.ar      1 <0>        -0.2298
      8 C7         -1.3169   -2.0092   -0.3848 C.ar      1 <0>         0.2171
      9 O2         -0.1616   -2.7187   -0.4697 O.3       1 <0>        -0.2781
     10 C8         -0.2756   -4.1428   -0.5007 C.3       1 <0>         0.0126
     11 N1         -4.9113   -2.5410   -0.1946 N.ar      1 <0>        -0.5852
     12 C9         -6.0151   -1.8231   -0.1184 C.ar      1 <0>         0.6808
     13 N2         -6.0075   -0.4933   -0.0894 N.ar      1 <0>        -0.5933
     14 C10        -4.8747    0.1928   -0.1354 C.ar      1 <0>         0.5614
     15 N3         -4.8820    1.5717   -0.1036 N.pl3     1 <0>        -0.7723
     16 N4         -7.2317   -2.4807   -0.0668 N.pl3     1 <0>        -0.5638
     17 C11        -7.2984   -3.9422   -0.2055 C.3       1 <0>         0.0875
     18 C12        -8.0309   -4.5172    1.0132 C.3       1 <0>         0.0811
     19 N5         -9.2792   -3.7665    1.2081 N.am      1 <0>        -0.6161
     20 C13        -9.2125   -2.3049    1.3468 C.3       1 <0>         0.0965
     21 C14        -8.4794   -1.7305    0.1337 C.3       1 <0>         0.1036
     22 C15       -10.4640   -4.4068    1.2583 C.2       1 <0>         0.6126
     23 O3        -11.4993   -3.7686    1.3005 O.2       1 <0>        -0.5007
     24 C16       -10.5057   -5.8728    1.2622 C.2       1 <0>        -0.0999
     25 C17       -11.6286   -6.6439    1.1675 C.2       1 <0>        -0.0980
     26 C18       -11.2046   -7.9813    1.2107 C.2       1 <0>        -0.2186
     27 C19        -9.8585   -7.9681    1.3284 C.2       1 <0>        -0.0023
     28 O4         -9.4406   -6.6959    1.3540 O.3       1 <0>        -0.1695
     29 H1          0.9367    1.8304   -0.4129 H         1 <0>         0.1175
     30 H2         -0.6531    1.8327   -1.2135 H         1 <0>         0.0636
     31 H3         -0.5513    1.7859    0.5629 H         1 <0>         0.0637
     32 H4         -2.3709    1.2050   -0.2492 H         1 <0>         0.1589
     33 H5         -2.5500   -3.7532   -0.3508 H         1 <0>         0.1674
     34 H6         -0.7651   -4.4880    0.4100 H         1 <0>         0.0684
     35 H7         -0.8669   -4.4412   -1.3664 H         1 <0>         0.0684
     36 H8          0.7180   -4.5855   -0.5693 H         1 <0>         0.1203
     37 H9         -4.0457    2.0621   -0.1379 H         1 <0>         0.4288
     38 H10        -5.7233    2.0512   -0.0471 H         1 <0>         0.4313
     39 H11        -7.8428   -4.1990   -1.1142 H         1 <0>         0.1106
     40 H12        -6.2893   -4.3517   -0.2526 H         1 <0>         0.0927
     41 H13        -8.2596   -5.5687    0.8400 H         1 <0>         0.1354
     42 H14        -7.4023   -4.4179    1.8982 H         1 <0>         0.0848
     43 H15       -10.2215   -1.8954    1.3938 H         1 <0>         0.1238
     44 H16        -8.6680   -2.0481    2.2555 H         1 <0>         0.0830
     45 H17        -8.2501   -0.6797    0.3105 H         1 <0>         0.1273
     46 H18        -9.1099   -1.8262   -0.7503 H         1 <0>         0.0981
     47 H19       -12.6459   -6.2927    1.0769 H         1 <0>         0.1643
     48 H20       -11.8356   -8.8563    1.1598 H         1 <0>         0.1626
     49 H21        -9.2239   -8.8399    1.3885 H         1 <0>         0.2151
     50 H22        -4.9664   -3.5093   -0.2136 H         1 <0>         0.4337
@<TRIPOS>BOND
     1    1    2 1
     2    1   29 1
     3    1   30 1
     4    1   31 1
     5    2    3 1
     6    3    8 ar
     7    3    4 ar
     8    4    5 ar
     9    4   32 1
    10    5   14 ar
    11    5    6 ar
    12    6    7 ar
    13    6   11 ar
    14    7    8 ar
    15    7   33 1
    16    8    9 1
    17    9   10 1
    18   10   34 1
    19   10   35 1
    20   10   36 1
    21   11   12 ar
    22   11   50 1
    23   12   13 ar
    24   12   16 1
    25   13   14 ar
    26   14   15 1
    27   15   37 1
    28   15   38 1
    29   16   21 1
    30   16   17 1
    31   17   18 1
    32   17   39 1
    33   17   40 1
    34   18   19 1
    35   18   41 1
    36   18   42 1
    37   19   20 1
    38   19   22 am
    39   20   21 1
    40   20   43 1
    41   20   44 1
    42   21   45 1
    43   21   46 1
    44   22   23 2
    45   22   24 1
    46   24   28 1
    47   24   25 2
    48   25   26 1
    49   25   47 1
    50   26   27 2
    51   26   48 1
    52   27   28 1
    53   27   49 1
@<TRIPOS>MOLECULE
ZINC00057530
   51    53     0     0     0
SMALL
USER_CHARGES

@<TRIPOS>ATOM
      1 C1         -0.0173    1.4248    0.0099 C.3       1 <0>         0.0222
      2 O1          0.0021   -0.0041    0.0020 O.3       1 <0>        -0.2995
      3 C2         -1.2011   -0.6379    0.0101 C.ar      1 <0>         0.1179
      4 C3         -2.3743    0.0994    0.0195 C.ar      1 <0>        -0.1669
      5 C4         -3.5965   -0.5465    0.0272 C.ar      1 <0>        -0.1337
      6 C5         -3.6519   -1.9279    0.0261 C.ar      1 <0>        -0.1264
      7 C6         -2.4852   -2.6694    0.0172 C.ar      1 <0>        -0.1629
      8 C7         -1.2569   -2.0283    0.0032 C.ar      1 <0>         0.1148
      9 O2         -0.1083   -2.7563   -0.0116 O.3       1 <0>        -0.2988
     10 C8         -0.2420   -4.1790   -0.0180 C.3       1 <0>         0.0230
     11 C9         -4.9869   -2.6268    0.0350 C.3       1 <0>        -0.0932
     12 C10        -5.4493   -2.8618   -1.4044 C.3       1 <0>         0.0933
     13 H1         -4.6753   -3.4054   -1.9462 H         1 <0>         0.1461
     14 C11        -6.7144   -3.6791   -1.3925 C.ar      1 <0>        -0.1270
     15 C12        -6.8113   -4.7344   -0.4968 C.ar      1 <0>        -0.1550
     16 C13        -7.9537   -5.5131   -0.4540 C.ar      1 <0>         0.1184
     17 C14        -9.0115   -5.2352   -1.3152 C.ar      1 <0>         0.1331
     18 C15        -8.9110   -4.1810   -2.2056 C.ar      1 <0>        -0.1671
     19 C16        -7.7636   -3.4032   -2.2436 C.ar      1 <0>        -0.0820
     20 C17        -7.6999   -2.2599   -3.2244 C.3       1 <0>        -0.1029
     21 C18        -6.2510   -1.7999   -3.3901 C.3       1 <0>        -0.0028
     22 N1         -5.6774   -1.5688   -2.0557 N.4       1 <0>        -0.5039
     23 O3        -10.1379   -5.9963   -1.2817 O.3       1 <0>        -0.2959
     24 C19       -11.1815   -5.6512   -2.1949 C.3       1 <0>         0.0209
     25 O4         -8.0433   -6.5459    0.4262 O.3       1 <0>        -0.2957
     26 C20        -6.9189   -6.7710    1.2788 C.3       1 <0>         0.0210
     27 H2          1.0053    1.8021    0.0021 H         1 <0>         0.1093
     28 H3         -0.5445    1.7859   -0.8732 H         1 <0>         0.0584
     29 H4         -0.5275    1.7763    0.9067 H         1 <0>         0.0601
     30 H5         -2.3338    1.1787    0.0211 H         1 <0>         0.1441
     31 H6         -4.5102    0.0294    0.0345 H         1 <0>         0.1266
     32 H7         -2.5312   -3.7485    0.0167 H         1 <0>         0.1412
     33 H8          0.7471   -4.6369   -0.0298 H         1 <0>         0.1091
     34 H9         -0.7791   -4.4975    0.8754 H         1 <0>         0.0588
     35 H10        -0.7960   -4.4879   -0.9044 H         1 <0>         0.0565
     36 H11        -4.8923   -3.5844    0.5471 H         1 <0>         0.1179
     37 H12        -5.7178   -2.0075    0.5549 H         1 <0>         0.1023
     38 H13        -5.9898   -4.9493    0.1705 H         1 <0>         0.1465
     39 H14        -9.7299   -3.9635   -2.8752 H         1 <0>         0.1474
     40 H15        -8.0886   -2.5875   -4.1886 H         1 <0>         0.1230
     41 H16        -8.3032   -1.4310   -2.8543 H         1 <0>         0.1046
     42 H17        -5.6789   -2.5711   -3.9059 H         1 <0>         0.1348
     43 H18        -6.2244   -0.8745   -3.9654 H         1 <0>         0.1412
     44 H19        -6.3186   -1.0204   -1.5024 H         1 <0>         0.4277
     45 H20       -12.0198   -6.3355   -2.0641 H         1 <0>         0.1112
     46 H21       -11.5116   -4.6308   -2.0006 H         1 <0>         0.0605
     47 H22       -10.8090   -5.7242   -3.2167 H         1 <0>         0.0607
     48 H23        -6.0382   -6.9796    0.6713 H         1 <0>         0.0588
     49 H24        -6.7397   -5.8836    1.8858 H         1 <0>         0.0588
     50 H25        -7.1210   -7.6217    1.9297 H         1 <0>         0.1110
     51 H26        -4.8011   -1.0769   -2.1461 H         1 <0>         0.4326
@<TRIPOS>BOND
     1    1    2 1
     2    1   27 1
     3    1   28 1
     4    1   29 1
     5    2    3 1
     6    3    8 ar
     7    3    4 ar
     8    4    5 ar
     9    4   30 1
    10    5    6 ar
    11    5   31 1
    12    6    7 ar
    13    6   11 1
    14    7    8 ar
    15    7   32 1
    16    8    9 1
    17    9   10 1
    18   10   33 1
    19   10   34 1
    20   10   35 1
    21   11   12 1
    22   11   36 1
    23   11   37 1
    24   12   13 1
    25   12   22 1
    26   12   14 1
    27   14   19 ar
    28   14   15 ar
    29   15   16 ar
    30   15   38 1
    31   16   17 ar
    32   16   25 1
    33   17   18 ar
    34   17   23 1
    35   18   19 ar
    36   18   39 1
    37   19   20 1
    38   20   21 1
    39   20   40 1
    40   20   41 1
    41   21   22 1
    42   21   42 1
    43   21   43 1
    44   22   44 1
    45   22   51 1
    46   23   24 1
    47   24   45 1
    48   24   46 1
    49   24   47 1
    50   25   26 1
    51   26   48 1
    52   26   49 1
    53   26   50 1
@<TRIPOS>MOLECULE
ZINC00057530
   50    52     0     0     0
SMALL
USER_CHARGES

@<TRIPOS>ATOM
      1 C1         -0.0173    1.4248    0.0099 C.3       1 <0>         0.0268
      2 O1          0.0021   -0.0041    0.0020 O.3       1 <0>        -0.3088
      3 C2          0.6262   -0.6188    1.0422 C.ar      1 <0>         0.0952
      4 C3          1.2021    0.1367    2.0510 C.ar      1 <0>        -0.1710
      5 C4          1.8358   -0.4897    3.1079 C.ar      1 <0>        -0.0902
      6 C5          1.8971   -1.8699    3.1612 C.ar      1 <0>        -0.0679
      7 C6          1.3251   -2.6295    2.1578 C.ar      1 <0>        -0.1704
      8 C7          0.6830   -2.0080    1.0988 C.ar      1 <0>         0.0986
      9 O2          0.1145   -2.7540    0.1140 O.3       1 <0>        -0.3078
     10 C8          0.2115   -4.1743    0.2380 C.3       1 <0>         0.0270
     11 C9          2.5896   -2.5476    4.3154 C.3       1 <0>        -0.0706
     12 C10         1.5803   -2.8041    5.4363 C.3       1 <0>         0.1377
     13 H1          0.7379   -3.3704    5.0391 H         1 <0>         0.0939
     14 C11         2.2433   -3.6002    6.5299 C.ar      1 <0>        -0.1108
     15 C12         3.0766   -4.6493    6.1678 C.ar      1 <0>        -0.1669
     16 C13         3.7040   -5.4115    7.1365 C.ar      1 <0>         0.1002
     17 C14         3.4969   -5.1232    8.4825 C.ar      1 <0>         0.1038
     18 C15         2.6671   -4.0753    8.8386 C.ar      1 <0>        -0.1726
     19 C16         2.0419   -3.3125    7.8630 C.ar      1 <0>        -0.0731
     20 C17         1.1561   -2.1743    8.3013 C.3       1 <0>        -0.1165
     21 C18         0.2576   -1.7363    7.1446 C.3       1 <0>         0.0562
     22 N1          1.0983   -1.5207    5.9564 N.3       1 <0>        -0.6659
     23 O3          4.1069   -5.8684    9.4427 O.3       1 <0>        -0.3060
     24 C19         3.8469   -5.5135   10.8023 C.3       1 <0>         0.0260
     25 O4          4.5192   -6.4384    6.7756 O.3       1 <0>        -0.3059
     26 C20         4.6835   -6.6752    5.3760 C.3       1 <0>         0.0253
     27 H2          1.0053    1.8021    0.0021 H         1 <0>         0.0541
     28 H3         -0.5445    1.7859   -0.8732 H         1 <0>         0.0996
     29 H4         -0.5275    1.7763    0.9067 H         1 <0>         0.0547
     30 H5          1.1562    1.2150    2.0113 H         1 <0>         0.1332
     31 H6          2.2842    0.1003    3.8935 H         1 <0>         0.1245
     32 H7          1.3747   -3.7075    2.2017 H         1 <0>         0.1308
     33 H8         -0.2815   -4.6476   -0.6111 H         1 <0>         0.0998
     34 H9          1.2614   -4.4664    0.2576 H         1 <0>         0.0534
     35 H10        -0.2714   -4.4922    1.1620 H         1 <0>         0.0538
     36 H11         3.0097   -3.4961    3.9808 H         1 <0>         0.0779
     37 H12         3.3894   -1.9067    4.6863 H         1 <0>         0.0766
     38 H13         3.2360   -4.8721    5.1232 H         1 <0>         0.1376
     39 H14         2.5047   -3.8499    9.8823 H         1 <0>         0.1346
     40 H15         0.5369   -2.4990    9.1376 H         1 <0>         0.0798
     41 H16         1.7755   -1.3345    8.6164 H         1 <0>         0.0778
     42 H17        -0.4775   -2.5139    6.9372 H         1 <0>         0.0761
     43 H18        -0.2508   -0.8084    7.4069 H         1 <0>         0.0845
     44 H19         4.3935   -6.1853   11.4641 H         1 <0>         0.1020
     45 H20         4.1704   -4.4875   10.9782 H         1 <0>         0.0547
     46 H21         2.7785   -5.5968   11.0016 H         1 <0>         0.0548
     47 H22         5.3565   -7.5196    5.2269 H         1 <0>         0.1019
     48 H23         3.7149   -6.8993    4.9292 H         1 <0>         0.0547
     49 H24         5.1045   -5.7874    4.9043 H         1 <0>         0.0551
     50 H25         1.8684   -0.9030    6.1651 H         1 <0>         0.3416
@<TRIPOS>BOND
     1    1    2 1
     2    1   27 1
     3    1   28 1
     4    1   29 1
     5    2    3 1
     6    3    8 ar
     7    3    4 ar
     8    4    5 ar
     9    4   30 1
    10    5    6 ar
    11    5   31 1
    12    6    7 ar
    13    6   11 1
    14    7    8 ar
    15    7   32 1
    16    8    9 1
    17    9   10 1
    18   10   33 1
    19   10   34 1
    20   10   35 1
    21   11   12 1
    22   11   36 1
    23   11   37 1
    24   12   13 1
    25   12   22 1
    26   12   14 1
    27   14   19 ar
    28   14   15 ar
    29   15   16 ar
    30   15   38 1
    31   16   17 ar
    32   16   25 1
    33   17   18 ar
    34   17   23 1
    35   18   19 ar
    36   18   39 1
    37   19   20 1
    38   20   21 1
    39   20   40 1
    40   20   41 1
    41   21   22 1
    42   21   42 1
    43   21   43 1
    44   22   50 1
    45   23   24 1
    46   24   44 1
    47   24   45 1
    48   24   46 1
    49   25   26 1
    50   26   47 1
    51   26   48 1
    52   26   49 1
@<TRIPOS>MOLECULE
ZINC00057531
   51    53     0     0     0
SMALL
USER_CHARGES

@<TRIPOS>ATOM
      1 C1         -0.0173    1.4248    0.0099 C.3       1 <0>         0.0216
      2 O1          0.0021   -0.0041    0.0020 O.3       1 <0>        -0.3001
      3 C2         -1.2011   -0.6379    0.0101 C.ar      1 <0>         0.1195
      4 C3         -2.3743    0.0994    0.0195 C.ar      1 <0>        -0.1659
      5 C4         -3.5965   -0.5465    0.0272 C.ar      1 <0>        -0.0954
      6 C5         -3.6519   -1.9279    0.0261 C.ar      1 <0>        -0.1297
      7 C6         -2.4852   -2.6694    0.0172 C.ar      1 <0>        -0.1957
      8 C7         -1.2569   -2.0283    0.0032 C.ar      1 <0>         0.1123
      9 O2         -0.1083   -2.7563   -0.0116 O.3       1 <0>        -0.2977
     10 C8         -0.2420   -4.1790   -0.0180 C.3       1 <0>         0.0239
     11 C9         -4.9869   -2.6268    0.0350 C.3       1 <0>        -0.0926
     12 C10        -5.4493   -2.8618   -1.4044 C.3       1 <0>         0.0931
     13 H1         -5.4572   -1.9118   -1.9388 H         1 <0>         0.1478
     14 C11        -6.8417   -3.4358   -1.3913 C.ar      1 <0>        -0.1270
     15 C12        -7.7606   -2.9211   -0.4879 C.ar      1 <0>        -0.1547
     16 C13        -9.0512   -3.4165   -0.4437 C.ar      1 <0>         0.1186
     17 C14        -9.4290   -4.4375   -1.3112 C.ar      1 <0>         0.1330
     18 C15        -8.5091   -4.9487   -2.2094 C.ar      1 <0>        -0.1671
     19 C16        -7.2163   -4.4486   -2.2488 C.ar      1 <0>        -0.0826
     20 C17        -6.2444   -5.0401   -3.2381 C.3       1 <0>        -0.1027
     21 C18        -5.0415   -4.1103   -3.4015 C.3       1 <0>        -0.0031
     22 N1         -4.5194   -3.7809   -2.0666 N.4       1 <0>        -0.5048
     23 O3        -10.6963   -4.9298   -1.2764 O.3       1 <0>        -0.2959
     24 C19       -11.0110   -5.9769   -2.1965 C.3       1 <0>         0.0209
     25 O4         -9.9477   -2.9079    0.4435 O.3       1 <0>        -0.2958
     26 C20        -9.4888   -1.8616    1.3018 C.3       1 <0>         0.0208
     27 H2          1.0053    1.8021    0.0021 H         1 <0>         0.1095
     28 H3         -0.5445    1.7859   -0.8732 H         1 <0>         0.0597
     29 H4         -0.5275    1.7763    0.9067 H         1 <0>         0.0608
     30 H5         -2.3338    1.1787    0.0211 H         1 <0>         0.1449
     31 H6         -4.5102    0.0294    0.0345 H         1 <0>         0.1342
     32 H7         -2.5312   -3.7485    0.0167 H         1 <0>         0.1333
     33 H8          0.7471   -4.6369   -0.0298 H         1 <0>         0.1097
     34 H9         -0.7791   -4.4975    0.8754 H         1 <0>         0.0591
     35 H10        -0.7960   -4.4879   -0.9044 H         1 <0>         0.0497
     36 H11        -4.8923   -3.5844    0.5471 H         1 <0>         0.0998
     37 H12        -5.7178   -2.0075    0.5549 H         1 <0>         0.1202
     38 H13        -7.4664   -2.1287    0.1844 H         1 <0>         0.1472
     39 H14        -8.7995   -5.7409   -2.8835 H         1 <0>         0.1473
     40 H15        -5.9055   -6.0110   -2.8769 H         1 <0>         0.1041
     41 H16        -6.7391   -5.1654   -4.2013 H         1 <0>         0.1233
     42 H17        -4.2682   -4.6112   -3.9838 H         1 <0>         0.1409
     43 H18        -5.3514   -3.1967   -3.9089 H         1 <0>         0.1357
     44 H19        -3.6162   -3.3404   -2.1572 H         1 <0>         0.4318
     45 H20       -12.0504   -6.2769   -2.0638 H         1 <0>         0.1112
     46 H21       -10.8628   -5.6213   -3.2162 H         1 <0>         0.0607
     47 H22       -10.3597   -6.8311   -2.0114 H         1 <0>         0.0603
     48 H23        -8.6552   -2.2243    1.9031 H         1 <0>         0.0589
     49 H24        -9.1607   -1.0148    0.6989 H         1 <0>         0.0593
     50 H25       -10.3006   -1.5476    1.9579 H         1 <0>         0.1110
     51 H26        -4.4319   -4.6246   -1.5201 H         1 <0>         0.4265
@<TRIPOS>BOND
     1    1    2 1
     2    1   27 1
     3    1   28 1
     4    1   29 1
     5    2    3 1
     6    3    8 ar
     7    3    4 ar
     8    4    5 ar
     9    4   30 1
    10    5    6 ar
    11    5   31 1
    12    6    7 ar
    13    6   11 1
    14    7    8 ar
    15    7   32 1
    16    8    9 1
    17    9   10 1
    18   10   33 1
    19   10   34 1
    20   10   35 1
    21   11   12 1
    22   11   36 1
    23   11   37 1
    24   12   13 1
    25   12   22 1
    26   12   14 1
    27   14   19 ar
    28   14   15 ar
    29   15   16 ar
    30   15   38 1
    31   16   17 ar
    32   16   25 1
    33   17   18 ar
    34   17   23 1
    35   18   19 ar
    36   18   39 1
    37   19   20 1
    38   20   21 1
    39   20   40 1
    40   20   41 1
    41   21   22 1
    42   21   42 1
    43   21   43 1
    44   22   44 1
    45   22   51 1
    46   23   24 1
    47   24   45 1
    48   24   46 1
    49   24   47 1
    50   25   26 1
    51   26   48 1
    52   26   49 1
    53   26   50 1
@<TRIPOS>MOLECULE
ZINC00057531
   50    52     0     0     0
SMALL
USER_CHARGES

@<TRIPOS>ATOM
      1 C1         -0.0173    1.4248    0.0099 C.3       1 <0>         0.0261
      2 O1          0.0021   -0.0041    0.0020 O.3       1 <0>        -0.3070
      3 C2          0.6262   -0.6188    1.0422 C.ar      1 <0>         0.0961
      4 C3          1.2021    0.1367    2.0510 C.ar      1 <0>        -0.1708
      5 C4          1.8358   -0.4897    3.1079 C.ar      1 <0>        -0.1148
      6 C5          1.8971   -1.8699    3.1612 C.ar      1 <0>        -0.0836
      7 C6          1.3251   -2.6295    2.1578 C.ar      1 <0>        -0.1636
      8 C7          0.6830   -2.0080    1.0988 C.ar      1 <0>         0.1013
      9 O2          0.1145   -2.7540    0.1140 O.3       1 <0>        -0.3067
     10 C8          0.2115   -4.1743    0.2380 C.3       1 <0>         0.0257
     11 C9          2.5896   -2.5476    4.3154 C.3       1 <0>        -0.0683
     12 C10         1.5803   -2.8041    5.4363 C.3       1 <0>         0.1387
     13 H1          1.0975   -1.8651    5.7073 H         1 <0>         0.0526
     14 C11         2.3013   -3.3573    6.6377 C.ar      1 <0>        -0.0718
     15 C12         3.5197   -2.7945    6.9912 C.ar      1 <0>        -0.1694
     16 C13         4.2165   -3.2659    8.0890 C.ar      1 <0>         0.0990
     17 C14         3.6908   -4.3113    8.8429 C.ar      1 <0>         0.1035
     18 C15         2.4771   -4.8706    8.4856 C.ar      1 <0>        -0.1752
     19 C16         1.7832   -4.3954    7.3823 C.ar      1 <0>        -0.0614
     20 C17         0.4703   -5.0452    7.0269 C.3       1 <0>        -0.0736
     21 C18        -0.3177   -4.1446    6.0756 C.3       1 <0>         0.0541
     22 N1          0.5653   -3.7520    4.9660 N.3       1 <0>        -0.6782
     23 O3          4.3669   -4.7802    9.9258 O.3       1 <0>        -0.3064
     24 C19         3.7654   -5.8547   10.6508 C.3       1 <0>         0.0260
     25 O4          5.4102   -2.7108    8.4301 O.3       1 <0>        -0.3060
     26 C20         5.8869   -1.6423    7.6095 C.3       1 <0>         0.0255
     27 H2          1.0053    1.8021    0.0021 H         1 <0>         0.0548
     28 H3         -0.5445    1.7859   -0.8732 H         1 <0>         0.1010
     29 H4         -0.5275    1.7763    0.9067 H         1 <0>         0.0544
     30 H5          1.1562    1.2150    2.0113 H         1 <0>         0.1346
     31 H6          2.2842    0.1003    3.8935 H         1 <0>         0.1250
     32 H7          1.3747   -3.7075    2.2017 H         1 <0>         0.1416
     33 H8         -0.2815   -4.6476   -0.6111 H         1 <0>         0.1003
     34 H9          1.2614   -4.4664    0.2576 H         1 <0>         0.0553
     35 H10        -0.2714   -4.4922    1.1620 H         1 <0>         0.0570
     36 H11         3.0097   -3.4961    3.9808 H         1 <0>         0.0854
     37 H12         3.3894   -1.9067    4.6863 H         1 <0>         0.0789
     38 H13         3.9260   -1.9831    6.4055 H         1 <0>         0.1371
     39 H14         2.0671   -5.6815    9.0692 H         1 <0>         0.1350
     40 H15         0.6601   -6.0037    6.5438 H         1 <0>         0.0842
     41 H16        -0.1102   -5.2082    7.9350 H         1 <0>         0.0763
     42 H17        -1.1777   -4.6884    5.6846 H         1 <0>         0.0811
     43 H18        -0.6546   -3.2552    6.6081 H         1 <0>         0.0372
     44 H19         4.4063   -6.1319   11.4878 H         1 <0>         0.1012
     45 H20         2.7923   -5.5393   11.0271 H         1 <0>         0.0546
     46 H21         3.6389   -6.7126    9.9904 H         1 <0>         0.0550
     47 H22         6.8458   -1.2914    7.9908 H         1 <0>         0.1013
     48 H23         6.0107   -1.9973    6.5864 H         1 <0>         0.0550
     49 H24         5.1678   -0.8233    7.6255 H         1 <0>         0.0542
     50 H25         0.0337   -3.3629    4.2017 H         1 <0>         0.3476
@<TRIPOS>BOND
     1    1    2 1
     2    1   27 1
     3    1   28 1
     4    1   29 1
     5    2    3 1
     6    3    8 ar
     7    3    4 ar
     8    4    5 ar
     9    4   30 1
    10    5    6 ar
    11    5   31 1
    12    6    7 ar
    13    6   11 1
    14    7    8 ar
    15    7   32 1
    16    8    9 1
    17    9   10 1
    18   10   33 1
    19   10   34 1
    20   10   35 1
    21   11   12 1
    22   11   36 1
    23   11   37 1
    24   12   13 1
    25   12   22 1
    26   12   14 1
    27   14   19 ar
    28   14   15 ar
    29   15   16 ar
    30   15   38 1
    31   16   17 ar
    32   16   25 1
    33   17   18 ar
    34   17   23 1
    35   18   19 ar
    36   18   39 1
    37   19   20 1
    38   20   21 1
    39   20   40 1
    40   20   41 1
    41   21   22 1
    42   21   42 1
    43   21   43 1
    44   22   50 1
    45   23   24 1
    46   24   44 1
    47   24   45 1
    48   24   46 1
    49   25   26 1
    50   26   47 1
    51   26   48 1
    52   26   49 1
@<TRIPOS>MOLECULE
ZINC02525884
   45    46     0     0     0
SMALL
USER_CHARGES
1-[(1S)-1-(4-methoxyphenyl)-2-methylamino-ethyl]cyclohexan-1-ol
@<TRIPOS>ATOM
      1 C1          5.8824    1.8361    2.5189 C.3       1 <0>        -0.0461
      2 N1          4.4840    1.3908    2.5830 N.4       1 <0>        -0.5659
      3 C2          4.3854   -0.0630    2.3972 C.3       1 <0>         0.0007
      4 C3          2.9174   -0.4882    2.4702 C.3       1 <0>        -0.0426
      5 H1          2.4670   -0.1192    3.4034 H         1 <0>         0.1097
      6 C4          2.8287   -1.9925    2.4542 C.ar      1 <0>        -0.1412
      7 C5          3.3245   -2.7016    1.3757 C.ar      1 <0>        -0.0519
      8 C6          3.2494   -4.0810    1.3612 C.ar      1 <0>        -0.2124
      9 C7          2.6654   -4.7539    2.4246 C.ar      1 <0>         0.1459
     10 C8          2.1637   -4.0397    3.5029 C.ar      1 <0>        -0.1538
     11 C9          2.2466   -2.6608    3.5154 C.ar      1 <0>        -0.0666
     12 O1          2.5846   -6.1104    2.4097 O.3       1 <0>        -0.3133
     13 C10         3.1219   -6.7799    1.2673 C.3       1 <0>         0.0211
     14 C11         2.1615    0.0801    1.2675 C.3       1 <0>         0.1427
     15 C12         0.7349   -0.4726    1.2542 C.3       1 <0>        -0.1416
     16 C13        -0.0211    0.0957    0.0516 C.3       1 <0>        -0.1275
     17 C14        -0.0663    1.6217    0.1523 C.3       1 <0>        -0.1275
     18 C15         1.3603    2.1745    0.1656 C.3       1 <0>        -0.1265
     19 C16         2.1162    1.6062    1.3683 C.3       1 <0>        -0.1477
     20 O2          2.8301   -0.2981    0.0626 O.3       1 <0>        -0.5834
     21 H2          5.9270    2.9260    2.6608 H         1 <0>         0.1206
     22 H3          6.3052    1.5765    1.5371 H         1 <0>         0.1161
     23 H4          6.4621    1.3392    3.3108 H         1 <0>         0.1146
     24 H5          4.0612    1.6504    3.5648 H         1 <0>         0.4388
     25 H6          4.7977   -0.3358    1.4146 H         1 <0>         0.1364
     26 H7          4.9547   -0.5732    3.1882 H         1 <0>         0.1252
     27 H8          3.7744   -2.1770    0.5459 H         1 <0>         0.1395
     28 H9          3.6411   -4.6347    0.5208 H         1 <0>         0.1315
     29 H10         1.7083   -4.5613    4.3318 H         1 <0>         0.1356
     30 H11         1.8561   -2.1044    4.3547 H         1 <0>         0.1293
     31 H12         2.9918   -7.8659    1.3840 H         1 <0>         0.1084
     32 H13         4.1930   -6.5466    1.1757 H         1 <0>         0.0593
     33 H14         2.5945   -6.4425    0.3629 H         1 <0>         0.0597
     34 H15         0.7674   -1.5697    1.1817 H         1 <0>         0.0854
     35 H16         0.2202   -0.1815    2.1818 H         1 <0>         0.0745
     36 H17         0.4935   -0.1955   -0.8760 H         1 <0>         0.0668
     37 H18        -1.0468   -0.3017    0.0421 H         1 <0>         0.0761
     38 H19        -0.6098    2.0303   -0.7124 H         1 <0>         0.0764
     39 H20        -0.5810    1.9129    1.0798 H         1 <0>         0.0698
     40 H21         1.8750    1.8834   -0.7619 H         1 <0>         0.0741
     41 H22         1.3278    3.2716    0.2380 H         1 <0>         0.0795
     42 H23         1.6014    1.8973    2.2958 H         1 <0>         0.0985
     43 H24         3.1418    2.0037    1.3780 H         1 <0>         0.0606
     44 H25         2.4306    0.0208   -0.9114 H         1 <0>         0.4184
     45 H26         3.9043    1.8877    1.7912 H         1 <0>         0.4328
@<TRIPOS>BOND
     1    1    2 1
     2    1   21 1
     3    1   22 1
     4    1   23 1
     5    2    3 1
     6    2   24 1
     7    2   45 1
     8    3    4 1
     9    3   25 1
    10    3   26 1
    11    4    5 1
    12    4    6 1
    13    4   14 1
    14    6   11 ar
    15    6    7 ar
    16    7    8 ar
    17    7   27 1
    18    8    9 ar
    19    8   28 1
    20    9   10 ar
    21    9   12 1
    22   10   11 ar
    23   10   29 1
    24   11   30 1
    25   12   13 1
    26   13   31 1
    27   13   32 1
    28   13   33 1
    29   14   19 1
    30   14   15 1
    31   14   20 1
    32   15   16 1
    33   15   34 1
    34   15   35 1
    35   16   17 1
    36   16   36 1
    37   16   37 1
    38   17   18 1
    39   17   38 1
    40   17   39 1
    41   18   19 1
    42   18   40 1
    43   18   41 1
    44   19   42 1
    45   19   43 1
    46   20   44 1
@<TRIPOS>MOLECULE
ZINC21981408
   45    46     0     0     0
SMALL
USER_CHARGES
1-[(1R)-1-(4-methoxyphenyl)-2-methylamino-ethyl]cyclohexan-1-ol
@<TRIPOS>ATOM
      1 C1          0.3308    1.5553   -0.1134 C.3       1 <0>        -0.0427
      2 N1          0.2690    0.0894   -0.0404 N.4       1 <0>        -0.5401
      3 C2          0.7639   -0.5208   -1.2816 C.3       1 <0>        -0.0015
      4 C3          0.6842   -2.0445   -1.1679 C.3       1 <0>        -0.0434
      5 H1          1.2144   -2.3805   -0.2646 H         1 <0>         0.1079
      6 C4         -0.7591   -2.4656   -1.0645 C.ar      1 <0>        -0.1686
      7 C5         -1.6684   -2.0538   -2.0212 C.ar      1 <0>        -0.0539
      8 C6         -2.9909   -2.4432   -1.9318 C.ar      1 <0>        -0.2104
      9 C7         -3.4086   -3.2383   -0.8745 C.ar      1 <0>         0.1480
     10 C8         -2.4954   -3.6455    0.0872 C.ar      1 <0>        -0.1521
     11 C9         -1.1728   -3.2585   -0.0100 C.ar      1 <0>        -0.0721
     12 O1         -4.7103   -3.6174   -0.7808 O.3       1 <0>        -0.3121
     13 C10        -5.5943   -3.1610   -1.8066 C.3       1 <0>         0.0204
     14 C11         1.3139   -2.6821   -2.4079 C.3       1 <0>         0.1648
     15 C12         1.1101   -4.1978   -2.3613 C.3       1 <0>        -0.1419
     16 C13         1.7399   -4.8354   -3.6013 C.3       1 <0>        -0.1239
     17 C14         3.2373   -4.5229   -3.6308 C.3       1 <0>        -0.1284
     18 C15         3.4411   -3.0072   -3.6774 C.3       1 <0>        -0.1230
     19 C16         2.8114   -2.3696   -2.4374 C.3       1 <0>        -0.1504
     20 O2          0.6939   -2.1540   -3.5821 O.3       1 <0>        -0.5886
     21 H2         -0.0448    1.9854    0.8268 H         1 <0>         0.1248
     22 H3         -0.2893    1.9072   -0.9511 H         1 <0>         0.1189
     23 H4          1.3727    1.8710   -0.2706 H         1 <0>         0.1197
     24 H5          0.8891   -0.2625    0.7973 H         1 <0>         0.4485
     25 H6          0.1468   -0.1834   -2.1274 H         1 <0>         0.1375
     26 H7          1.8089   -0.2196   -1.4470 H         1 <0>         0.1311
     27 H8         -1.3437   -1.4306   -2.8413 H         1 <0>         0.1379
     28 H9         -3.6998   -2.1252   -2.6819 H         1 <0>         0.1330
     29 H10        -2.8181   -4.2649    0.9110 H         1 <0>         0.1366
     30 H11        -0.4615   -3.5753    0.7384 H         1 <0>         0.1314
     31 H12        -6.6091   -3.5373   -1.6103 H         1 <0>         0.1098
     32 H13        -5.2475   -3.5332   -2.7819 H         1 <0>         0.0611
     33 H14        -5.6068   -2.0611   -1.8173 H         1 <0>         0.0596
     34 H15         1.5874   -4.6043   -1.4574 H         1 <0>         0.0701
     35 H16         0.0335   -4.4226   -2.3401 H         1 <0>         0.0762
     36 H17         1.5934   -5.9251   -3.5678 H         1 <0>         0.0709
     37 H18         1.2626   -4.4289   -4.5052 H         1 <0>         0.0643
     38 H19         3.7146   -4.9295   -2.7270 H         1 <0>         0.0656
     39 H20         3.6901   -4.9814   -4.5223 H         1 <0>         0.0697
     40 H21         4.5177   -2.7825   -3.6986 H         1 <0>         0.0712
     41 H22         2.9638   -2.6007   -4.5812 H         1 <0>         0.0657
     42 H23         2.9580   -1.2799   -2.4709 H         1 <0>         0.0670
     43 H24         3.2887   -2.7761   -1.5336 H         1 <0>         0.0742
     44 H25         1.0173   -2.4963   -4.5762 H         1 <0>         0.4170
     45 H26        -0.7729   -0.2263    0.1168 H         1 <0>         0.4505
@<TRIPOS>BOND
     1    1    2 1
     2    1   21 1
     3    1   22 1
     4    1   23 1
     5    2    3 1
     6    2   24 1
     7    2   45 1
     8    3    4 1
     9    3   25 1
    10    3   26 1
    11    4    5 1
    12    4    6 1
    13    4   14 1
    14    6   11 ar
    15    6    7 ar
    16    7    8 ar
    17    7   27 1
    18    8    9 ar
    19    8   28 1
    20    9   10 ar
    21    9   12 1
    22   10   11 ar
    23   10   29 1
    24   11   30 1
    25   12   13 1
    26   13   31 1
    27   13   32 1
    28   13   33 1
    29   14   19 1
    30   14   15 1
    31   14   20 1
    32   15   16 1
    33   15   34 1
    34   15   35 1
    35   16   17 1
    36   16   36 1
    37   16   37 1
    38   17   18 1
    39   17   38 1
    40   17   39 1
    41   18   19 1
    42   18   40 1
    43   18   41 1
    44   19   42 1
    45   19   43 1
    46   20   44 1
@<TRIPOS>MOLECULE
ZINC34451922
   61    65     0     0     0
SMALL
USER_CHARGES

@<TRIPOS>ATOM
      1 C1         -0.0312    1.4376    0.0625 C.3       1 <0>        -0.1149
      2 C2         -0.0229   -0.0693    0.0447 C.ar      1 <0>         0.1665
      3 C3         -0.0155   -0.7327   -1.1794 C.ar      1 <0>        -0.1630
      4 C4         -0.0074   -2.0992   -1.2143 C.ar      1 <0>        -0.0625
      5 C5         -0.0068   -2.7940    0.0070 C.ar      1 <0>        -0.1089
      6 C6         -0.0145   -2.0581    1.2176 C.ar      1 <0>         0.1381
      7 N1         -0.0173   -0.7211    1.1825 N.ar      1 <0>        -0.4673
      8 C7         -0.0139   -2.7495    2.4406 C.ar      1 <0>        -0.0799
      9 C8         -0.0055   -4.1115    2.4546 C.ar      1 <0>        -0.0967
     10 C9          0.0026   -4.8435    1.2722 C.ar      1 <0>        -0.1038
     11 C10         0.0018   -4.2041    0.0495 C.ar      1 <0>         0.1607
     12 N2          0.0100   -4.9428   -1.1301 N.pl3     1 <0>        -0.6732
     13 C11         1.2761   -5.3417   -1.7641 C.3       1 <0>         0.1189
     14 C12         1.2238   -4.9473   -3.2438 C.3       1 <0>        -0.0255
     15 N3          0.0263   -5.5297   -3.8626 N.4       1 <0>        -0.3804
     16 C13        -1.1805   -4.9526   -3.2570 C.3       1 <0>        -0.0322
     17 C14        -1.2473   -5.3521   -1.7749 C.3       1 <0>         0.1198
     18 C15         0.0336   -5.2439   -5.3035 C.3       1 <0>        -0.0072
     19 C16        -1.1461   -5.9543   -5.9703 C.3       1 <0>        -0.0971
     20 C17        -1.1386   -5.6610   -7.4485 C.ar      1 <0>        -0.0776
     21 C18        -1.8170   -4.5596   -7.9377 C.ar      1 <0>        -0.1386
     22 C19        -1.8126   -4.2871   -9.2931 C.ar      1 <0>        -0.0804
     23 C20        -1.1300   -5.1148  -10.1632 C.ar      1 <0>        -0.1434
     24 C21        -0.4479   -6.2214   -9.6753 C.ar      1 <0>         0.2020
     25 C22        -0.4497   -6.4892   -8.3125 C.ar      1 <0>        -0.1555
     26 N4          0.2445   -7.0619  -10.5542 N.am      1 <0>        -0.5742
     27 C23         1.0949   -8.1943  -10.1579 C.3       1 <0>         0.0857
     28 C24         1.6017   -8.7621  -11.4979 C.3       1 <0>         0.0889
     29 N5          0.9830   -7.8894  -12.5069 N.am      1 <0>        -0.7318
     30 C25         0.2334   -6.9663  -11.8902 C.2       1 <0>         0.6994
     31 O1         -0.3969   -6.1161  -12.4888 O.2       1 <0>        -0.5594
     32 H1          0.9944    1.8066    0.0650 H         1 <0>         0.0861
     33 H2         -0.5487    1.8085   -0.8223 H         1 <0>         0.0802
     34 H3         -0.5455    1.7876    0.9576 H         1 <0>         0.0841
     35 H4         -0.0165   -0.1684   -2.1002 H         1 <0>         0.1388
     36 H5         -0.0019   -2.6302   -2.1547 H         1 <0>         0.1232
     37 H6         -0.0198   -2.2006    3.3707 H         1 <0>         0.1418
     38 H7         -0.0048   -4.6322    3.4007 H         1 <0>         0.1381
     39 H8          0.0096   -5.9228    1.3114 H         1 <0>         0.1308
     40 H9          2.1065   -4.8299   -1.2777 H         1 <0>         0.1163
     41 H10         1.4054   -6.4205   -1.6769 H         1 <0>         0.0826
     42 H11         1.1855   -3.8614   -3.3293 H         1 <0>         0.1284
     43 H12         2.1133   -5.3208   -3.7511 H         1 <0>         0.1390
     44 H13        -1.1461   -3.8665   -3.3421 H         1 <0>         0.1294
     45 H14        -2.0627   -5.3301   -3.7741 H         1 <0>         0.1406
     46 H15        -1.3685   -6.4320   -1.6889 H         1 <0>         0.0832
     47 H16        -2.0861   -4.8472   -1.2958 H         1 <0>         0.1162
     48 H17        -0.0535   -4.1688   -5.4611 H         1 <0>         0.1311
     49 H18         0.9665   -5.6007   -5.7400 H         1 <0>         0.1329
     50 H19        -1.0590   -7.0293   -5.8127 H         1 <0>         0.0951
     51 H20        -2.0789   -5.5974   -5.5338 H         1 <0>         0.0966
     52 H21        -2.3517   -3.9111   -7.2594 H         1 <0>         0.1244
     53 H22        -2.3436   -3.4264   -9.6721 H         1 <0>         0.1341
     54 H23        -1.1272   -4.9017  -11.2220 H         1 <0>         0.1632
     55 H24         0.0839   -7.3464   -7.9293 H         1 <0>         0.1261
     56 H25         1.9301   -7.8505   -9.5478 H         1 <0>         0.0916
     57 H26         0.5107   -8.9423   -9.6219 H         1 <0>         0.0922
     58 H27         2.6885   -8.7002  -11.5531 H         1 <0>         0.0930
     59 H28         1.2691   -9.7921  -11.6273 H         1 <0>         0.0930
     60 H29         1.0964   -7.9716  -13.4667 H         1 <0>         0.4388
     61 H30         0.0277   -6.5286   -3.7203 H         1 <0>         0.4226
@<TRIPOS>BOND
     1    1    2 1
     2    1   32 1
     3    1   33 1
     4    1   34 1
     5    2    7 ar
     6    2    3 ar
     7    3    4 ar
     8    3   35 1
     9    4    5 ar
    10    4   36 1
    11    5   11 ar
    12    5    6 ar
    13    6    7 ar
    14    6    8 ar
    15    8    9 ar
    16    8   37 1
    17    9   10 ar
    18    9   38 1
    19   10   11 ar
    20   10   39 1
    21   11   12 1
    22   12   17 1
    23   12   13 1
    24   13   14 1
    25   13   40 1
    26   13   41 1
    27   14   15 1
    28   14   42 1
    29   14   43 1
    30   15   16 1
    31   15   18 1
    32   15   61 1
    33   16   17 1
    34   16   44 1
    35   16   45 1
    36   17   46 1
    37   17   47 1
    38   18   19 1
    39   18   48 1
    40   18   49 1
    41   19   20 1
    42   19   50 1
    43   19   51 1
    44   20   25 ar
    45   20   21 ar
    46   21   22 ar
    47   21   52 1
    48   22   23 ar
    49   22   53 1
    50   23   24 ar
    51   23   54 1
    52   24   25 ar
    53   24   26 1
    54   25   55 1
    55   26   30 am
    56   26   27 1
    57   27   28 1
    58   27   56 1
    59   27   57 1
    60   28   29 1
    61   28   58 1
    62   28   59 1
    63   29   30 am
    64   29   60 1
    65   30   31 2
@<TRIPOS>MOLECULE
ZINC34451922
   60    64     0     0     0
SMALL
USER_CHARGES

@<TRIPOS>ATOM
      1 C1         -0.0321    1.4340    0.0669 C.3       1 <0>        -0.1087
      2 C2         -0.0231   -0.0728    0.0484 C.ar      1 <0>         0.1614
      3 C3         -0.0155   -0.7357   -1.1761 C.ar      1 <0>        -0.1790
      4 C4         -0.0069   -2.1021   -1.2116 C.ar      1 <0>        -0.0439
      5 C5         -0.0060   -2.7975    0.0093 C.ar      1 <0>        -0.1162
      6 C6         -0.0140   -2.0623    1.2203 C.ar      1 <0>         0.1383
      7 N1         -0.0173   -0.7252    1.1858 N.ar      1 <0>        -0.4780
      8 C7         -0.0131   -2.7542    2.4430 C.ar      1 <0>        -0.1017
      9 C8         -0.0042   -4.1162    2.4563 C.ar      1 <0>        -0.0895
     10 C9          0.0042   -4.8477    1.2736 C.ar      1 <0>        -0.1280
     11 C10         0.0032   -4.2076    0.0512 C.ar      1 <0>         0.1972
     12 N2          0.0115   -4.9458   -1.1288 N.pl3     1 <0>        -0.6786
     13 C11         1.2784   -5.3431   -1.7618 C.3       1 <0>         0.1496
     14 C12         1.2359   -4.9304   -3.2369 C.3       1 <0>         0.0396
     15 N3          0.0281   -5.4851   -3.8627 N.3       1 <0>        -0.5337
     16 C13        -1.1893   -4.9364   -3.2504 C.3       1 <0>         0.0347
     17 C14        -1.2462   -5.3545   -1.7725 C.3       1 <0>         0.1493
     18 C15         0.0356   -5.2584   -5.3140 C.3       1 <0>         0.0625
     19 C16        -1.0979   -6.0570   -5.9608 C.3       1 <0>        -0.0749
     20 C17        -1.0902   -5.8244   -7.4498 C.ar      1 <0>        -0.0542
     21 C18        -1.8204   -4.7814   -7.9898 C.ar      1 <0>        -0.1431
     22 C19        -1.8159   -4.5647   -9.3553 C.ar      1 <0>        -0.0866
     23 C20        -1.0816   -5.3899  -10.1846 C.ar      1 <0>        -0.1581
     24 C21        -0.3474   -6.4379   -9.6456 C.ar      1 <0>         0.1910
     25 C22        -0.3495   -6.6495   -8.2729 C.ar      1 <0>        -0.1551
     26 N4          0.3976   -7.2758  -10.4831 N.am      1 <0>        -0.5709
     27 C23         1.3021   -8.3444  -10.0332 C.3       1 <0>         0.0845
     28 C24         1.8522   -8.9388  -11.3442 C.3       1 <0>         0.0912
     29 N5          1.1993   -8.1420  -12.3936 N.am      1 <0>        -0.7361
     30 C25         0.3956   -7.2356  -11.8220 C.2       1 <0>         0.6995
     31 O1         -0.2721   -6.4452  -12.4605 O.2       1 <0>        -0.5652
     32 H1          0.9934    1.8035    0.0696 H         1 <0>         0.0813
     33 H2         -0.5496    1.8052   -0.8177 H         1 <0>         0.0768
     34 H3         -0.5465    1.7834    0.9621 H         1 <0>         0.0795
     35 H4         -0.0168   -0.1709   -2.0966 H         1 <0>         0.1342
     36 H5         -0.0012   -2.6326   -2.1523 H         1 <0>         0.1348
     37 H6         -0.0192   -2.2057    3.3733 H         1 <0>         0.1347
     38 H7         -0.0032   -4.6373    3.4022 H         1 <0>         0.1312
     39 H8          0.0116   -5.9269    1.3122 H         1 <0>         0.1282
     40 H9          2.1089   -4.8415   -1.2650 H         1 <0>         0.0717
     41 H10         1.4019   -6.4235   -1.6872 H         1 <0>         0.0627
     42 H11         1.2167   -3.8430   -3.3100 H         1 <0>         0.0346
     43 H12         2.1191   -5.3142   -3.7476 H         1 <0>         0.0822
     44 H13        -1.1747   -3.8489   -3.3233 H         1 <0>         0.0351
     45 H14        -2.0649   -5.3244   -3.7708 H         1 <0>         0.0854
     46 H15        -1.3606   -6.4360   -1.6990 H         1 <0>         0.0631
     47 H16        -2.0854   -4.8605   -1.2829 H         1 <0>         0.0716
     48 H17        -0.1062   -4.1968   -5.5167 H         1 <0>         0.0355
     49 H18         0.9905   -5.5828   -5.7275 H         1 <0>         0.0763
     50 H19        -0.9561   -7.1185   -5.7582 H         1 <0>         0.0819
     51 H20        -2.0528   -5.7326   -5.5474 H         1 <0>         0.0744
     52 H21        -2.3957   -4.1350   -7.3435 H         1 <0>         0.1206
     53 H22        -2.3875   -3.7496   -9.7740 H         1 <0>         0.1267
     54 H23        -1.0788   -5.2204  -11.2512 H         1 <0>         0.1568
     55 H24         0.2243   -7.4609   -7.8501 H         1 <0>         0.1245
     56 H25         2.1115   -7.9321   -9.4307 H         1 <0>         0.0924
     57 H26         0.7524   -9.0998   -9.4716 H         1 <0>         0.0923
     58 H27         2.9348   -8.8217  -11.3927 H         1 <0>         0.0897
     59 H28         1.5757   -9.9893  -11.4336 H         1 <0>         0.0895
     60 H29         1.3270   -8.2573  -13.3482 H         1 <0>         0.4348
@<TRIPOS>BOND
     1    1    2 1
     2    1   32 1
     3    1   33 1
     4    1   34 1
     5    2    7 ar
     6    2    3 ar
     7    3    4 ar
     8    3   35 1
     9    4    5 ar
    10    4   36 1
    11    5   11 ar
    12    5    6 ar
    13    6    7 ar
    14    6    8 ar
    15    8    9 ar
    16    8   37 1
    17    9   10 ar
    18    9   38 1
    19   10   11 ar
    20   10   39 1
    21   11   12 1
    22   12   17 1
    23   12   13 1
    24   13   14 1
    25   13   40 1
    26   13   41 1
    27   14   15 1
    28   14   42 1
    29   14   43 1
    30   15   16 1
    31   15   18 1
    32   16   17 1
    33   16   44 1
    34   16   45 1
    35   17   46 1
    36   17   47 1
    37   18   19 1
    38   18   48 1
    39   18   49 1
    40   19   20 1
    41   19   50 1
    42   19   51 1
    43   20   25 ar
    44   20   21 ar
    45   21   22 ar
    46   21   52 1
    47   22   23 ar
    48   22   53 1
    49   23   24 ar
    50   23   54 1
    51   24   25 ar
    52   24   26 1
    53   25   55 1
    54   26   30 am
    55   26   27 1
    56   27   28 1
    57   27   56 1
    58   27   57 1
    59   28   29 1
    60   28   58 1
    61   28   59 1
    62   29   30 am
    63   29   60 1
    64   30   31 2
@<TRIPOS>MOLECULE
ZINC34451922
   62    66     0     0     0
SMALL
USER_CHARGES

@<TRIPOS>ATOM
      1 C1         -0.0312    1.4376    0.0625 C.3       1 <0>        -0.1610
      2 C2         -0.0229   -0.0693    0.0447 C.ar      1 <0>         0.2542
      3 C3         -0.0155   -0.7327   -1.1794 C.ar      1 <0>        -0.1670
      4 C4         -0.0074   -2.0992   -1.2143 C.ar      1 <0>         0.0386
      5 C5         -0.0068   -2.7940    0.0070 C.ar      1 <0>        -0.0964
      6 C6         -0.0145   -2.0581    1.2176 C.ar      1 <0>         0.1451
      7 N1         -0.0173   -0.7211    1.1825 N.ar      1 <0>        -0.4584
      8 C7         -0.0139   -2.7495    2.4406 C.ar      1 <0>        -0.1305
      9 C8         -0.0055   -4.1115    2.4546 C.ar      1 <0>        -0.0263
     10 C9          0.0026   -4.8435    1.2722 C.ar      1 <0>        -0.0895
     11 C10         0.0018   -4.2041    0.0495 C.ar      1 <0>         0.2051
     12 N2          0.0100   -4.9428   -1.1301 N.pl3     1 <0>        -0.6830
     13 C11         1.2761   -5.3417   -1.7641 C.3       1 <0>         0.1133
     14 C12         1.2238   -4.9473   -3.2438 C.3       1 <0>        -0.0251
     15 N3          0.0263   -5.5297   -3.8626 N.4       1 <0>        -0.3836
     16 C13        -1.1805   -4.9526   -3.2570 C.3       1 <0>        -0.0322
     17 C14        -1.2473   -5.3521   -1.7749 C.3       1 <0>         0.1142
     18 C15         0.0336   -5.2439   -5.3035 C.3       1 <0>        -0.0083
     19 C16        -1.1461   -5.9543   -5.9703 C.3       1 <0>        -0.0958
     20 C17        -1.1386   -5.6610   -7.4485 C.ar      1 <0>        -0.0824
     21 C18        -1.8170   -4.5596   -7.9377 C.ar      1 <0>        -0.1409
     22 C19        -1.8126   -4.2871   -9.2931 C.ar      1 <0>        -0.0796
     23 C20        -1.1300   -5.1148  -10.1632 C.ar      1 <0>        -0.1415
     24 C21        -0.4479   -6.2214   -9.6753 C.ar      1 <0>         0.2063
     25 C22        -0.4497   -6.4892   -8.3125 C.ar      1 <0>        -0.1564
     26 N4          0.2445   -7.0619  -10.5542 N.am      1 <0>        -0.5752
     27 C23         1.0949   -8.1943  -10.1579 C.3       1 <0>         0.0862
     28 C24         1.6017   -8.7621  -11.4979 C.3       1 <0>         0.0880
     29 N5          0.9830   -7.8894  -12.5069 N.am      1 <0>        -0.7302
     30 C25         0.2334   -6.9663  -11.8902 C.2       1 <0>         0.6992
     31 O1         -0.3969   -6.1161  -12.4888 O.2       1 <0>        -0.5578
     32 H1          0.9944    1.8066    0.0650 H         1 <0>         0.1292
     33 H2         -0.5487    1.8085   -0.8223 H         1 <0>         0.1262
     34 H3         -0.5455    1.7876    0.9576 H         1 <0>         0.1073
     35 H4         -0.0165   -0.1684   -2.1002 H         1 <0>         0.1869
     36 H5         -0.0019   -2.6302   -2.1547 H         1 <0>         0.1595
     37 H6         -0.0198   -2.2006    3.3707 H         1 <0>         0.1627
     38 H7         -0.0048   -4.6322    3.4007 H         1 <0>         0.1641
     39 H8          0.0096   -5.9228    1.3114 H         1 <0>         0.1565
     40 H9          2.1065   -4.8299   -1.2777 H         1 <0>         0.1196
     41 H10         1.4054   -6.4205   -1.6769 H         1 <0>         0.0952
     42 H11         1.1855   -3.8614   -3.3293 H         1 <0>         0.1261
     43 H12         2.1133   -5.3208   -3.7511 H         1 <0>         0.1471
     44 H13        -1.1461   -3.8665   -3.3421 H         1 <0>         0.1272
     45 H14        -2.0627   -5.3301   -3.7741 H         1 <0>         0.1488
     46 H15        -1.3685   -6.4320   -1.6889 H         1 <0>         0.0958
     47 H16        -2.0861   -4.8472   -1.2958 H         1 <0>         0.1195
     48 H17        -0.0535   -4.1688   -5.4611 H         1 <0>         0.1321
     49 H18         0.9665   -5.6007   -5.7400 H         1 <0>         0.1368
     50 H19        -1.0590   -7.0293   -5.8127 H         1 <0>         0.0966
     51 H20        -2.0789   -5.5974   -5.5338 H         1 <0>         0.0955
     52 H21        -2.3517   -3.9111   -7.2594 H         1 <0>         0.1224
     53 H22        -2.3436   -3.4264   -9.6721 H         1 <0>         0.1347
     54 H23        -1.1272   -4.9017  -11.2220 H         1 <0>         0.1647
     55 H24         0.0839   -7.3464   -7.9293 H         1 <0>         0.1263
     56 H25         1.9301   -7.8505   -9.5478 H         1 <0>         0.0912
     57 H26         0.5107   -8.9423   -9.6219 H         1 <0>         0.0923
     58 H27         2.6885   -8.7002  -11.5531 H         1 <0>         0.0940
     59 H28         1.2691   -9.7921  -11.6273 H         1 <0>         0.0943
     60 H29         1.0964   -7.9716  -13.4667 H         1 <0>         0.4403
     61 H30         0.0277   -6.5286   -3.7203 H         1 <0>         0.4274
     62 H31        -0.0190   -0.2237    2.0152 H         1 <0>         0.4506
@<TRIPOS>BOND
     1    1    2 1
     2    1   32 1
     3    1   33 1
     4    1   34 1
     5    2    7 ar
     6    2    3 ar
     7    3    4 ar
     8    3   35 1
     9    4    5 ar
    10    4   36 1
    11    5   11 ar
    12    5    6 ar
    13    6    7 ar
    14    6    8 ar
    15    7   62 1
    16    8    9 ar
    17    8   37 1
    18    9   10 ar
    19    9   38 1
    20   10   11 ar
    21   10   39 1
    22   11   12 1
    23   12   17 1
    24   12   13 1
    25   13   14 1
    26   13   40 1
    27   13   41 1
    28   14   15 1
    29   14   42 1
    30   14   43 1
    31   15   16 1
    32   15   18 1
    33   15   61 1
    34   16   17 1
    35   16   44 1
    36   16   45 1
    37   17   46 1
    38   17   47 1
    39   18   19 1
    40   18   48 1
    41   18   49 1
    42   19   20 1
    43   19   50 1
    44   19   51 1
    45   20   25 ar
    46   20   21 ar
    47   21   22 ar
    48   21   52 1
    49   22   23 ar
    50   22   53 1
    51   23   24 ar
    52   23   54 1
    53   24   25 ar
    54   24   26 1
    55   25   55 1
    56   26   30 am
    57   26   27 1
    58   27   28 1
    59   27   56 1
    60   27   57 1
    61   28   29 1
    62   28   58 1
    63   28   59 1
    64   29   30 am
    65   29   60 1
    66   30   31 2
@<TRIPOS>MOLECULE
ZINC03775140
   62    64     0     0     0
SMALL
USER_CHARGES

@<TRIPOS>ATOM
      1 C1         -0.0173    1.4248    0.0099 C.3       1 <0>         0.0171
      2 O1          0.0021   -0.0041    0.0020 O.3       1 <0>        -0.2760
      3 C2          0.6048   -0.6061   -1.0540 C.ar      1 <0>         0.2490
      4 C3          1.1714    0.1577   -2.0595 C.ar      1 <0>        -0.2968
      5 C4          1.7875   -0.4643   -3.1379 C.ar      1 <0>         0.3045
      6 C5          1.8368   -1.8562   -3.2112 C.ar      1 <0>        -0.1599
      7 C6          1.2804   -2.6188   -2.2247 C.ar      1 <0>         0.0104
      8 C7          0.6619   -2.0064   -1.1291 C.ar      1 <0>        -0.2378
      9 C8          0.0677   -2.8282   -0.0619 C.2       1 <0>         0.5777
     10 O2         -0.4739   -2.2937    0.8871 O.2       1 <0>        -0.5075
     11 N1          0.1238   -4.1727   -0.1363 N.am      1 <0>        -0.7330
     12 C9         -0.4675   -4.9905    0.9257 C.3       1 <0>         0.1404
     13 H1         -1.3642   -4.5012    1.3060 H         1 <0>         0.1248
     14 C10         0.5437   -5.1622    2.0629 C.3       1 <0>        -0.1546
     15 C11         1.7671   -5.9184    1.5404 C.3       1 <0>        -0.0167
     16 N2          1.3566   -7.2378    1.0453 N.4       1 <0>        -0.3759
     17 C12         0.4423   -7.0806   -0.0921 C.3       1 <0>        -0.0388
     18 C13        -0.8339   -6.3685    0.3670 C.3       1 <0>         0.0659
     19 H2         -1.3203   -6.9585    1.1438 H         1 <0>         0.1015
     20 O3         -1.7219   -6.2131   -0.7418 O.3       1 <0>        -0.3502
     21 C14        -2.6322   -7.3011   -0.9143 C.3       1 <0>         0.0179
     22 C15         2.5438   -7.9895    0.6171 C.3       1 <0>        -0.0062
     23 C16         3.4343   -8.2703    1.8292 C.3       1 <0>        -0.1507
     24 C17         4.6708   -9.0533    1.3832 C.3       1 <0>         0.0614
     25 O4          5.5024   -9.3155    2.5152 O.3       1 <0>        -0.3099
     26 C18         6.6507  -10.0076    2.2904 C.ar      1 <0>         0.1104
     27 C19         6.9722  -10.4203    1.0058 C.ar      1 <0>        -0.1786
     28 C20         8.1394  -11.1237    0.7787 C.ar      1 <0>        -0.1136
     29 C21         8.9878  -11.4170    1.8328 C.ar      1 <0>         0.0730
     30 C22         8.6679  -11.0061    3.1156 C.ar      1 <0>        -0.1109
     31 C23         7.5046  -10.2969    3.3445 C.ar      1 <0>        -0.1156
     32 F1         10.1287  -12.1053    1.6094 F         1 <0>        -0.1339
     33 Cl1         2.6089   -2.6229   -4.5639 Cl        1 <0>        -0.0623
     34 N3          2.3569    0.3038   -4.1485 N.pl3     1 <0>        -0.8495
     35 H3          1.0053    1.8021    0.0021 H         1 <0>         0.0609
     36 H4         -0.5445    1.7859   -0.8732 H         1 <0>         0.0614
     37 H5         -0.5275    1.7763    0.9067 H         1 <0>         0.1085
     38 H6          1.1342    1.2357   -2.0059 H         1 <0>         0.1464
     39 H7          1.3215   -3.6961   -2.2880 H         1 <0>         0.1333
     40 H8          0.5557   -4.5989   -0.8931 H         1 <0>         0.3942
     41 H9          0.8503   -4.1821    2.4284 H         1 <0>         0.1283
     42 H10         0.0859   -5.7273    2.8748 H         1 <0>         0.1026
     43 H11         2.2242   -5.3523    0.7288 H         1 <0>         0.1317
     44 H12         2.4891   -6.0421    2.3475 H         1 <0>         0.1399
     45 H13         0.9276   -6.4898   -0.8690 H         1 <0>         0.1341
     46 H14         0.1862   -8.0624   -0.4903 H         1 <0>         0.1380
     47 H15        -2.0715   -8.2215   -1.0778 H         1 <0>         0.0481
     48 H16        -3.2481   -7.4047   -0.0210 H         1 <0>         0.0566
     49 H17        -3.2712   -7.1071   -1.7758 H         1 <0>         0.1042
     50 H18         2.2339   -8.9329    0.1676 H         1 <0>         0.1368
     51 H19         3.1003   -7.4039   -0.1147 H         1 <0>         0.1356
     52 H20         3.7442   -7.3269    2.2786 H         1 <0>         0.1012
     53 H21         2.8778   -8.8559    2.5610 H         1 <0>         0.1013
     54 H22         4.3608   -9.9967    0.9337 H         1 <0>         0.0740
     55 H23         5.2272   -8.4676    0.6514 H         1 <0>         0.0740
     56 H24         6.3103  -10.1922    0.1835 H         1 <0>         0.1353
     57 H25         8.3900  -11.4451   -0.2214 H         1 <0>         0.1422
     58 H26         9.3304  -11.2359    3.9370 H         1 <0>         0.1482
     59 H27         7.2577   -9.9722    4.3445 H         1 <0>         0.1439
     60 H28         2.3233    1.2719   -4.0992 H         1 <0>         0.4097
     61 H29         2.7876   -0.1289   -4.9023 H         1 <0>         0.4089
     62 H30         0.8896   -7.7426    1.7837 H         1 <0>         0.4252
@<TRIPOS>BOND
     1    1    2 1
     2    1   35 1
     3    1   36 1
     4    1   37 1
     5    2    3 1
     6    3    8 ar
     7    3    4 ar
     8    4    5 ar
     9    4   38 1
    10    5    6 ar
    11    5   34 1
    12    6    7 ar
    13    6   33 1
    14    7    8 ar
    15    7   39 1
    16    8    9 1
    17    9   10 2
    18    9   11 am
    19   11   12 1
    20   11   40 1
    21   12   13 1
    22   12   18 1
    23   12   14 1
    24   14   15 1
    25   14   41 1
    26   14   42 1
    27   15   16 1
    28   15   43 1
    29   15   44 1
    30   16   17 1
    31   16   22 1
    32   16   62 1
    33   17   18 1
    34   17   45 1
    35   17   46 1
    36   18   19 1
    37   18   20 1
    38   20   21 1
    39   21   47 1
    40   21   48 1
    41   21   49 1
    42   22   23 1
    43   22   50 1
    44   22   51 1
    45   23   24 1
    46   23   52 1
    47   23   53 1
    48   24   25 1
    49   24   54 1
    50   24   55 1
    51   25   26 1
    52   26   31 ar
    53   26   27 ar
    54   27   28 ar
    55   27   56 1
    56   28   29 ar
    57   28   57 1
    58   29   30 ar
    59   29   32 1
    60   30   31 ar
    61   30   58 1
    62   31   59 1
    63   34   60 1
    64   34   61 1
@<TRIPOS>MOLECULE
ZINC03830564
   62    64     0     0     0
SMALL
USER_CHARGES

@<TRIPOS>ATOM
      1 C1         -0.0173    1.4248    0.0099 C.3       1 <0>         0.0173
      2 O1          0.0021   -0.0041    0.0020 O.3       1 <0>        -0.2768
      3 C2          0.6048   -0.6061   -1.0540 C.ar      1 <0>         0.2482
      4 C3          1.1714    0.1577   -2.0595 C.ar      1 <0>        -0.2974
      5 C4          1.7875   -0.4643   -3.1379 C.ar      1 <0>         0.3044
      6 C5          1.8368   -1.8562   -3.2112 C.ar      1 <0>        -0.1594
      7 C6          1.2804   -2.6188   -2.2247 C.ar      1 <0>         0.0124
      8 C7          0.6619   -2.0064   -1.1291 C.ar      1 <0>        -0.2376
      9 C8          0.0677   -2.8282   -0.0619 C.2       1 <0>         0.5803
     10 O2         -0.4739   -2.2937    0.8871 O.2       1 <0>        -0.5144
     11 N1          0.1238   -4.1727   -0.1363 N.am      1 <0>        -0.7279
     12 C9         -0.4675   -4.9905    0.9257 C.3       1 <0>         0.1426
     13 H1         -0.3382   -4.4904    1.8855 H         1 <0>         0.1147
     14 C10        -1.9606   -5.1884    0.6484 C.3       1 <0>        -0.1574
     15 C11        -2.5547   -6.1082    1.7173 C.3       1 <0>        -0.0121
     16 N2         -1.8729   -7.4076    1.6837 N.4       1 <0>        -0.3780
     17 C12        -0.4544   -7.2346    2.0193 C.3       1 <0>        -0.0308
     18 C13         0.2219   -6.3574    0.9634 C.3       1 <0>         0.0634
     19 H2          0.1375   -6.8346   -0.0130 H         1 <0>         0.0897
     20 O3          1.6015   -6.1871    1.2946 O.3       1 <0>        -0.3498
     21 C14         2.4612   -7.1803    0.7321 C.3       1 <0>         0.0175
     22 C15        -2.4981   -8.3123    2.6576 C.3       1 <0>        -0.0056
     23 C16        -3.9400   -8.5999    2.2341 C.3       1 <0>        -0.1510
     24 C17        -4.5912   -9.5422    3.2484 C.3       1 <0>         0.0612
     25 O4         -5.9378   -9.8107    2.8528 O.3       1 <0>        -0.3101
     26 C18        -6.6627  -10.6375    3.6523 C.ar      1 <0>         0.1103
     27 C19        -6.0908  -11.1740    4.7964 C.ar      1 <0>        -0.1786
     28 C20        -6.8286  -12.0140    5.6079 C.ar      1 <0>        -0.1136
     29 C21        -8.1381  -12.3209    5.2793 C.ar      1 <0>         0.0729
     30 C22        -8.7100  -11.7865    4.1373 C.ar      1 <0>        -0.1110
     31 C23        -7.9767  -10.9409    3.3276 C.ar      1 <0>        -0.1157
     32 F1         -8.8583  -13.1429    6.0736 F         1 <0>        -0.1339
     33 Cl1         2.6089   -2.6229   -4.5639 Cl        1 <0>        -0.0612
     34 N3          2.3569    0.3038   -4.1485 N.pl3     1 <0>        -0.8498
     35 H3          1.0053    1.8021    0.0021 H         1 <0>         0.0610
     36 H4         -0.5445    1.7859   -0.8732 H         1 <0>         0.0608
     37 H5         -0.5275    1.7763    0.9067 H         1 <0>         0.1075
     38 H6          1.1342    1.2357   -2.0059 H         1 <0>         0.1460
     39 H7          1.3215   -3.6961   -2.2880 H         1 <0>         0.1366
     40 H8          0.5557   -4.5989   -0.8931 H         1 <0>         0.4011
     41 H9         -2.4669   -4.2235    0.6762 H         1 <0>         0.1280
     42 H10        -2.0914   -5.6407   -0.3346 H         1 <0>         0.0936
     43 H11        -2.4236   -5.6548    2.6998 H         1 <0>         0.1373
     44 H12        -3.6177   -6.2510    1.5230 H         1 <0>         0.1408
     45 H13        -0.3681   -6.7573    2.9954 H         1 <0>         0.1434
     46 H14         0.0331   -8.2090    2.0480 H         1 <0>         0.1370
     47 H15         2.1631   -8.1650    1.0923 H         1 <0>         0.0484
     48 H16         2.3857   -7.1529   -0.3549 H         1 <0>         0.0550
     49 H17         3.4905   -6.9808    1.0300 H         1 <0>         0.1046
     50 H18        -1.9380   -9.2465    2.6975 H         1 <0>         0.1365
     51 H19        -2.4951   -7.8445    3.6421 H         1 <0>         0.1371
     52 H20        -4.5001   -7.6657    2.1942 H         1 <0>         0.1015
     53 H21        -3.9430   -9.0676    1.2495 H         1 <0>         0.1005
     54 H22        -4.0310  -10.4764    3.2882 H         1 <0>         0.0740
     55 H23        -4.5881   -9.0744    4.2329 H         1 <0>         0.0745
     56 H24        -5.0691  -10.9353    5.0526 H         1 <0>         0.1356
     57 H25        -6.3836  -12.4318    6.4989 H         1 <0>         0.1423
     58 H26        -9.7315  -12.0270    3.8820 H         1 <0>         0.1482
     59 H27        -8.4246  -10.5203    2.4394 H         1 <0>         0.1438
     60 H28         2.3233    1.2719   -4.0992 H         1 <0>         0.4092
     61 H29         2.7876   -0.1289   -4.9023 H         1 <0>         0.4089
     62 H30        -1.9528   -7.8044    0.7595 H         1 <0>         0.4239
@<TRIPOS>BOND
     1    1    2 1
     2    1   35 1
     3    1   36 1
     4    1   37 1
     5    2    3 1
     6    3    8 ar
     7    3    4 ar
     8    4    5 ar
     9    4   38 1
    10    5    6 ar
    11    5   34 1
    12    6    7 ar
    13    6   33 1
    14    7    8 ar
    15    7   39 1
    16    8    9 1
    17    9   10 2
    18    9   11 am
    19   11   12 1
    20   11   40 1
    21   12   13 1
    22   12   18 1
    23   12   14 1
    24   14   15 1
    25   14   41 1
    26   14   42 1
    27   15   16 1
    28   15   43 1
    29   15   44 1
    30   16   17 1
    31   16   22 1
    32   16   62 1
    33   17   18 1
    34   17   45 1
    35   17   46 1
    36   18   19 1
    37   18   20 1
    38   20   21 1
    39   21   47 1
    40   21   48 1
    41   21   49 1
    42   22   23 1
    43   22   50 1
    44   22   51 1
    45   23   24 1
    46   23   52 1
    47   23   53 1
    48   24   25 1
    49   24   54 1
    50   24   55 1
    51   25   26 1
    52   26   31 ar
    53   26   27 ar
    54   27   28 ar
    55   27   56 1
    56   28   29 ar
    57   28   57 1
    58   29   30 ar
    59   29   32 1
    60   30   31 ar
    61   30   58 1
    62   31   59 1
    63   34   60 1
    64   34   61 1
@<TRIPOS>MOLECULE
ZINC03949424
   73    76     0     0     0
SMALL
USER_CHARGES

@<TRIPOS>ATOM
      1 C1         -0.0663    1.4819   -0.0222 C.3       1 <0>        -0.1665
      2 C2         -0.0295   -0.0476   -0.0295 C.3       1 <0>         0.1715
      3 C3          0.7069   -0.5460    1.2156 C.3       1 <0>        -0.1560
      4 C4         -1.4594   -0.5921   -0.0285 C.3       1 <0>        -0.1576
      5 N1          0.6696   -0.5136   -1.2296 N.am      1 <0>        -0.7124
      6 C5          1.9512   -0.1561   -1.4444 C.2       1 <0>         0.5117
      7 O1          2.5257    0.5514   -0.6442 O.2       1 <0>        -0.5198
      8 C6          2.6704   -0.6354   -2.6789 C.3       1 <0>         0.1207
      9 H1          1.9938   -0.6014   -3.5328 H         1 <0>         0.1478
     10 C7          3.1574   -2.0739   -2.4651 C.3       1 <0>         0.1175
     11 N2          4.2533   -2.0580   -1.4860 N.pl3     1 <0>        -0.5629
     12 C8          5.4192   -1.2007   -1.7417 C.3       1 <0>         0.0877
     13 C9          4.9322    0.2378   -1.9556 C.3       1 <0>         0.0924
     14 N3          3.8339    0.2245   -2.9371 N.am      1 <0>        -0.5813
     15 C10         3.8943    0.9808   -4.0510 C.2       1 <0>         0.6584
     16 O2          2.9815    0.9556   -4.8526 O.2       1 <0>        -0.5552
     17 O3          4.9660    1.7642   -4.2755 O.3       1 <0>        -0.3524
     18 C11         4.9631    2.5390   -5.4762 C.3       1 <0>         0.1289
     19 C12         6.2329    3.3467   -5.5559 C.ar      1 <0>        -0.1060
     20 C13         6.2815    4.6141   -5.0060 C.ar      1 <0>        -0.0923
     21 C14         7.4462    5.3550   -5.0791 C.ar      1 <0>        -0.1215
     22 C15         8.5625    4.8284   -5.7017 C.ar      1 <0>        -0.1030
     23 C16         8.5141    3.5607   -6.2507 C.ar      1 <0>        -0.1226
     24 C17         7.3507    2.8181   -6.1739 C.ar      1 <0>        -0.0935
     25 C18         4.1886   -2.8368   -0.3438 C.ar      1 <0>         0.6847
     26 N4          5.2385   -2.8774    0.4540 N.ar      1 <0>        -0.5820
     27 C19         5.2146   -3.6215    1.5710 C.ar      1 <0>         0.2225
     28 C20         6.3124   -3.6852    2.4381 C.ar      1 <0>        -0.2297
     29 C21         6.2376   -4.4635    3.5721 C.ar      1 <0>         0.2176
     30 C22         5.0759   -5.1909    3.8654 C.ar      1 <0>         0.1145
     31 C23         3.9938   -5.1430    3.0337 C.ar      1 <0>        -0.1167
     32 C24         4.0438   -4.3588    1.8743 C.ar      1 <0>        -0.1900
     33 C25         2.9486   -4.2759    0.9810 C.ar      1 <0>         0.5620
     34 N5          3.0689   -3.5091   -0.0933 N.ar      1 <0>        -0.5918
     35 N6          1.7831   -4.9721    1.2254 N.pl3     1 <0>        -0.7735
     36 O4          5.0259   -5.9533    4.9908 O.3       1 <0>        -0.2899
     37 C26         3.8146   -6.6711    5.2349 C.3       1 <0>         0.0159
     38 O5          7.3011   -4.5272    4.4149 O.3       1 <0>        -0.2781
     39 C27         8.4560   -3.7637    4.0608 C.3       1 <0>         0.0123
     40 H2          0.9524    1.8698   -0.0229 H         1 <0>         0.0759
     41 H3         -0.5909    1.8370   -0.9092 H         1 <0>         0.0577
     42 H4         -0.5864    1.8286    0.8708 H         1 <0>         0.0669
     43 H5          0.1867   -0.1994    2.1085 H         1 <0>         0.0656
     44 H6          0.7330   -1.6357    1.2104 H         1 <0>         0.0485
     45 H7          1.7255   -0.1581    1.2149 H         1 <0>         0.0713
     46 H8         -1.9840   -0.2370   -0.9155 H         1 <0>         0.0668
     47 H9         -1.4332   -1.6818   -0.0337 H         1 <0>         0.0621
     48 H10        -1.9795   -0.2454    0.8645 H         1 <0>         0.0774
     49 H11         0.2101   -1.0794   -1.8696 H         1 <0>         0.4023
     50 H12         2.3379   -2.6852   -2.0870 H         1 <0>         0.1316
     51 H13         3.5165   -2.4828   -3.4095 H         1 <0>         0.1120
     52 H14         6.0934   -1.2352   -0.8859 H         1 <0>         0.0940
     53 H15         5.9394   -1.5474   -2.6346 H         1 <0>         0.1105
     54 H16         4.5731    0.6467   -1.0111 H         1 <0>         0.1104
     55 H17         5.7517    0.8491   -2.3336 H         1 <0>         0.1203
     56 H18         4.9009    1.8740   -6.3376 H         1 <0>         0.0818
     57 H19         4.1048    3.2108   -5.4731 H         1 <0>         0.0812
     58 H20         5.4094    5.0255   -4.5196 H         1 <0>         0.1246
     59 H21         7.4840    6.3454   -4.6501 H         1 <0>         0.1281
     60 H22         9.4722    5.4076   -5.7594 H         1 <0>         0.1274
     61 H23         9.3861    3.1494   -6.7374 H         1 <0>         0.1277
     62 H24         7.3141    1.8262   -6.5996 H         1 <0>         0.1242
     63 H25         7.2115   -3.1285    2.2190 H         1 <0>         0.1676
     64 H26         3.1036   -5.7075    3.2687 H         1 <0>         0.1584
     65 H27         1.7066   -5.5270    2.0173 H         1 <0>         0.4285
     66 H28         1.0400   -4.9066    0.6054 H         1 <0>         0.4298
     67 H29         2.9864   -5.9676    5.3207 H         1 <0>         0.0634
     68 H30         3.6254   -7.3561    4.4084 H         1 <0>         0.0635
     69 H31         3.9081   -7.2370    6.1618 H         1 <0>         0.1173
     70 H32         8.8293   -4.0973    3.0926 H         1 <0>         0.0685
     71 H33         8.1903   -2.7081    4.0037 H         1 <0>         0.0687
     72 H34         9.2295   -3.9034    4.8161 H         1 <0>         0.1204
     73 H35         6.0326   -2.3666    0.2319 H         1 <0>         0.4346
@<TRIPOS>BOND
     1    1    2 1
     2    1   40 1
     3    1   41 1
     4    1   42 1
     5    2    3 1
     6    2    4 1
     7    2    5 1
     8    3   43 1
     9    3   44 1
    10    3   45 1
    11    4   46 1
    12    4   47 1
    13    4   48 1
    14    5    6 am
    15    5   49 1
    16    6    7 2
    17    6    8 1
    18    8    9 1
    19    8   14 1
    20    8   10 1
    21   10   11 1
    22   10   50 1
    23   10   51 1
    24   11   12 1
    25   11   25 1
    26   12   13 1
    27   12   52 1
    28   12   53 1
    29   13   14 1
    30   13   54 1
    31   13   55 1
    32   14   15 am
    33   15   16 2
    34   15   17 1
    35   17   18 1
    36   18   19 1
    37   18   56 1
    38   18   57 1
    39   19   24 ar
    40   19   20 ar
    41   20   21 ar
    42   20   58 1
    43   21   22 ar
    44   21   59 1
    45   22   23 ar
    46   22   60 1
    47   23   24 ar
    48   23   61 1
    49   24   62 1
    50   25   34 ar
    51   25   26 ar
    52   26   27 ar
    53   26   73 1
    54   27   32 ar
    55   27   28 ar
    56   28   29 ar
    57   28   63 1
    58   29   30 ar
    59   29   38 1
    60   30   31 ar
    61   30   36 1
    62   31   32 ar
    63   31   64 1
    64   32   33 ar
    65   33   34 ar
    66   33   35 1
    67   35   65 1
    68   35   66 1
    69   36   37 1
    70   37   67 1
    71   37   68 1
    72   37   69 1
    73   38   39 1
    74   39   70 1
    75   39   71 1
    76   39   72 1
@<TRIPOS>MOLECULE
ZINC28256102
   29    29     0     0     0
SMALL
USER_CHARGES
(1R)-1-(3,4-dihydroxyphenyl)-2-methylamino-ethanesulfonic acid
@<TRIPOS>ATOM
      1 C1          3.9599   -1.3998   -2.4787 C.3       1 <0>        -0.0379
      2 N1          3.8485   -0.5500   -1.2857 N.4       1 <0>        -0.5532
      3 C2          2.5684    0.1704   -1.2701 C.3       1 <0>         0.0227
      4 C3          2.4894    1.0428   -0.0156 C.3       1 <0>        -0.6234
      5 H1          3.2354    1.8355   -0.1740 H         1 <0>         0.1339
      6 C4          1.1761    1.7818    0.0004 C.ar      1 <0>        -0.0758
      7 C5         -0.0126    1.0758    0.0080 C.ar      1 <0>        -0.1007
      8 C6         -1.2199    1.7491    0.0173 C.ar      1 <0>        -0.1260
      9 C7         -1.2404    3.1346    0.0298 C.ar      1 <0>         0.1348
     10 C8         -0.0440    3.8452    0.0218 C.ar      1 <0>         0.0591
     11 C9          1.1627    3.1641    0.0070 C.ar      1 <0>        -0.1577
     12 O1         -0.0590    5.2050    0.0287 O.3       1 <0>        -0.5186
     13 O2         -2.4272    3.7985    0.0443 O.3       1 <0>        -0.5059
     14 S1          2.6108   -0.0065    1.4592 S.o2      1 <0>         2.6238
     15 O3          3.7569   -0.8420    1.3724 O.2       1 <0>        -1.0492
     16 O4          2.3611    0.7617    2.6283 O.2       1 <0>        -1.0007
     17 O5          1.4276   -0.9587    1.3602 O.3       1 <0>        -1.0358
     18 H2          4.9256   -1.9264   -2.4649 H         1 <0>         0.1213
     19 H3          3.8960   -0.7746   -3.3815 H         1 <0>         0.1103
     20 H4          3.1415   -2.1348   -2.4830 H         1 <0>         0.1177
     21 H5          3.9124   -1.1752   -0.3829 H         1 <0>         0.4592
     22 H6          2.4948    0.8066   -2.1644 H         1 <0>         0.1234
     23 H7          1.7402   -0.5536   -1.2660 H         1 <0>         0.1378
     24 H8          0.0021   -0.0041    0.0020 H         1 <0>         0.1578
     25 H9         -2.1471    1.1953    0.0191 H         1 <0>         0.1399
     26 H10         2.0926    3.7132    0.0011 H         1 <0>         0.1267
     27 H11         0.8875    5.7655    0.0224 H         1 <0>         0.4379
     28 H12        -2.4421    4.8984    0.0542 H         1 <0>         0.4381
     29 H13         4.6669    0.1850   -1.2813 H         1 <0>         0.4402
@<TRIPOS>BOND
     1    1    2 1
     2    1   18 1
     3    1   19 1
     4    1   20 1
     5    2    3 1
     6    2   21 1
     7    2   29 1
     8    3    4 1
     9    3   22 1
    10    3   23 1
    11    4    5 1
    12    4    6 1
    13    4   14 1
    14    6   11 ar
    15    6    7 ar
    16    7    8 ar
    17    7   24 1
    18    8    9 ar
    19    8   25 1
    20    9   10 ar
    21    9   13 1
    22   10   11 ar
    23   10   12 1
    24   11   26 1
    25   12   27 1
    26   13   28 1
    27   14   15 2
    28   14   16 2
    29   14   17 1
@<TRIPOS>MOLECULE
ZINC28256107
   29    29     0     0     0
SMALL
USER_CHARGES
(1S)-1-(3,4-dihydroxyphenyl)-2-methylamino-ethanesulfonic acid
@<TRIPOS>ATOM
      1 C1         -2.3559   -6.8074   -1.4303 C.3       1 <0>        -0.0378
      2 N1         -1.1689   -6.2702   -0.7516 N.4       1 <0>        -0.5532
      3 C2         -1.1889   -4.8014   -0.7398 C.3       1 <0>         0.0227
      4 C3          0.0602   -4.2801   -0.0263 C.3       1 <0>        -0.6235
      5 H1         -0.0815   -4.5536    1.0297 H         1 <0>         0.1340
      6 C4          0.0397   -2.7733   -0.0141 C.ar      1 <0>        -0.0758
      7 C5          0.0184   -2.0742   -1.2067 C.ar      1 <0>        -0.1007
      8 C6         -0.0057   -0.6920   -1.2008 C.ar      1 <0>        -0.1260
      9 C7          0.0021   -0.0041    0.0020 C.ar      1 <0>         0.1348
     10 C8          0.0230   -0.7078    1.2023 C.ar      1 <0>         0.0592
     11 C9          0.0418   -2.0932    1.1894 C.ar      1 <0>        -0.1577
     12 O1          0.0255   -0.0372    2.3855 O.3       1 <0>        -0.5186
     13 O2         -0.0164    1.3557    0.0095 O.3       1 <0>        -0.5058
     14 S1          1.5411   -4.8577   -0.9002 S.o2      1 <0>         2.6237
     15 O3          2.7008   -4.2396   -0.3596 O.2       1 <0>        -1.0007
     16 O4          1.4869   -6.2667   -1.0769 O.2       1 <0>        -1.0492
     17 O5          1.4148   -4.2851   -2.3047 O.3       1 <0>        -1.0358
     18 H2         -2.3154   -7.9066   -1.4247 H         1 <0>         0.1213
     19 H3         -2.3790   -6.4466   -2.4692 H         1 <0>         0.1177
     20 H4         -3.2621   -6.4712   -0.9052 H         1 <0>         0.1103
     21 H5         -1.1458   -6.6310    0.2873 H         1 <0>         0.4402
     22 H6         -1.2038   -4.4266   -1.7739 H         1 <0>         0.1378
     23 H7         -2.0870   -4.4512   -0.2099 H         1 <0>         0.1235
     24 H8          0.0165   -2.6091   -2.1449 H         1 <0>         0.1578
     25 H9         -0.0265   -0.1483   -2.1337 H         1 <0>         0.1399
     26 H10         0.0585   -2.6418    2.1196 H         1 <0>         0.1267
     27 H11         0.0420   -0.5947    3.3336 H         1 <0>         0.4379
     28 H12        -0.0102    1.9006    0.9650 H         1 <0>         0.4381
     29 H13        -0.2627   -6.6064   -1.2767 H         1 <0>         0.4592
@<TRIPOS>BOND
     1    1    2 1
     2    1   18 1
     3    1   19 1
     4    1   20 1
     5    2    3 1
     6    2   21 1
     7    2   29 1
     8    3    4 1
     9    3   22 1
    10    3   23 1
    11    4    5 1
    12    4    6 1
    13    4   14 1
    14    6   11 ar
    15    6    7 ar
    16    7    8 ar
    17    7   24 1
    18    8    9 ar
    19    8   25 1
    20    9   10 ar
    21    9   13 1
    22   10   11 ar
    23   10   12 1
    24   11   26 1
    25   12   27 1
    26   13   28 1
    27   14   15 2
    28   14   16 2
    29   14   17 1
@<TRIPOS>MOLECULE
ZINC03917109
   63    66     0     0     0
SMALL
USER_CHARGES

@<TRIPOS>ATOM
      1 C1         -0.0173    1.4248    0.0099 C.3       1 <0>         0.0228
      2 O1          0.0021   -0.0041    0.0020 O.3       1 <0>        -0.3111
      3 C2          0.6063   -0.6076   -1.0566 C.ar      1 <0>         0.1291
      4 C3          1.1727    0.1584   -2.0619 C.ar      1 <0>        -0.2022
      5 C4          1.7862   -0.4565   -3.1379 C.ar      1 <0>        -0.0669
      6 C5          1.8369   -1.8361   -3.2138 C.ar      1 <0>        -0.1491
      7 C6          1.2745   -2.6077   -2.2144 C.ar      1 <0>        -0.0822
      8 C7          0.6620   -1.9977   -1.1294 C.ar      1 <0>         0.1088
      9 N1          0.0968   -2.7768   -0.1132 N.pl3     1 <0>        -0.6636
     10 C8         -1.3057   -3.2146   -0.1871 C.3       1 <0>         0.1216
     11 C9         -1.3569   -4.7253    0.0636 C.3       1 <0>        -0.0220
     12 N2         -0.6925   -5.0320    1.3366 N.4       1 <0>        -0.3806
     13 C10         0.7338   -4.6939    1.2505 C.3       1 <0>        -0.0274
     14 C11         0.8902   -3.1864    1.0559 C.3       1 <0>         0.1218
     15 C12        -0.8376   -6.4641    1.6301 C.3       1 <0>        -0.0087
     16 C13        -0.2558   -6.7628    3.0132 C.3       1 <0>        -0.1461
     17 C14        -0.4069   -8.2543    3.3189 C.3       1 <0>        -0.1300
     18 C15         0.1750   -8.5530    4.7020 C.3       1 <0>         0.1193
     19 N3          0.0302   -9.9811    4.9947 N.am      1 <0>        -0.7331
     20 C16         0.4752  -10.4775    6.1660 C.2       1 <0>         0.5643
     21 O2          0.9967   -9.7401    6.9797 O.2       1 <0>        -0.5315
     22 C17         0.3293  -11.9181    6.4612 C.ar      1 <0>        -0.1484
     23 C18        -0.2697  -12.7675    5.5136 C.ar      1 <0>        -0.0967
     24 C19        -0.4150  -14.0939    5.7614 C.ar      1 <0>        -0.1051
     25 C20         0.0356  -14.6361    6.9791 C.ar      1 <0>        -0.0320
     26 C21        -0.1038  -16.0058    7.2582 C.ar      1 <0>        -0.1147
     27 C22         0.3421  -16.5017    8.4450 C.ar      1 <0>        -0.0983
     28 C23         0.9368  -15.6705    9.3925 C.ar      1 <0>        -0.1143
     29 C24         1.0892  -14.3386    9.1579 C.ar      1 <0>        -0.0963
     30 C25         0.6411  -13.7901    7.9427 C.ar      1 <0>        -0.0651
     31 C26         0.7884  -12.4225    7.6665 C.ar      1 <0>        -0.0245
     32 H1          1.0053    1.8021    0.0021 H         1 <0>         0.0589
     33 H2         -0.5445    1.7859   -0.8732 H         1 <0>         0.0589
     34 H3         -0.5275    1.7763    0.9067 H         1 <0>         0.1037
     35 H4          1.1348    1.2363   -2.0057 H         1 <0>         0.1341
     36 H5          2.2267    0.1425   -3.9212 H         1 <0>         0.1320
     37 H6          2.3168   -2.3119   -4.0562 H         1 <0>         0.1305
     38 H7          1.3151   -3.6852   -2.2764 H         1 <0>         0.1264
     39 H8         -1.8914   -2.6971    0.5728 H         1 <0>         0.0778
     40 H9         -1.7068   -2.9936   -1.1762 H         1 <0>         0.1138
     41 H10        -2.3961   -5.0513    0.1082 H         1 <0>         0.1357
     42 H11        -0.8470   -5.2457   -0.7471 H         1 <0>         0.1295
     43 H12         1.2353   -4.9969    2.1697 H         1 <0>         0.1375
     44 H13         1.1804   -5.2153    0.4039 H         1 <0>         0.1298
     45 H14         1.9402   -2.9468    0.8881 H         1 <0>         0.1137
     46 H15         0.5300   -2.6661    1.9434 H         1 <0>         0.0774
     47 H16        -1.8938   -6.7330    1.6144 H         1 <0>         0.1318
     48 H17        -0.3036   -7.0450    0.8781 H         1 <0>         0.1294
     49 H18         0.8004   -6.4939    3.0289 H         1 <0>         0.0916
     50 H19        -0.7898   -6.1819    3.7652 H         1 <0>         0.0922
     51 H20        -1.4631   -8.5232    3.3032 H         1 <0>         0.0826
     52 H21         0.1271   -8.8352    2.5669 H         1 <0>         0.0820
     53 H22         1.2312   -8.2841    4.7177 H         1 <0>         0.0723
     54 H23        -0.3590   -7.9721    5.4540 H         1 <0>         0.0726
     55 H24        -0.3859  -10.5695    4.3454 H         1 <0>         0.4021
     56 H25        -0.6188  -12.3588    4.5768 H         1 <0>         0.1223
     57 H26        -0.8770  -14.7335    5.0239 H         1 <0>         0.1343
     58 H27        -0.5632  -16.6627    6.5343 H         1 <0>         0.1320
     59 H28         0.2331  -17.5553    8.6557 H         1 <0>         0.1293
     60 H29         1.2814  -16.0892   10.3264 H         1 <0>         0.1298
     61 H30         1.5515  -13.7060    9.9012 H         1 <0>         0.1331
     62 H31         1.2517  -11.7677    8.3897 H         1 <0>         0.1429
     63 H32        -1.1202   -4.4947    2.0759 H         1 <0>         0.4226
@<TRIPOS>BOND
     1    1    2 1
     2    1   32 1
     3    1   33 1
     4    1   34 1
     5    2    3 1
     6    3    8 ar
     7    3    4 ar
     8    4    5 ar
     9    4   35 1
    10    5    6 ar
    11    5   36 1
    12    6    7 ar
    13    6   37 1
    14    7    8 ar
    15    7   38 1
    16    8    9 1
    17    9   14 1
    18    9   10 1
    19   10   11 1
    20   10   39 1
    21   10   40 1
    22   11   12 1
    23   11   41 1
    24   11   42 1
    25   12   13 1
    26   12   15 1
    27   12   63 1
    28   13   14 1
    29   13   43 1
    30   13   44 1
    31   14   45 1
    32   14   46 1
    33   15   16 1
    34   15   47 1
    35   15   48 1
    36   16   17 1
    37   16   49 1
    38   16   50 1
    39   17   18 1
    40   17   51 1
    41   17   52 1
    42   18   19 1
    43   18   53 1
    44   18   54 1
    45   19   20 am
    46   19   55 1
    47   20   21 2
    48   20   22 1
    49   22   31 ar
    50   22   23 ar
    51   23   24 ar
    52   23   56 1
    53   24   25 ar
    54   24   57 1
    55   25   30 ar
    56   25   26 ar
    57   26   27 ar
    58   26   58 1
    59   27   28 ar
    60   27   59 1
    61   28   29 ar
    62   28   60 1
    63   29   30 ar
    64   29   61 1
    65   30   31 ar
    66   31   62 1
@<TRIPOS>MOLECULE
ZINC03917109
   62    65     0     0     0
SMALL
USER_CHARGES

@<TRIPOS>ATOM
      1 C1         -0.0173    1.4248    0.0099 C.3       1 <0>         0.0251
      2 O1          0.0021   -0.0041    0.0020 O.3       1 <0>        -0.3039
      3 C2         -1.2013   -0.6380    0.0101 C.ar      1 <0>         0.1197
      4 C3         -2.3740    0.0989    0.0195 C.ar      1 <0>        -0.2065
      5 C4         -3.5967   -0.5469    0.0283 C.ar      1 <0>        -0.0836
      6 C5         -3.6532   -1.9283    0.0271 C.ar      1 <0>        -0.1523
      7 C6         -2.4875   -2.6710    0.0173 C.ar      1 <0>        -0.0882
      8 C7         -1.2572   -2.0300    0.0032 C.ar      1 <0>         0.1390
      9 N1         -0.0754   -2.7797   -0.0127 N.pl3     1 <0>        -0.6683
     10 C8          0.5713   -3.1961    1.2410 C.3       1 <0>         0.1532
     11 C9          0.8354   -4.7041    1.1750 C.3       1 <0>         0.0416
     12 N2          1.5913   -5.0126   -0.0462 N.3       1 <0>        -0.5348
     13 C10         0.8175   -4.6811   -1.2500 C.3       1 <0>         0.0379
     14 C11         0.5494   -3.1773   -1.2834 C.3       1 <0>         0.1529
     15 C12         2.0135   -6.4196   -0.0626 C.3       1 <0>         0.0570
     16 C13         2.9994   -6.6428   -1.2111 C.3       1 <0>        -0.1132
     17 C14         3.4391   -8.1081   -1.2283 C.3       1 <0>        -0.1303
     18 C15         4.4250   -8.3314   -2.3768 C.3       1 <0>         0.1194
     19 N3          4.8460   -9.7345   -2.3932 N.am      1 <0>        -0.7276
     20 C16         5.7188  -10.1653   -3.3255 C.2       1 <0>         0.5586
     21 O2          6.1567   -9.3896   -4.1527 O.2       1 <0>        -0.5351
     22 C17         6.1435  -11.5806   -3.3420 C.ar      1 <0>        -0.1394
     23 C18         5.6291  -12.4748   -2.3860 C.ar      1 <0>        -0.0931
     24 C19         6.0037  -13.7793   -2.3806 C.ar      1 <0>        -0.1083
     25 C20         6.9183  -14.2530   -3.3393 C.ar      1 <0>        -0.0339
     26 C21         7.3209  -15.5988   -3.3538 C.ar      1 <0>        -0.1133
     27 C22         8.2070  -16.0282   -4.2939 C.ar      1 <0>        -0.1034
     28 C23         8.7244  -15.1520   -5.2462 C.ar      1 <0>        -0.1183
     29 C24         8.3580  -13.8415   -5.2638 C.ar      1 <0>        -0.0955
     30 C25         7.4441  -13.3613   -4.3084 C.ar      1 <0>        -0.0641
     31 C26         7.0406  -12.0176   -4.3023 C.ar      1 <0>        -0.0303
     32 H1          1.0053    1.8021    0.0021 H         1 <0>         0.0993
     33 H2         -0.5445    1.7859   -0.8732 H         1 <0>         0.0537
     34 H3         -0.5275    1.7763    0.9067 H         1 <0>         0.0537
     35 H4         -2.3335    1.1781    0.0204 H         1 <0>         0.1277
     36 H5         -4.5101    0.0293    0.0363 H         1 <0>         0.1245
     37 H6         -4.6104   -2.4284    0.0343 H         1 <0>         0.1238
     38 H7         -2.5344   -3.7500    0.0168 H         1 <0>         0.1249
     39 H8          1.5150   -2.6639    1.3604 H         1 <0>         0.0581
     40 H9         -0.0855   -2.9758    2.0825 H         1 <0>         0.0690
     41 H10         1.4125   -5.0108    2.0473 H         1 <0>         0.0793
     42 H11        -0.1140   -5.2393    1.1600 H         1 <0>         0.0339
     43 H12         1.3817   -4.9710   -2.1364 H         1 <0>         0.0831
     44 H13        -0.1317   -5.2166   -1.2312 H         1 <0>         0.0333
     45 H14        -0.1219   -2.9447   -2.1101 H         1 <0>         0.0686
     46 H15         1.4910   -2.6433   -1.4113 H         1 <0>         0.0577
     47 H16         2.4960   -6.6652    0.8834 H         1 <0>         0.0748
     48 H17         1.1418   -7.0588   -0.2026 H         1 <0>         0.0322
     49 H18         2.5169   -6.3971   -2.1571 H         1 <0>         0.0668
     50 H19         3.8711   -6.0035   -1.0711 H         1 <0>         0.0766
     51 H20         3.9216   -8.3538   -0.2823 H         1 <0>         0.0712
     52 H21         2.5674   -8.7474   -1.3683 H         1 <0>         0.0684
     53 H22         3.9425   -8.0857   -3.3228 H         1 <0>         0.0696
     54 H23         5.2967   -7.6921   -2.2368 H         1 <0>         0.0713
     55 H24         4.4966  -10.3534   -1.7332 H         1 <0>         0.4001
     56 H25         4.9272  -12.1188   -1.6463 H         1 <0>         0.1252
     57 H26         5.6001  -14.4539   -1.6401 H         1 <0>         0.1336
     58 H27         6.9294  -16.2899   -2.6219 H         1 <0>         0.1303
     59 H28         8.5140  -17.0636   -4.3016 H         1 <0>         0.1266
     60 H29         9.4265  -15.5182   -5.9806 H         1 <0>         0.1272
     61 H30         8.7671  -13.1735   -6.0073 H         1 <0>         0.1318
     62 H31         7.4298  -11.3288   -5.0374 H         1 <0>         0.1429
@<TRIPOS>BOND
     1    1    2 1
     2    1   32 1
     3    1   33 1
     4    1   34 1
     5    2    3 1
     6    3    8 ar
     7    3    4 ar
     8    4    5 ar
     9    4   35 1
    10    5    6 ar
    11    5   36 1
    12    6    7 ar
    13    6   37 1
    14    7    8 ar
    15    7   38 1
    16    8    9 1
    17    9   14 1
    18    9   10 1
    19   10   11 1
    20   10   39 1
    21   10   40 1
    22   11   12 1
    23   11   41 1
    24   11   42 1
    25   12   13 1
    26   12   15 1
    27   13   14 1
    28   13   43 1
    29   13   44 1
    30   14   45 1
    31   14   46 1
    32   15   16 1
    33   15   47 1
    34   15   48 1
    35   16   17 1
    36   16   49 1
    37   16   50 1
    38   17   18 1
    39   17   51 1
    40   17   52 1
    41   18   19 1
    42   18   53 1
    43   18   54 1
    44   19   20 am
    45   19   55 1
    46   20   21 2
    47   20   22 1
    48   22   31 ar
    49   22   23 ar
    50   23   24 ar
    51   23   56 1
    52   24   25 ar
    53   24   57 1
    54   25   30 ar
    55   25   26 ar
    56   26   27 ar
    57   26   58 1
    58   27   28 ar
    59   27   59 1
    60   28   29 ar
    61   28   60 1
    62   29   30 ar
    63   29   61 1
    64   30   31 ar
    65   31   62 1
@<TRIPOS>MOLECULE
ZINC02169422
   49    51     0     0     0
SMALL
USER_CHARGES

@<TRIPOS>ATOM
      1 C1         -0.0173    1.4248    0.0099 C.3       1 <0>         0.0220
      2 O1          0.0021   -0.0041    0.0020 O.3       1 <0>        -0.3158
      3 C2          0.6263   -0.6188    1.0422 C.ar      1 <0>         0.1556
      4 C3          1.2023    0.1379    2.0514 C.ar      1 <0>        -0.2329
      5 C4          1.8370   -0.4860    3.1091 C.ar      1 <0>        -0.0259
      6 C5          1.9002   -1.8657    3.1656 C.ar      1 <0>        -0.2322
      7 C6          1.3266   -2.6296    2.1604 C.ar      1 <0>         0.1603
      8 C7          0.6826   -2.0063    1.0982 C.ar      1 <0>         0.0101
      9 O2          0.1135   -2.7526    0.1126 O.3       1 <0>        -0.3151
     10 C8          0.9387   -3.0899   -1.0043 C.3       1 <0>         0.0248
     11 C9          0.1318   -3.9245   -2.0009 C.3       1 <0>         0.0027
     12 N1         -0.9570   -3.1085   -2.5546 N.4       1 <0>        -0.5070
     13 C10        -1.7317   -3.9098   -3.5115 C.3       1 <0>         0.0060
     14 C11        -2.8656   -3.0599   -4.0881 C.3       1 <0>         0.0197
     15 H1         -2.4506   -2.1903   -4.5978 H         1 <0>         0.1086
     16 C12        -3.6875   -3.8964   -5.0780 C.3       1 <0>         0.0336
     17 O3         -4.7457   -3.0771   -5.5867 O.3       1 <0>        -0.2940
     18 C13        -5.4491   -2.3511   -4.6753 C.ar      1 <0>         0.0502
     19 C14        -6.6865   -1.8324   -5.0268 C.ar      1 <0>        -0.1085
     20 C15        -7.4109   -1.0903   -4.1134 C.ar      1 <0>        -0.1000
     21 C16        -6.9048   -0.8632   -2.8471 C.ar      1 <0>        -0.1093
     22 C17        -5.6732   -1.3784   -2.4899 C.ar      1 <0>        -0.1051
     23 C18        -4.9414   -2.1250   -3.4015 C.ar      1 <0>         0.0395
     24 O4         -3.7333   -2.6322   -3.0325 O.3       1 <0>        -0.3160
     25 O5          1.3897   -3.9870    2.2166 O.3       1 <0>        -0.3070
     26 C19         2.0623   -4.5592    3.3400 C.3       1 <0>         0.0218
     27 H2          1.0053    1.8021    0.0021 H         1 <0>         0.0625
     28 H3         -0.5445    1.7859   -0.8732 H         1 <0>         0.1060
     29 H4         -0.5275    1.7763    0.9067 H         1 <0>         0.0643
     30 H5          1.1554    1.2161    2.0107 H         1 <0>         0.1408
     31 H6          2.2850    0.1061    3.8934 H         1 <0>         0.1398
     32 H7          2.3972   -2.3494    3.9934 H         1 <0>         0.1417
     33 H8          1.2835   -2.1771   -1.4901 H         1 <0>         0.0771
     34 H9          1.7981   -3.6654   -0.6604 H         1 <0>         0.1012
     35 H10         0.7840   -4.2565   -2.8087 H         1 <0>         0.1485
     36 H11        -0.2873   -4.7927   -1.4923 H         1 <0>         0.1435
     37 H12        -1.5607   -2.8012   -1.8068 H         1 <0>         0.4445
     38 H13        -1.0795   -4.2418   -4.3193 H         1 <0>         0.1556
     39 H14        -2.1508   -4.7780   -3.0028 H         1 <0>         0.1460
     40 H15        -3.0503   -4.2255   -5.8989 H         1 <0>         0.1319
     41 H16        -4.1068   -4.7633   -4.5672 H         1 <0>         0.0891
     42 H17        -7.0840   -2.0082   -6.0155 H         1 <0>         0.1416
     43 H18        -8.3743   -0.6875   -4.3892 H         1 <0>         0.1408
     44 H19        -7.4727   -0.2818   -2.1359 H         1 <0>         0.1399
     45 H20        -5.2800   -1.1994   -1.5001 H         1 <0>         0.1376
     46 H21         2.0404   -5.6461    3.2617 H         1 <0>         0.1081
     47 H22         3.0971   -4.2169    3.3570 H         1 <0>         0.0620
     48 H23         1.5626   -4.2509    4.2584 H         1 <0>         0.0634
     49 H24        -0.5690   -2.3048   -3.0254 H         1 <0>         0.4279
@<TRIPOS>BOND
     1    1    2 1
     2    1   27 1
     3    1   28 1
     4    1   29 1
     5    2    3 1
     6    3    8 ar
     7    3    4 ar
     8    4    5 ar
     9    4   30 1
    10    5    6 ar
    11    5   31 1
    12    6    7 ar
    13    6   32 1
    14    7    8 ar
    15    7   25 1
    16    8    9 1
    17    9   10 1
    18   10   11 1
    19   10   33 1
    20   10   34 1
    21   11   12 1
    22   11   35 1
    23   11   36 1
    24   12   13 1
    25   12   37 1
    26   12   49 1
    27   13   14 1
    28   13   38 1
    29   13   39 1
    30   14   15 1
    31   14   24 1
    32   14   16 1
    33   16   17 1
    34   16   40 1
    35   16   41 1
    36   17   18 1
    37   18   23 ar
    38   18   19 ar
    39   19   20 ar
    40   19   42 1
    41   20   21 ar
    42   20   43 1
    43   21   22 ar
    44   21   44 1
    45   22   23 ar
    46   22   45 1
    47   23   24 1
    48   25   26 1
    49   26   46 1
    50   26   47 1
    51   26   48 1
@<TRIPOS>MOLECULE
ZINC02169424
   49    51     0     0     0
SMALL
USER_CHARGES

@<TRIPOS>ATOM
      1 C1         -0.0173    1.4248    0.0099 C.3       1 <0>         0.0220
      2 O1          0.0021   -0.0041    0.0020 O.3       1 <0>        -0.3161
      3 C2          0.6263   -0.6188    1.0422 C.ar      1 <0>         0.1555
      4 C3          1.2023    0.1379    2.0514 C.ar      1 <0>        -0.2328
      5 C4          1.8370   -0.4860    3.1091 C.ar      1 <0>        -0.0256
      6 C5          1.9002   -1.8657    3.1656 C.ar      1 <0>        -0.2321
      7 C6          1.3266   -2.6296    2.1604 C.ar      1 <0>         0.1604
      8 C7          0.6826   -2.0063    1.0982 C.ar      1 <0>         0.0097
      9 O2          0.1135   -2.7526    0.1126 O.3       1 <0>        -0.3164
     10 C8          0.9387   -3.0899   -1.0043 C.3       1 <0>         0.0247
     11 C9          0.1318   -3.9245   -2.0009 C.3       1 <0>         0.0033
     12 N1         -0.9570   -3.1085   -2.5546 N.4       1 <0>        -0.5074
     13 C10        -1.7317   -3.9098   -3.5115 C.3       1 <0>         0.0060
     14 C11        -2.8656   -3.0599   -4.0881 C.3       1 <0>         0.0198
     15 H1         -3.4690   -2.6528   -3.2767 H         1 <0>         0.1089
     16 C12        -3.7445   -3.9223   -5.0040 C.3       1 <0>         0.0338
     17 O3         -4.7846   -3.0948   -5.5364 O.3       1 <0>        -0.2938
     18 C13        -4.4107   -1.8796   -6.0222 C.ar      1 <0>         0.0506
     19 C14        -5.2702   -1.1893   -6.8640 C.ar      1 <0>        -0.1082
     20 C15        -4.9061    0.0471   -7.3627 C.ar      1 <0>        -0.0999
     21 C16        -3.6849    0.5995   -7.0236 C.ar      1 <0>        -0.1096
     22 C17        -2.8233   -0.0837   -6.1866 C.ar      1 <0>        -0.1058
     23 C18        -3.1817   -1.3259   -5.6843 C.ar      1 <0>         0.0388
     24 O4         -2.3191   -1.9901   -4.8670 O.3       1 <0>        -0.3164
     25 O5          1.3897   -3.9870    2.2166 O.3       1 <0>        -0.3071
     26 C19         2.0623   -4.5592    3.3400 C.3       1 <0>         0.0218
     27 H2          1.0053    1.8021    0.0021 H         1 <0>         0.0628
     28 H3         -0.5445    1.7859   -0.8732 H         1 <0>         0.1064
     29 H4         -0.5275    1.7763    0.9067 H         1 <0>         0.0642
     30 H5          1.1554    1.2161    2.0107 H         1 <0>         0.1409
     31 H6          2.2850    0.1061    3.8934 H         1 <0>         0.1399
     32 H7          2.3972   -2.3494    3.9934 H         1 <0>         0.1418
     33 H8          1.2835   -2.1771   -1.4901 H         1 <0>         0.0775
     34 H9          1.7981   -3.6654   -0.6604 H         1 <0>         0.1014
     35 H10         0.7840   -4.2565   -2.8087 H         1 <0>         0.1483
     36 H11        -0.2873   -4.7927   -1.4923 H         1 <0>         0.1439
     37 H12        -1.5607   -2.8012   -1.8068 H         1 <0>         0.4373
     38 H13        -1.0795   -4.2418   -4.3193 H         1 <0>         0.1463
     39 H14        -2.1508   -4.7780   -3.0028 H         1 <0>         0.1563
     40 H15        -3.1423   -4.3253   -5.8184 H         1 <0>         0.0892
     41 H16        -4.1822   -4.7395   -4.4306 H         1 <0>         0.1322
     42 H17        -6.2248   -1.6185   -7.1302 H         1 <0>         0.1418
     43 H18        -5.5768    0.5828   -8.0181 H         1 <0>         0.1409
     44 H19        -3.4037    1.5665   -7.4138 H         1 <0>         0.1399
     45 H20        -1.8699    0.3501   -5.9233 H         1 <0>         0.1368
     46 H21         2.0404   -5.6461    3.2617 H         1 <0>         0.1082
     47 H22         3.0971   -4.2169    3.3570 H         1 <0>         0.0621
     48 H23         1.5626   -4.2509    4.2584 H         1 <0>         0.0634
     49 H24        -0.5690   -2.3048   -3.0254 H         1 <0>         0.4346
@<TRIPOS>BOND
     1    1    2 1
     2    1   27 1
     3    1   28 1
     4    1   29 1
     5    2    3 1
     6    3    8 ar
     7    3    4 ar
     8    4    5 ar
     9    4   30 1
    10    5    6 ar
    11    5   31 1
    12    6    7 ar
    13    6   32 1
    14    7    8 ar
    15    7   25 1
    16    8    9 1
    17    9   10 1
    18   10   11 1
    19   10   33 1
    20   10   34 1
    21   11   12 1
    22   11   35 1
    23   11   36 1
    24   12   13 1
    25   12   37 1
    26   12   49 1
    27   13   14 1
    28   13   38 1
    29   13   39 1
    30   14   15 1
    31   14   24 1
    32   14   16 1
    33   16   17 1
    34   16   40 1
    35   16   41 1
    36   17   18 1
    37   18   23 ar
    38   18   19 ar
    39   19   20 ar
    40   19   42 1
    41   20   21 ar
    42   20   43 1
    43   21   22 ar
    44   21   44 1
    45   22   23 ar
    46   22   45 1
    47   23   24 1
    48   25   26 1
    49   26   46 1
    50   26   47 1
    51   26   48 1
@<TRIPOS>MOLECULE
ZINC00538314
   60    64     0     0     0
SMALL
USER_CHARGES

@<TRIPOS>ATOM
      1 C1         -0.0184    1.5028    0.0103 C.3       1 <0>        -0.1174
      2 C2          0.0021   -0.0041    0.0020 C.2       1 <0>         0.2445
      3 C3         -1.1751   -0.7216    0.0036 C.2       1 <0>        -0.3147
      4 C4         -1.1361   -2.1161   -0.0047 C.2       1 <0>         0.5359
      5 O1         -2.1756   -2.7567   -0.0037 O.2       1 <0>        -0.5241
      6 N1          0.0668   -2.7644   -0.0143 N.am      1 <0>        -0.4737
      7 C5          0.2679   -4.1238   -0.0236 C.2       1 <0>         0.0266
      8 C6          1.4978   -4.6373   -0.0325 C.2       1 <0>        -0.1636
      9 S1          2.5089   -3.1651   -0.0288 S.3       1 <0>         0.1803
     10 C7          1.1857   -1.9749   -0.0151 C.2       1 <0>         0.3350
     11 N2          1.1565   -0.6654   -0.0126 N.2       1 <0>        -0.4984
     12 C8         -2.4993   -0.0022    0.0147 C.3       1 <0>        -0.0635
     13 C9         -3.0147    0.1395   -1.4188 C.3       1 <0>        -0.0075
     14 N3         -4.3055    0.8408   -1.4080 N.4       1 <0>        -0.3819
     15 C10        -4.1121    2.2079   -0.9103 C.3       1 <0>        -0.0097
     16 C11        -5.4758    2.8853   -0.7337 C.3       1 <0>        -0.1045
     17 C12        -6.2228    2.7941   -2.0481 C.2       1 <0>        -0.1537
     18 C13        -6.8154    3.8677   -2.5843 C.2       1 <0>         0.0201
     19 C14        -7.5400    3.7487   -3.8726 C.ar      1 <0>        -0.0793
     20 C15        -6.8454    3.4297   -5.0384 C.ar      1 <0>        -0.0814
     21 C16        -7.5238    3.3196   -6.2346 C.ar      1 <0>        -0.1518
     22 C17        -8.8933    3.5256   -6.2784 C.ar      1 <0>         0.1146
     23 C18        -9.5877    3.8433   -5.1223 C.ar      1 <0>        -0.1473
     24 C19        -8.9186    3.9499   -3.9205 C.ar      1 <0>        -0.0659
     25 F1         -9.5535    3.4167   -7.4521 F         1 <0>        -0.1311
     26 C20        -6.7474    5.1762   -1.8900 C.ar      1 <0>        -0.0818
     27 C21        -7.3566    5.3406   -0.6469 C.ar      1 <0>        -0.0760
     28 C22        -7.2903    6.5596   -0.0045 C.ar      1 <0>        -0.1515
     29 C23        -6.6196    7.6197   -0.5929 C.ar      1 <0>         0.1154
     30 C24        -6.0130    7.4611   -1.8286 C.ar      1 <0>        -0.1500
     31 C25        -6.0692    6.2440   -2.4758 C.ar      1 <0>        -0.0670
     32 F2         -6.5572    8.8117    0.0399 F         1 <0>        -0.1311
     33 C26        -6.2752    1.4449   -2.7346 C.3       1 <0>        -0.1083
     34 C27        -4.8545    0.8700   -2.7688 C.3       1 <0>        -0.0019
     35 H1          1.0042    1.8801    0.0026 H         1 <0>         0.0964
     36 H2         -0.5455    1.8639   -0.8728 H         1 <0>         0.0880
     37 H3         -0.5286    1.8543    0.9071 H         1 <0>         0.0967
     38 H4         -0.5845   -4.7869   -0.0233 H         1 <0>         0.1919
     39 H5          1.8032   -5.6732   -0.0394 H         1 <0>         0.2293
     40 H6         -3.2174   -0.5721    0.6044 H         1 <0>         0.1000
     41 H7         -2.3717    0.9869    0.4545 H         1 <0>         0.0983
     42 H8         -2.2966    0.7094   -2.0085 H         1 <0>         0.1284
     43 H9         -3.1423   -0.8496   -1.8586 H         1 <0>         0.1316
     44 H10        -3.5955    2.1756    0.0490 H         1 <0>         0.1348
     45 H11        -3.5151    2.7739   -1.6255 H         1 <0>         0.1309
     46 H12        -6.0411    2.3760    0.0468 H         1 <0>         0.1010
     47 H13        -5.3343    3.9317   -0.4629 H         1 <0>         0.1205
     48 H14        -5.7779    3.2693   -5.0053 H         1 <0>         0.1324
     49 H15        -6.9865    3.0728   -7.1384 H         1 <0>         0.1419
     50 H16       -10.6551    4.0034   -5.1612 H         1 <0>         0.1431
     51 H17        -9.4614    4.1929   -3.0190 H         1 <0>         0.1358
     52 H18        -7.8799    4.5149   -0.1877 H         1 <0>         0.1352
     53 H19        -7.7622    6.6880    0.9585 H         1 <0>         0.1425
     54 H20        -5.4916    8.2902   -2.2837 H         1 <0>         0.1424
     55 H21        -5.5921    6.1199   -3.4367 H         1 <0>         0.1346
     56 H22        -6.9300    0.7743   -2.1783 H         1 <0>         0.1009
     57 H23        -6.6483    1.5640   -3.7518 H         1 <0>         0.1217
     58 H24        -4.2246    1.4954   -3.4014 H         1 <0>         0.1291
     59 H25        -4.8820   -0.1426   -3.1713 H         1 <0>         0.1328
     60 H26        -4.9458    0.3531   -0.7995 H         1 <0>         0.4242
@<TRIPOS>BOND
     1    1    2 1
     2    1   35 1
     3    1   36 1
     4    1   37 1
     5    2   11 1
     6    2    3 2
     7    3    4 1
     8    3   12 1
     9    4    5 2
    10    4    6 am
    11    6   10 1
    12    6    7 1
    13    7    8 2
    14    7   38 1
    15    8    9 1
    16    8   39 1
    17    9   10 1
    18   10   11 2
    19   12   13 1
    20   12   40 1
    21   12   41 1
    22   13   14 1
    23   13   42 1
    24   13   43 1
    25   14   34 1
    26   14   15 1
    27   14   60 1
    28   15   16 1
    29   15   44 1
    30   15   45 1
    31   16   17 1
    32   16   46 1
    33   16   47 1
    34   17   18 2
    35   17   33 1
    36   18   19 1
    37   18   26 1
    38   19   24 ar
    39   19   20 ar
    40   20   21 ar
    41   20   48 1
    42   21   22 ar
    43   21   49 1
    44   22   23 ar
    45   22   25 1
    46   23   24 ar
    47   23   50 1
    48   24   51 1
    49   26   31 ar
    50   26   27 ar
    51   27   28 ar
    52   27   52 1
    53   28   29 ar
    54   28   53 1
    55   29   30 ar
    56   29   32 1
    57   30   31 ar
    58   30   54 1
    59   31   55 1
    60   33   34 1
    61   33   56 1
    62   33   57 1
    63   34   58 1
    64   34   59 1
@<TRIPOS>MOLECULE
ZINC00643233
   56    59     0     0     0
SMALL
USER_CHARGES

@<TRIPOS>ATOM
      1 C1         -0.0167    1.3786    0.0096 C.ar      1 <0>        -0.1573
      2 C2          1.1695    2.0894    0.0021 C.ar      1 <0>        -0.0635
      3 C3          2.3774    1.4200   -0.0130 C.ar      1 <0>        -0.1784
      4 C4          2.3998    0.0311   -0.0206 C.ar      1 <0>         0.2317
      5 C5          1.2064   -0.6798   -0.0130 C.ar      1 <0>        -0.1988
      6 C6          0.0021   -0.0041    0.0020 C.ar      1 <0>        -0.0706
      7 N1          3.6196   -0.6492   -0.0363 N.pl3     1 <0>        -0.6334
      8 C7          4.9637   -0.0571   -0.0400 C.3       1 <0>         0.3326
      9 N2          5.9388   -1.1470   -0.0572 N.am      1 <0>        -0.7166
     10 C8          5.3099   -2.3344   -0.0641 C.2       1 <0>         0.5288
     11 O1          5.8532   -3.4187   -0.0778 O.2       1 <0>        -0.5133
     12 C9          3.8222   -2.1026   -0.0461 C.3       1 <0>         0.1361
     13 C10         3.1820   -2.7114   -1.2943 C.3       1 <0>        -0.1499
     14 C11         3.3480   -4.2326   -1.2552 C.3       1 <0>        -0.0132
     15 N3          2.7020   -4.7671   -0.0503 N.4       1 <0>        -0.3794
     16 C12         3.3698   -4.2457    1.1482 C.3       1 <0>        -0.0190
     17 C13         3.2050   -2.7250    1.2070 C.3       1 <0>        -0.1492
     18 C14         2.7905   -6.2335   -0.0591 C.3       1 <0>        -0.0094
     19 C15         2.0109   -6.7986    1.1299 C.3       1 <0>        -0.1425
     20 C16         2.1030   -8.3258    1.1207 C.3       1 <0>        -0.1654
     21 C17         1.3351   -8.8824    2.2919 C.2       1 <0>         0.4040
     22 O2          0.7698   -8.1316    3.0583 O.2       1 <0>        -0.4484
     23 C18         1.2712  -10.3355    2.5052 C.ar      1 <0>        -0.1962
     24 C19         1.9272  -11.2044    1.6259 C.ar      1 <0>        -0.0430
     25 C20         1.8634  -12.5650    1.8315 C.ar      1 <0>        -0.1669
     26 C21         1.1505  -13.0743    2.9070 C.ar      1 <0>         0.1434
     27 C22         0.4980  -12.2186    3.7823 C.ar      1 <0>        -0.1651
     28 C23         0.5590  -10.8557    3.5917 C.ar      1 <0>        -0.0262
     29 F1          1.0910  -14.4098    3.1025 F         1 <0>        -0.1261
     30 H1         -0.9598    1.9046    0.0260 H         1 <0>         0.1276
     31 H2          1.1513    3.1692    0.0077 H         1 <0>         0.1312
     32 H3          3.3034    1.9757   -0.0192 H         1 <0>         0.1257
     33 H4          1.2204   -1.7597   -0.0193 H         1 <0>         0.1144
     34 H5         -0.9261   -0.5561    0.0079 H         1 <0>         0.1276
     35 H6          5.0901    0.5643   -0.9265 H         1 <0>         0.0880
     36 H7          5.1025    0.5473    0.8564 H         1 <0>         0.0877
     37 H8          6.9016   -1.0295   -0.0627 H         1 <0>         0.4365
     38 H9          2.1214   -2.4613   -1.3183 H         1 <0>         0.1096
     39 H10         3.6706   -2.3147   -2.1843 H         1 <0>         0.1192
     40 H11         2.8858   -4.6710   -2.1397 H         1 <0>         0.1383
     41 H12         4.4090   -4.4817   -1.2391 H         1 <0>         0.1470
     42 H13         2.9238   -4.6937    2.0361 H         1 <0>         0.1399
     43 H14         4.4303   -4.4946    1.1101 H         1 <0>         0.1471
     44 H15         3.7099   -2.3380    2.0921 H         1 <0>         0.1189
     45 H16         2.1450   -2.4752    1.2532 H         1 <0>         0.1098
     46 H17         2.3668   -6.6175   -0.9870 H         1 <0>         0.1347
     47 H18         3.8354   -6.5348    0.0153 H         1 <0>         0.1347
     48 H19         2.4346   -6.4145    2.0578 H         1 <0>         0.0947
     49 H20         0.9660   -6.4972    1.0555 H         1 <0>         0.0950
     50 H21         1.6793   -8.7098    0.1928 H         1 <0>         0.1132
     51 H22         3.1479   -8.6271    1.1951 H         1 <0>         0.1132
     52 H23         2.4820  -10.8091    0.7879 H         1 <0>         0.1415
     53 H24         2.3692  -13.2366    1.1537 H         1 <0>         0.1468
     54 H25        -0.0554  -12.6215    4.6177 H         1 <0>         0.1475
     55 H26         0.0543  -10.1903    4.2765 H         1 <0>         0.1457
     56 H27         1.7315   -4.4913   -0.0400 H         1 <0>         0.4195
@<TRIPOS>BOND
     1    1    6 ar
     2    1    2 ar
     3    1   30 1
     4    2    3 ar
     5    2   31 1
     6    3    4 ar
     7    3   32 1
     8    4    5 ar
     9    4    7 1
    10    5    6 ar
    11    5   33 1
    12    6   34 1
    13    7   12 1
    14    7    8 1
    15    8    9 1
    16    8   35 1
    17    8   36 1
    18    9   10 am
    19    9   37 1
    20   10   11 2
    21   10   12 1
    22   12   17 1
    23   12   13 1
    24   13   14 1
    25   13   38 1
    26   13   39 1
    27   14   15 1
    28   14   40 1
    29   14   41 1
    30   15   16 1
    31   15   18 1
    32   15   56 1
    33   16   17 1
    34   16   42 1
    35   16   43 1
    36   17   44 1
    37   17   45 1
    38   18   19 1
    39   18   46 1
    40   18   47 1
    41   19   20 1
    42   19   48 1
    43   19   49 1
    44   20   21 1
    45   20   50 1
    46   20   51 1
    47   21   22 2
    48   21   23 1
    49   23   28 ar
    50   23   24 ar
    51   24   25 ar
    52   24   52 1
    53   25   26 ar
    54   25   53 1
    55   26   27 ar
    56   26   29 1
    57   27   28 ar
    58   27   54 1
    59   28   55 1
@<TRIPOS>MOLECULE
ZINC00586739
   54    56     0     0     0
SMALL
USER_CHARGES
N-(1-benzyl-2-methyl-pyrrolidin-3-yl)-5-chloro-2-methoxy-4-methylamino-benzamide
@<TRIPOS>ATOM
      1 C1         -1.1218   -0.5578    0.8801 C.3       1 <0>        -0.1746
      2 C2          0.0021   -0.0041    0.0020 C.3       1 <0>         0.0172
      3 H1         -0.0902   -0.3799   -1.0170 H         1 <0>         0.1554
      4 C3         -0.0189    1.5396    0.0105 C.3       1 <0>         0.1337
      5 H2         -0.5264    1.9162   -0.8776 H         1 <0>         0.1365
      6 C4          1.4651    1.9606   -0.0014 C.3       1 <0>        -0.1609
      7 C5          2.2578    0.6360   -0.0161 C.3       1 <0>        -0.0038
      8 C6          1.7116   -1.7284    0.1847 C.3       1 <0>         0.0546
      9 C7          3.1499   -1.9708    0.5633 C.ar      1 <0>        -0.1594
     10 C8          4.1591   -1.6869   -0.3377 C.ar      1 <0>        -0.0940
     11 C9          5.4788   -1.9042    0.0115 C.ar      1 <0>        -0.1143
     12 C10         5.7887   -2.4162    1.2576 C.ar      1 <0>        -0.0839
     13 C11         4.7792   -2.7051    2.1567 C.ar      1 <0>        -0.1141
     14 C12         3.4598   -2.4824    1.8096 C.ar      1 <0>        -0.0930
     15 N1         -0.6780    2.0328    1.2223 N.am      1 <0>        -0.7419
     16 C13        -1.2543    3.2512    1.2275 C.2       1 <0>         0.5789
     17 O1         -1.2271    3.9411    0.2262 O.2       1 <0>        -0.5041
     18 C14        -1.9167    3.7469    2.4453 C.ar      1 <0>        -0.2409
     19 C15        -1.9494    2.9551    3.5985 C.ar      1 <0>         0.0092
     20 C16        -2.5635    3.4155    4.7278 C.ar      1 <0>        -0.1566
     21 C17        -3.1615    4.6754    4.7406 C.ar      1 <0>         0.3002
     22 C18        -3.1366    5.4728    3.6036 C.ar      1 <0>        -0.2956
     23 C19        -2.5125    5.0175    2.4552 C.ar      1 <0>         0.2497
     24 O2         -2.4810    5.7940    1.3430 O.3       1 <0>        -0.2767
     25 C20        -3.1083    7.0751    1.4281 C.3       1 <0>         0.0175
     26 N2         -3.7846    5.1353    5.8964 N.pl3     1 <0>        -0.7257
     27 C21        -4.4135    6.4583    5.9126 C.3       1 <0>         0.0795
     28 Cl1        -2.6006    2.4273    6.1547 Cl        1 <0>        -0.0614
     29 H3         -2.0835   -0.2139    0.4993 H         1 <0>         0.1119
     30 H4         -1.0929   -1.6473    0.8632 H         1 <0>         0.0883
     31 H5         -0.9898   -0.2067    1.9036 H         1 <0>         0.0765
     32 H6          1.6860    2.5439   -0.8953 H         1 <0>         0.1189
     33 H7          1.7031    2.5343    0.8943 H         1 <0>         0.1042
     34 H8          3.1556    0.7234    0.5959 H         1 <0>         0.1367
     35 H9          2.5186    0.3603   -1.0379 H         1 <0>         0.1332
     36 H10         1.0739   -2.4448    0.7026 H         1 <0>         0.1369
     37 H11         1.5940   -1.8495   -0.8922 H         1 <0>         0.1333
     38 H12         3.9167   -1.2914   -1.3131 H         1 <0>         0.1300
     39 H13         6.2676   -1.6783   -0.6908 H         1 <0>         0.1358
     40 H14         6.8195   -2.5902    1.5288 H         1 <0>         0.1353
     41 H15         5.0213   -3.1051    3.1303 H         1 <0>         0.1355
     42 H16         2.6711   -2.7084    2.5119 H         1 <0>         0.1304
     43 H17        -0.6997    1.4826    2.0208 H         1 <0>         0.3972
     44 H18        -1.4886    1.9784    3.5953 H         1 <0>         0.1335
     45 H19        -3.6003    6.4481    3.6168 H         1 <0>         0.1475
     46 H20        -3.0111    7.5914    0.4731 H         1 <0>         0.1088
     47 H21        -4.1643    6.9475    1.6664 H         1 <0>         0.0611
     48 H22        -2.6280    7.6636    2.2099 H         1 <0>         0.0608
     49 H23        -3.8027    4.5799    6.6914 H         1 <0>         0.4107
     50 H24        -3.6639    7.2196    5.6968 H         1 <0>         0.0632
     51 H25        -5.1984    6.4968    5.1571 H         1 <0>         0.0633
     52 H26        -4.8463    6.6429    6.8958 H         1 <0>         0.0859
     53 N3          1.3145   -0.3330    0.5533 N.4       1 <0>        -0.3946
     54 H27         1.2965   -0.2468    1.5763 H         1 <0>         0.4240
@<TRIPOS>BOND
     1    1    2 1
     2    1   29 1
     3    1   30 1
     4    1   31 1
     5    2    3 1
     6    2    4 1
     7    2   53 1
     8    4    5 1
     9    4    6 1
    10    4   15 1
    11    6    7 1
    12    6   32 1
    13    6   33 1
    14    7   34 1
    15    7   35 1
    16    7   53 1
    17    8    9 1
    18    8   36 1
    19    8   37 1
    20    8   53 1
    21    9   14 ar
    22    9   10 ar
    23   10   11 ar
    24   10   38 1
    25   11   12 ar
    26   11   39 1
    27   12   13 ar
    28   12   40 1
    29   13   14 ar
    30   13   41 1
    31   14   42 1
    32   15   16 am
    33   15   43 1
    34   16   17 2
    35   16   18 1
    36   18   23 ar
    37   18   19 ar
    38   19   20 ar
    39   19   44 1
    40   20   21 ar
    41   20   28 1
    42   21   22 ar
    43   21   26 1
    44   22   23 ar
    45   22   45 1
    46   23   24 1
    47   24   25 1
    48   25   46 1
    49   25   47 1
    50   25   48 1
    51   26   27 1
    52   26   49 1
    53   27   50 1
    54   27   51 1
    55   27   52 1
    56   53   54 1
@<TRIPOS>MOLECULE
ZINC00641741
   56    59     0     0     0
SMALL
USER_CHARGES
7-[3-[4-(2-methoxyphenyl)piperazin-1-yl]propyl]-5,7-diazabicyclo[3.3.0]octane-6,8-dione
@<TRIPOS>ATOM
      1 C1         -7.3012   11.9601   -0.6559 C.3       1 <0>         0.0204
      2 O1         -6.3891   10.9557   -1.1043 O.3       1 <0>        -0.2994
      3 C2         -5.2693   11.3816   -1.7482 C.ar      1 <0>         0.1645
      4 C3         -5.0533   12.7357   -1.9434 C.ar      1 <0>        -0.2028
      5 C4         -3.9139   13.1673   -2.5973 C.ar      1 <0>        -0.0623
      6 C5         -2.9875   12.2504   -3.0581 C.ar      1 <0>        -0.1460
      7 C6         -3.1932   10.8975   -2.8631 C.ar      1 <0>        -0.1060
      8 C7         -4.3365   10.4569   -2.2126 C.ar      1 <0>         0.0241
      9 N1         -4.5495    9.0872   -2.0182 N.pl3     1 <0>        -0.4812
     10 C8         -4.6128    8.3766   -3.3030 C.3       1 <0>         0.0294
     11 C9         -4.9251    6.8996   -3.0511 C.3       1 <0>         0.0045
     12 C10        -3.8247    7.0338   -0.8994 C.3       1 <0>         0.0001
     13 C11        -3.5123    8.5108   -1.1513 C.3       1 <0>         0.0309
     14 C12        -4.1115    4.8857   -1.9802 C.3       1 <0>         0.0015
     15 C13        -2.8919    4.2729   -1.2888 C.3       1 <0>        -0.1705
     16 C14        -3.1247    2.7757   -1.0764 C.3       1 <0>         0.1254
     17 N2         -1.9569    2.1890   -0.4143 N.am      1 <0>        -0.5887
     18 C15        -0.8874    1.6592   -1.0777 C.2       1 <0>         0.5323
     19 O2         -0.6724    1.6615   -2.2708 O.2       1 <0>        -0.4536
     20 C16        -0.0127    1.0858    0.0080 C.3       1 <0>         0.0405
     21 H1          0.0021   -0.0041    0.0020 H         1 <0>         0.1440
     22 C17         1.4024    1.6977   -0.0022 C.3       1 <0>        -0.1117
     23 C18         1.8038    1.6209    1.4940 C.3       1 <0>        -0.1382
     24 C19         0.4651    1.5362    2.2605 C.3       1 <0>         0.1554
     25 N3         -0.5966    1.6513    1.2541 N.am      1 <0>        -0.6322
     26 C20        -1.8094    2.0981    0.9167 C.2       1 <0>         0.7355
     27 O3         -2.6753    2.3878    1.7187 O.2       1 <0>        -0.5324
     28 H2         -8.1485   11.4863   -0.1602 H         1 <0>         0.1055
     29 H3         -6.7950   12.6239    0.0450 H         1 <0>         0.0589
     30 H4         -7.6560   12.5364   -1.5104 H         1 <0>         0.0590
     31 H5         -5.7749   13.4547   -1.5844 H         1 <0>         0.1382
     32 H6         -3.7472   14.2236   -2.7483 H         1 <0>         0.1339
     33 H7         -2.0989   12.5921   -3.5680 H         1 <0>         0.1307
     34 H8         -2.4659   10.1835   -3.2204 H         1 <0>         0.1239
     35 H9         -3.6540    8.4634   -3.8142 H         1 <0>         0.0622
     36 H10        -5.3961    8.8135   -3.9224 H         1 <0>         0.1242
     37 H11        -4.9439    6.3648   -4.0007 H         1 <0>         0.1363
     38 H12        -5.8964    6.8112   -2.5643 H         1 <0>         0.1419
     39 H13        -4.7834    6.9469   -0.3882 H         1 <0>         0.1428
     40 H14        -3.0411    6.5968   -0.2804 H         1 <0>         0.1333
     41 H15        -2.5410    8.5992   -1.6381 H         1 <0>         0.0615
     42 H16        -3.4935    9.0456   -0.2017 H         1 <0>         0.1231
     43 H17        -4.2639    4.4012   -2.9447 H         1 <0>         0.1355
     44 H18        -4.9938    4.7400   -1.3570 H         1 <0>         0.1387
     45 H19        -2.7395    4.7574   -0.3243 H         1 <0>         0.0943
     46 H20        -2.0096    4.4186   -1.9120 H         1 <0>         0.0923
     47 H21        -3.2771    2.2913   -2.0408 H         1 <0>         0.1055
     48 H22        -4.0070    2.6301   -0.4531 H         1 <0>         0.1094
     49 H23         2.0782    1.1025   -0.6163 H         1 <0>         0.1002
     50 H24         1.3758    2.7312   -0.3475 H         1 <0>         0.0788
     51 H25         2.4043    0.7305    1.6802 H         1 <0>         0.0948
     52 H26         2.3518    2.5167    1.7860 H         1 <0>         0.0894
     53 H27         0.3893    0.5789    2.7763 H         1 <0>         0.0867
     54 H28         0.3923    2.3539    2.9775 H         1 <0>         0.0882
     55 N4         -3.8635    6.3270   -2.1971 N.4       1 <0>        -0.3967
     56 H29        -2.9581    6.4426   -2.6674 H         1 <0>         0.4239
@<TRIPOS>BOND
     1    1    2 1
     2    1   28 1
     3    1   29 1
     4    1   30 1
     5    2    3 1
     6    3    8 ar
     7    3    4 ar
     8    4    5 ar
     9    4   31 1
    10    5    6 ar
    11    5   32 1
    12    6    7 ar
    13    6   33 1
    14    7    8 ar
    15    7   34 1
    16    8    9 1
    17    9   13 1
    18    9   10 1
    19   10   11 1
    20   10   35 1
    21   10   36 1
    22   11   37 1
    23   11   38 1
    24   11   55 1
    25   12   13 1
    26   12   39 1
    27   12   40 1
    28   12   55 1
    29   13   41 1
    30   13   42 1
    31   14   15 1
    32   14   43 1
    33   14   44 1
    34   14   55 1
    35   15   16 1
    36   15   45 1
    37   15   46 1
    38   16   17 1
    39   16   47 1
    40   16   48 1
    41   17   26 am
    42   17   18 am
    43   18   19 2
    44   18   20 1
    45   20   21 1
    46   20   25 1
    47   20   22 1
    48   22   23 1
    49   22   49 1
    50   22   50 1
    51   23   24 1
    52   23   51 1
    53   23   52 1
    54   24   25 1
    55   24   53 1
    56   24   54 1
    57   25   26 am
    58   26   27 2
    59   55   56 1
@<TRIPOS>MOLECULE
ZINC00641742
   56    59     0     0     0
SMALL
USER_CHARGES
7-[3-[4-(2-methoxyphenyl)piperazin-1-yl]propyl]-5,7-diazabicyclo[3.3.0]octane-6,8-dione
@<TRIPOS>ATOM
      1 C1         -9.1706   12.5282   -3.1655 C.3       1 <0>         0.0204
      2 O1         -8.6703   11.5244   -2.2800 O.3       1 <0>        -0.2994
      3 C2         -9.5866   10.8277   -1.5556 C.ar      1 <0>         0.1645
      4 C3        -10.9368   11.1037   -1.6945 C.ar      1 <0>        -0.2028
      5 C4        -11.8674   10.3939   -0.9581 C.ar      1 <0>        -0.0624
      6 C5        -11.4543    9.4076   -0.0817 C.ar      1 <0>        -0.1460
      7 C6        -10.1091    9.1227    0.0592 C.ar      1 <0>        -0.1060
      8 C7         -9.1695    9.8342   -0.6724 C.ar      1 <0>         0.0242
      9 N1         -7.8064    9.5510   -0.5279 N.pl3     1 <0>        -0.4813
     10 C8         -7.3682    9.7648    0.8584 C.3       1 <0>         0.0294
     11 C9         -5.8603    9.5220    0.9572 C.3       1 <0>         0.0047
     12 C10        -5.9956    7.9391   -0.8690 C.3       1 <0>        -0.0001
     13 C11        -7.5035    8.1819   -0.9677 C.3       1 <0>         0.0309
     14 C12        -4.1268    7.8556    0.6690 C.3       1 <0>         0.0018
     15 C13        -3.8896    6.3612    0.4422 C.3       1 <0>        -0.1716
     16 C14        -2.3996    6.0516    0.6002 C.3       1 <0>         0.1271
     17 N2         -2.1725    4.6207    0.3830 N.am      1 <0>        -0.5852
     18 C15        -2.2101    3.6860    1.3587 C.2       1 <0>         0.5272
     19 O2         -2.3877    3.8670    2.5442 O.2       1 <0>        -0.4590
     20 C16        -1.9843    2.3682    0.6571 C.3       1 <0>         0.0430
     21 H1         -2.8886    1.7615    0.6111 H         1 <0>         0.1404
     22 C17        -0.7818    1.6070    1.2445 C.3       1 <0>        -0.1145
     23 C18        -0.0127    1.0858    0.0080 C.3       1 <0>        -0.1399
     24 C19        -0.8061    1.6208   -1.2092 C.3       1 <0>         0.1588
     25 N3         -1.5126    2.7993   -0.6885 N.am      1 <0>        -0.6358
     26 C20        -1.9005    4.0691   -0.8117 C.2       1 <0>         0.7381
     27 O3         -1.9965    4.6545   -1.8725 O.2       1 <0>        -0.5312
     28 H2         -8.3375   13.0065   -3.6805 H         1 <0>         0.1055
     29 H3         -9.8346   12.0686   -3.8976 H         1 <0>         0.0589
     30 H4         -9.7215   13.2752   -2.5939 H         1 <0>         0.0590
     31 H5        -11.2628   11.8733   -2.3785 H         1 <0>         0.1382
     32 H6        -12.9197   10.6104   -1.0680 H         1 <0>         0.1339
     33 H7        -12.1847    8.8555    0.4911 H         1 <0>         0.1307
     34 H8         -9.7894    8.3488    0.7414 H         1 <0>         0.1239
     35 H9         -7.8921    9.0715    1.5164 H         1 <0>         0.0622
     36 H10        -7.5919   10.7890    1.1570 H         1 <0>         0.1240
     37 H11        -5.5380    9.6518    1.9903 H         1 <0>         0.1361
     38 H12        -5.3346   10.2333    0.3201 H         1 <0>         0.1418
     39 H13        -5.4718    8.6324   -1.5270 H         1 <0>         0.1427
     40 H14        -5.7719    6.9148   -1.1672 H         1 <0>         0.1342
     41 H15        -8.0289    7.4706   -0.3304 H         1 <0>         0.0616
     42 H16        -7.8262    8.0520   -2.0007 H         1 <0>         0.1233
     43 H17        -3.8041    8.1263    1.6744 H         1 <0>         0.1352
     44 H18        -3.5570    8.4290   -0.0622 H         1 <0>         0.1384
     45 H19        -4.2124    6.0906   -0.5631 H         1 <0>         0.0975
     46 H20        -4.4594    5.7878    1.1734 H         1 <0>         0.0919
     47 H21        -2.0769    6.3223    1.6055 H         1 <0>         0.1070
     48 H22        -1.8299    6.6250   -0.1310 H         1 <0>         0.1065
     49 H23        -1.1220    0.7739    1.8595 H         1 <0>         0.0977
     50 H24        -0.1527    2.2793    1.8279 H         1 <0>         0.0821
     51 H25         0.0021   -0.0041    0.0020 H         1 <0>         0.0977
     52 H26         1.0041    1.4784    0.0004 H         1 <0>         0.0840
     53 H27        -0.1263    1.9071   -2.0118 H         1 <0>         0.0942
     54 H28        -1.5178    0.8731   -1.5593 H         1 <0>         0.0896
     55 N4         -5.5722    8.1355    0.5333 N.4       1 <0>        -0.3967
     56 H29        -6.0953    7.4873    1.1338 H         1 <0>         0.4239
@<TRIPOS>BOND
     1    1    2 1
     2    1   28 1
     3    1   29 1
     4    1   30 1
     5    2    3 1
     6    3    8 ar
     7    3    4 ar
     8    4    5 ar
     9    4   31 1
    10    5    6 ar
    11    5   32 1
    12    6    7 ar
    13    6   33 1
    14    7    8 ar
    15    7   34 1
    16    8    9 1
    17    9   13 1
    18    9   10 1
    19   10   11 1
    20   10   35 1
    21   10   36 1
    22   11   37 1
    23   11   38 1
    24   11   55 1
    25   12   13 1
    26   12   39 1
    27   12   40 1
    28   12   55 1
    29   13   41 1
    30   13   42 1
    31   14   15 1
    32   14   43 1
    33   14   44 1
    34   14   55 1
    35   15   16 1
    36   15   45 1
    37   15   46 1
    38   16   17 1
    39   16   47 1
    40   16   48 1
    41   17   26 am
    42   17   18 am
    43   18   19 2
    44   18   20 1
    45   20   21 1
    46   20   25 1
    47   20   22 1
    48   22   23 1
    49   22   49 1
    50   22   50 1
    51   23   24 1
    52   23   51 1
    53   23   52 1
    54   24   25 1
    55   24   53 1
    56   24   54 1
    57   25   26 am
    58   26   27 2
    59   55   56 1
@<TRIPOS>MOLECULE
ZINC02183627
   55    58     0     0     0
SMALL
USER_CHARGES

@<TRIPOS>ATOM
      1 C1          1.2094   -0.6829   -0.0260 C.ar      1 <0>        -0.0559
      2 C2          2.3979    0.0209   -0.0345 C.ar      1 <0>        -0.1841
      3 C3          2.3816    1.4097   -0.0131 C.ar      1 <0>         0.2105
      4 C4          1.1691    2.0868    0.0169 C.ar      1 <0>        -0.1817
      5 C5         -0.0166    1.3770    0.0253 C.ar      1 <0>         0.0119
      6 C6          0.0038   -0.0070    0.0039 C.ar      1 <0>        -0.1486
      7 Cl1        -1.5329    2.2215    0.0634 Cl        1 <0>        -0.0536
      8 N1          3.5819    2.1238   -0.0212 N.pl3     1 <0>        -0.6431
      9 C7          3.5881    3.5917   -0.1177 C.3       1 <0>         0.0984
     10 C8          4.5524    4.0009   -1.2359 C.3       1 <0>        -0.0215
     11 N2          5.8707    3.4044   -0.9867 N.4       1 <0>        -0.3824
     12 C9          5.7793    1.9407   -1.0599 C.3       1 <0>        -0.0282
     13 C10         4.8756    1.4298    0.0728 C.3       1 <0>         0.1007
     14 C11         6.8225    3.8848   -1.9973 C.3       1 <0>        -0.0089
     15 C12         8.2229    3.3642   -1.6673 C.3       1 <0>        -0.1448
     16 C13         9.2142    3.8646   -2.7198 C.3       1 <0>        -0.1352
     17 C14        10.6145    3.3440   -2.3897 C.3       1 <0>         0.1204
     18 N3         11.5637    3.8232   -3.3975 N.am      1 <0>        -0.5841
     19 C15        11.8591    3.1630   -4.5397 C.2       1 <0>         0.5280
     20 O1         11.3516    2.1416   -4.9508 O.2       1 <0>        -0.4623
     21 C16        12.9538    3.9676   -5.1935 C.3       1 <0>         0.0406
     22 H1         13.9185    3.4628   -5.1428 H         1 <0>         0.1402
     23 C17        12.5971    4.3853   -6.6281 C.3       1 <0>        -0.1135
     24 C18        13.0573    5.8594   -6.7269 C.3       1 <0>        -0.1400
     25 C19        13.6053    6.1986   -5.3181 C.3       1 <0>         0.1587
     26 N4         12.9382    5.2345   -4.4140 N.am      1 <0>        -0.6353
     27 C20        12.2457    4.9763   -3.3059 C.2       1 <0>         0.7366
     28 O2         12.2349    5.6973   -2.3276 O.2       1 <0>        -0.5345
     29 H2          1.2219   -1.7626   -0.0473 H         1 <0>         0.1393
     30 H3          3.3391   -0.5082   -0.0575 H         1 <0>         0.1296
     31 H4          1.1530    3.1665    0.0341 H         1 <0>         0.1338
     32 H5         -0.9239   -0.5598    0.0102 H         1 <0>         0.1383
     33 H6          2.5846    3.9477   -0.3509 H         1 <0>         0.1269
     34 H7          3.9211    4.0195    0.8279 H         1 <0>         0.0905
     35 H8          4.1690    3.6483   -2.1935 H         1 <0>         0.1334
     36 H9          4.6432    5.0869   -1.2583 H         1 <0>         0.1423
     37 H10         5.3588    1.6505   -2.0227 H         1 <0>         0.1341
     38 H11         6.7742    1.5085   -0.9525 H         1 <0>         0.1430
     39 H12         5.3365    1.6430    1.0373 H         1 <0>         0.0908
     40 H13         4.7237    0.3558   -0.0344 H         1 <0>         0.1280
     41 H14         6.5225    3.5223   -2.9804 H         1 <0>         0.1309
     42 H15         6.8312    4.9748   -1.9990 H         1 <0>         0.1340
     43 H16         8.5229    3.7268   -0.6841 H         1 <0>         0.0940
     44 H17         8.2142    2.2743   -1.6655 H         1 <0>         0.0919
     45 H18         8.9141    3.5021   -3.7029 H         1 <0>         0.0808
     46 H19         9.2229    4.9546   -2.7215 H         1 <0>         0.0824
     47 H20        10.9146    3.7066   -1.4066 H         1 <0>         0.1024
     48 H21        10.6059    2.2541   -2.3880 H         1 <0>         0.0983
     49 H22        13.1352    3.7694   -7.3487 H         1 <0>         0.0983
     50 H23        11.5218    4.3106   -6.7901 H         1 <0>         0.0790
     51 H24        13.8437    5.9621   -7.4747 H         1 <0>         0.0982
     52 H25        12.2136    6.5047   -6.9713 H         1 <0>         0.0821
     53 H26        14.6841    6.0472   -5.2808 H         1 <0>         0.0916
     54 H27        13.3524    7.2234   -5.0460 H         1 <0>         0.0937
     55 H28         6.1929    3.6746   -0.0695 H         1 <0>         0.4235
@<TRIPOS>BOND
     1    1    6 ar
     2    1    2 ar
     3    1   29 1
     4    2    3 ar
     5    2   30 1
     6    3    4 ar
     7    3    8 1
     8    4    5 ar
     9    4   31 1
    10    5    6 ar
    11    5    7 1
    12    6   32 1
    13    8   13 1
    14    8    9 1
    15    9   10 1
    16    9   33 1
    17    9   34 1
    18   10   11 1
    19   10   35 1
    20   10   36 1
    21   11   12 1
    22   11   14 1
    23   11   55 1
    24   12   13 1
    25   12   37 1
    26   12   38 1
    27   13   39 1
    28   13   40 1
    29   14   15 1
    30   14   41 1
    31   14   42 1
    32   15   16 1
    33   15   43 1
    34   15   44 1
    35   16   17 1
    36   16   45 1
    37   16   46 1
    38   17   18 1
    39   17   47 1
    40   17   48 1
    41   18   27 am
    42   18   19 am
    43   19   20 2
    44   19   21 1
    45   21   22 1
    46   21   26 1
    47   21   23 1
    48   23   24 1
    49   23   49 1
    50   23   50 1
    51   24   25 1
    52   24   51 1
    53   24   52 1
    54   25   26 1
    55   25   53 1
    56   25   54 1
    57   26   27 am
    58   27   28 2
@<TRIPOS>MOLECULE
ZINC02183627
   54    57     0     0     0
SMALL
USER_CHARGES

@<TRIPOS>ATOM
      1 C1          1.2094   -0.6829   -0.0265 C.ar      1 <0>        -0.0564
      2 C2          2.3979    0.0209   -0.0351 C.ar      1 <0>        -0.1983
      3 C3          2.3816    1.4097   -0.0131 C.ar      1 <0>         0.2340
      4 C4          1.1691    2.0868    0.0175 C.ar      1 <0>        -0.1957
      5 C5         -0.0166    1.3770    0.0258 C.ar      1 <0>         0.0169
      6 C6          0.0038   -0.0070    0.0039 C.ar      1 <0>        -0.1730
      7 Cl1        -1.5329    2.2215    0.0645 Cl        1 <0>        -0.0715
      8 N1          3.5819    2.1238   -0.0212 N.pl3     1 <0>        -0.6277
      9 C7          3.5865    3.5914   -0.1178 C.3       1 <0>         0.1244
     10 C8          4.5350    4.0018   -1.2493 C.3       1 <0>         0.0404
     11 N2          5.8517    3.3898   -1.0263 N.3       1 <0>        -0.5364
     12 C9          5.7725    1.9237   -1.0721 C.3       1 <0>         0.0359
     13 C10         4.8746    1.4286    0.0728 C.3       1 <0>         0.1252
     14 C11         6.8370    3.8942   -1.9921 C.3       1 <0>         0.0572
     15 C12         8.2367    3.4337   -1.5805 C.3       1 <0>        -0.1118
     16 C13         9.2629    3.9590   -2.5864 C.3       1 <0>        -0.1341
     17 C14        10.6626    3.4984   -2.1747 C.3       1 <0>         0.1204
     18 N3         11.6452    4.0015   -3.1379 N.am      1 <0>        -0.5808
     19 C15        12.0267    3.3385   -4.2526 C.2       1 <0>         0.5257
     20 O1         11.5818    2.2927   -4.6745 O.2       1 <0>        -0.4642
     21 C16        13.1229    4.1771   -4.8596 C.3       1 <0>         0.0414
     22 H1         14.1023    3.7115   -4.7501 H         1 <0>         0.1364
     23 C17        12.8277    4.5616   -6.3172 C.3       1 <0>        -0.1138
     24 C18        13.2351    6.0513   -6.4138 C.3       1 <0>        -0.1397
     25 C19        13.6933    6.4303   -4.9833 C.3       1 <0>         0.1603
     26 N4         13.0165    5.4525   -4.1013 N.am      1 <0>        -0.6390
     27 C20        12.2761    5.1817   -3.0277 C.2       1 <0>         0.7373
     28 O2         12.1850    5.9145   -2.0624 O.2       1 <0>        -0.5328
     29 H2          1.2218   -1.7626   -0.0482 H         1 <0>         0.1312
     30 H3          3.3391   -0.5082   -0.0584 H         1 <0>         0.1281
     31 H4          1.1531    3.1665    0.0350 H         1 <0>         0.1322
     32 H5         -0.9239   -0.5598    0.0102 H         1 <0>         0.1295
     33 H6          2.5797    3.9471   -0.3368 H         1 <0>         0.0866
     34 H7          3.9324    4.0192    0.8232 H         1 <0>         0.0732
     35 H8          4.1323    3.6609   -2.2031 H         1 <0>         0.0389
     36 H9          4.6360    5.0870   -1.2636 H         1 <0>         0.0873
     37 H10         5.3526    1.6118   -2.0283 H         1 <0>         0.0392
     38 H11         6.7711    1.5018   -0.9579 H         1 <0>         0.0898
     39 H12         5.3419    1.6525    1.0318 H         1 <0>         0.0733
     40 H13         4.7198    0.3536   -0.0201 H         1 <0>         0.0877
     41 H14         6.6043    3.5073   -2.9842 H         1 <0>         0.0348
     42 H15         6.8035    4.9836   -2.0100 H         1 <0>         0.0774
     43 H16         8.4694    3.8206   -0.5884 H         1 <0>         0.0784
     44 H17         8.2702    2.3443   -1.5626 H         1 <0>         0.0673
     45 H18         9.0302    3.5721   -3.5785 H         1 <0>         0.0674
     46 H19         9.2294    5.0483   -2.6042 H         1 <0>         0.0709
     47 H20        10.8953    3.8854   -1.1826 H         1 <0>         0.1001
     48 H21        10.6961    2.4091   -2.1569 H         1 <0>         0.0951
     49 H22        13.4270    3.9581   -6.9989 H         1 <0>         0.0955
     50 H23        11.7663    4.4424   -6.5348 H         1 <0>         0.0800
     51 H24        14.0558    6.1752   -7.1203 H         1 <0>         0.0947
     52 H25        12.3813    6.6596   -6.7124 H         1 <0>         0.0813
     53 H26        14.7735    6.3221   -4.8865 H         1 <0>         0.0880
     54 H27        13.3866    7.4477   -4.7406 H         1 <0>         0.0916
@<TRIPOS>BOND
     1    1    6 ar
     2    1    2 ar
     3    1   29 1
     4    2    3 ar
     5    2   30 1
     6    3    4 ar
     7    3    8 1
     8    4    5 ar
     9    4   31 1
    10    5    6 ar
    11    5    7 1
    12    6   32 1
    13    8   13 1
    14    8    9 1
    15    9   10 1
    16    9   33 1
    17    9   34 1
    18   10   11 1
    19   10   35 1
    20   10   36 1
    21   11   12 1
    22   11   14 1
    23   12   13 1
    24   12   37 1
    25   12   38 1
    26   13   39 1
    27   13   40 1
    28   14   15 1
    29   14   41 1
    30   14   42 1
    31   15   16 1
    32   15   43 1
    33   15   44 1
    34   16   17 1
    35   16   45 1
    36   16   46 1
    37   17   18 1
    38   17   47 1
    39   17   48 1
    40   18   27 am
    41   18   19 am
    42   19   20 2
    43   19   21 1
    44   21   22 1
    45   21   26 1
    46   21   23 1
    47   23   24 1
    48   23   49 1
    49   23   50 1
    50   24   25 1
    51   24   51 1
    52   24   52 1
    53   25   26 1
    54   25   53 1
    55   25   54 1
    56   26   27 am
    57   27   28 2
@<TRIPOS>MOLECULE
ZINC02183628
   55    58     0     0     0
SMALL
USER_CHARGES

@<TRIPOS>ATOM
      1 C1          1.2094   -0.6829   -0.0260 C.ar      1 <0>        -0.0559
      2 C2          2.3979    0.0209   -0.0345 C.ar      1 <0>        -0.1842
      3 C3          2.3816    1.4097   -0.0131 C.ar      1 <0>         0.2106
      4 C4          1.1691    2.0868    0.0169 C.ar      1 <0>        -0.1817
      5 C5         -0.0166    1.3770    0.0253 C.ar      1 <0>         0.0119
      6 C6          0.0038   -0.0070    0.0039 C.ar      1 <0>        -0.1486
      7 Cl1        -1.5329    2.2215    0.0634 Cl        1 <0>        -0.0536
      8 N1          3.5819    2.1238   -0.0212 N.pl3     1 <0>        -0.6431
      9 C7          3.5881    3.5917   -0.1177 C.3       1 <0>         0.0984
     10 C8          4.5524    4.0009   -1.2359 C.3       1 <0>        -0.0215
     11 N2          5.8707    3.4044   -0.9867 N.4       1 <0>        -0.3823
     12 C9          5.7793    1.9407   -1.0599 C.3       1 <0>        -0.0282
     13 C10         4.8756    1.4298    0.0728 C.3       1 <0>         0.1007
     14 C11         6.8225    3.8848   -1.9973 C.3       1 <0>        -0.0090
     15 C12         8.2229    3.3642   -1.6673 C.3       1 <0>        -0.1447
     16 C13         9.2142    3.8646   -2.7198 C.3       1 <0>        -0.1360
     17 C14        10.6145    3.3440   -2.3897 C.3       1 <0>         0.1209
     18 N3         11.5637    3.8232   -3.3975 N.am      1 <0>        -0.5836
     19 C15        11.8589    3.1630   -4.5394 C.2       1 <0>         0.5280
     20 O1         11.4694    2.0653   -4.8760 O.2       1 <0>        -0.4614
     21 C16        12.7753    4.0827   -5.3054 C.3       1 <0>         0.0417
     22 H1         12.2963    4.5147   -6.1840 H         1 <0>         0.1411
     23 C17        14.1256    3.4153   -5.6347 C.3       1 <0>        -0.1132
     24 C18        15.0966    4.6249   -5.6404 C.3       1 <0>        -0.1383
     25 C19        14.3904    5.7050   -4.7911 C.3       1 <0>         0.1566
     26 N4         13.1448    5.1015   -4.2861 N.am      1 <0>        -0.6354
     27 C20        12.2453    4.9758   -3.3058 C.2       1 <0>         0.7359
     28 O2         12.0678    5.8038   -2.4340 O.2       1 <0>        -0.5338
     29 H2          1.2219   -1.7626   -0.0473 H         1 <0>         0.1392
     30 H3          3.3391   -0.5082   -0.0575 H         1 <0>         0.1296
     31 H4          1.1530    3.1665    0.0341 H         1 <0>         0.1338
     32 H5         -0.9239   -0.5598    0.0102 H         1 <0>         0.1382
     33 H6          2.5846    3.9477   -0.3509 H         1 <0>         0.1269
     34 H7          3.9211    4.0195    0.8279 H         1 <0>         0.0905
     35 H8          4.1690    3.6483   -2.1935 H         1 <0>         0.1335
     36 H9          4.6432    5.0869   -1.2583 H         1 <0>         0.1424
     37 H10         5.3588    1.6505   -2.0227 H         1 <0>         0.1342
     38 H11         6.7742    1.5085   -0.9525 H         1 <0>         0.1430
     39 H12         5.3365    1.6430    1.0373 H         1 <0>         0.0907
     40 H13         4.7237    0.3558   -0.0344 H         1 <0>         0.1279
     41 H14         6.5225    3.5223   -2.9804 H         1 <0>         0.1310
     42 H15         6.8312    4.9748   -1.9990 H         1 <0>         0.1345
     43 H16         8.5229    3.7268   -0.6841 H         1 <0>         0.0939
     44 H17         8.2142    2.2743   -1.6655 H         1 <0>         0.0916
     45 H18         8.9141    3.5021   -3.7029 H         1 <0>         0.0800
     46 H19         9.2229    4.9546   -2.7215 H         1 <0>         0.0852
     47 H20        10.9146    3.7066   -1.4066 H         1 <0>         0.0998
     48 H21        10.6059    2.2541   -2.3880 H         1 <0>         0.0996
     49 H22        14.4030    2.6987   -4.8617 H         1 <0>         0.0818
     50 H23        14.0941    2.9384   -6.6143 H         1 <0>         0.1000
     51 H24        16.0487    4.3488   -5.1873 H         1 <0>         0.0905
     52 H25        15.2499    4.9832   -6.6583 H         1 <0>         0.0938
     53 H26        15.0299    6.0054   -3.9610 H         1 <0>         0.0888
     54 H27        14.1495    6.5692   -5.4101 H         1 <0>         0.0850
     55 H28         6.1929    3.6746   -0.0695 H         1 <0>         0.4235
@<TRIPOS>BOND
     1    1    6 ar
     2    1    2 ar
     3    1   29 1
     4    2    3 ar
     5    2   30 1
     6    3    4 ar
     7    3    8 1
     8    4    5 ar
     9    4   31 1
    10    5    6 ar
    11    5    7 1
    12    6   32 1
    13    8   13 1
    14    8    9 1
    15    9   10 1
    16    9   33 1
    17    9   34 1
    18   10   11 1
    19   10   35 1
    20   10   36 1
    21   11   12 1
    22   11   14 1
    23   11   55 1
    24   12   13 1
    25   12   37 1
    26   12   38 1
    27   13   39 1
    28   13   40 1
    29   14   15 1
    30   14   41 1
    31   14   42 1
    32   15   16 1
    33   15   43 1
    34   15   44 1
    35   16   17 1
    36   16   45 1
    37   16   46 1
    38   17   18 1
    39   17   47 1
    40   17   48 1
    41   18   27 am
    42   18   19 am
    43   19   20 2
    44   19   21 1
    45   21   22 1
    46   21   26 1
    47   21   23 1
    48   23   24 1
    49   23   49 1
    50   23   50 1
    51   24   25 1
    52   24   51 1
    53   24   52 1
    54   25   26 1
    55   25   53 1
    56   25   54 1
    57   26   27 am
    58   27   28 2
@<TRIPOS>MOLECULE
ZINC02183628
   54    57     0     0     0
SMALL
USER_CHARGES

@<TRIPOS>ATOM
      1 C1          1.2094   -0.6829   -0.0265 C.ar      1 <0>        -0.0564
      2 C2          2.3979    0.0209   -0.0351 C.ar      1 <0>        -0.1983
      3 C3          2.3816    1.4097   -0.0131 C.ar      1 <0>         0.2341
      4 C4          1.1691    2.0868    0.0175 C.ar      1 <0>        -0.1957
      5 C5         -0.0166    1.3770    0.0258 C.ar      1 <0>         0.0169
      6 C6          0.0038   -0.0070    0.0039 C.ar      1 <0>        -0.1731
      7 Cl1        -1.5329    2.2215    0.0645 Cl        1 <0>        -0.0715
      8 N1          3.5819    2.1238   -0.0212 N.pl3     1 <0>        -0.6277
      9 C7          3.5865    3.5914   -0.1178 C.3       1 <0>         0.1244
     10 C8          4.5350    4.0018   -1.2493 C.3       1 <0>         0.0404
     11 N2          5.8517    3.3898   -1.0263 N.3       1 <0>        -0.5365
     12 C9          5.7725    1.9237   -1.0721 C.3       1 <0>         0.0359
     13 C10         4.8746    1.4286    0.0728 C.3       1 <0>         0.1252
     14 C11         6.8370    3.8942   -1.9921 C.3       1 <0>         0.0571
     15 C12         8.2367    3.4337   -1.5805 C.3       1 <0>        -0.1116
     16 C13         9.2629    3.9590   -2.5864 C.3       1 <0>        -0.1349
     17 C14        10.6626    3.4984   -2.1747 C.3       1 <0>         0.1209
     18 N3         11.6452    4.0015   -3.1379 N.am      1 <0>        -0.5803
     19 C15        12.0265    3.3385   -4.2523 C.2       1 <0>         0.5265
     20 O1         11.6984    2.2221   -4.5924 O.2       1 <0>        -0.4640
     21 C16        12.9464    4.2836   -4.9825 C.3       1 <0>         0.0420
     22 H1         12.4987    4.6849   -5.8918 H         1 <0>         0.1383
     23 C17        14.3372    3.6658   -5.2296 C.3       1 <0>        -0.1124
     24 C18        15.2595    4.9125   -5.2021 C.3       1 <0>        -0.1373
     25 C19        14.4675    5.9750   -4.4079 C.3       1 <0>         0.1582
     26 N4         13.2209    5.3295   -3.9606 N.am      1 <0>        -0.6396
     27 C20        12.2758    5.1812   -3.0276 C.2       1 <0>         0.7361
     28 O2         12.0199    6.0129   -2.1791 O.2       1 <0>        -0.5311
     29 H2          1.2218   -1.7626   -0.0482 H         1 <0>         0.1312
     30 H3          3.3391   -0.5082   -0.0584 H         1 <0>         0.1281
     31 H4          1.1531    3.1665    0.0350 H         1 <0>         0.1323
     32 H5         -0.9239   -0.5598    0.0102 H         1 <0>         0.1294
     33 H6          2.5797    3.9471   -0.3368 H         1 <0>         0.0866
     34 H7          3.9324    4.0192    0.8232 H         1 <0>         0.0731
     35 H8          4.1323    3.6609   -2.2031 H         1 <0>         0.0390
     36 H9          4.6360    5.0870   -1.2636 H         1 <0>         0.0874
     37 H10         5.3526    1.6118   -2.0283 H         1 <0>         0.0392
     38 H11         6.7711    1.5018   -0.9579 H         1 <0>         0.0898
     39 H12         5.3419    1.6525    1.0318 H         1 <0>         0.0732
     40 H13         4.7198    0.3536   -0.0201 H         1 <0>         0.0876
     41 H14         6.6043    3.5073   -2.9842 H         1 <0>         0.0348
     42 H15         6.8035    4.9836   -2.0100 H         1 <0>         0.0779
     43 H16         8.4694    3.8206   -0.5884 H         1 <0>         0.0783
     44 H17         8.2702    2.3443   -1.5626 H         1 <0>         0.0669
     45 H18         9.0302    3.5721   -3.5785 H         1 <0>         0.0666
     46 H19         9.2294    5.0483   -2.6042 H         1 <0>         0.0738
     47 H20        10.8953    3.8854   -1.1826 H         1 <0>         0.0974
     48 H21        10.6961    2.4091   -2.1569 H         1 <0>         0.0965
     49 H22        14.6003    2.9708   -4.4322 H         1 <0>         0.0812
     50 H23        14.3767    3.1753   -6.2022 H         1 <0>         0.0975
     51 H24        16.1959    4.6803   -4.6950 H         1 <0>         0.0877
     52 H25        15.4531    5.2633   -6.2158 H         1 <0>         0.0909
     53 H26        15.0494    6.3112   -3.5498 H         1 <0>         0.0862
     54 H27        14.2268    6.8209   -5.0518 H         1 <0>         0.0818
@<TRIPOS>BOND
     1    1    6 ar
     2    1    2 ar
     3    1   29 1
     4    2    3 ar
     5    2   30 1
     6    3    4 ar
     7    3    8 1
     8    4    5 ar
     9    4   31 1
    10    5    6 ar
    11    5    7 1
    12    6   32 1
    13    8   13 1
    14    8    9 1
    15    9   10 1
    16    9   33 1
    17    9   34 1
    18   10   11 1
    19   10   35 1
    20   10   36 1
    21   11   12 1
    22   11   14 1
    23   12   13 1
    24   12   37 1
    25   12   38 1
    26   13   39 1
    27   13   40 1
    28   14   15 1
    29   14   41 1
    30   14   42 1
    31   15   16 1
    32   15   43 1
    33   15   44 1
    34   16   17 1
    35   16   45 1
    36   16   46 1
    37   17   18 1
    38   17   47 1
    39   17   48 1
    40   18   27 am
    41   18   19 am
    42   19   20 2
    43   19   21 1
    44   21   22 1
    45   21   26 1
    46   21   23 1
    47   23   24 1
    48   23   49 1
    49   23   50 1
    50   24   25 1
    51   24   51 1
    52   24   52 1
    53   25   26 1
    54   25   53 1
    55   25   54 1
    56   26   27 am
    57   27   28 2
@<TRIPOS>MOLECULE
ZINC00000802
   49    51     0     0     0
SMALL
USER_CHARGES
1-[(3,4,5-trimethoxyphenyl)methyl]-1,2,3,4-tetrahydroisoquinoline-6,7-diol
@<TRIPOS>ATOM
      1 C1          5.1993    6.9705    5.7400 C.3       1 <0>         0.0226
      2 O1          5.1823    5.9507    6.7408 O.3       1 <0>        -0.2936
      3 C2          4.5674    4.7808    6.4198 C.ar      1 <0>         0.1626
      4 C3          3.9930    4.6190    5.1681 C.ar      1 <0>        -0.2591
      5 C4          3.3686    3.4301    4.8406 C.ar      1 <0>        -0.0513
      6 C5          3.3087    2.4002    5.7607 C.ar      1 <0>        -0.2210
      7 C6          3.8852    2.5521    7.0127 C.ar      1 <0>         0.1641
      8 C7          4.5143    3.7458    7.3457 C.ar      1 <0>         0.0415
      9 O2          5.0764    3.9008    8.5754 O.3       1 <0>        -0.3123
     10 C8          4.2424    4.4305    9.6079 C.3       1 <0>         0.0347
     11 O3          3.8305    1.5363    7.9153 O.3       1 <0>        -0.2943
     12 C9          3.1682    0.3385    7.5046 C.3       1 <0>         0.0213
     13 C10         2.7462    3.2584    3.4790 C.3       1 <0>        -0.0997
     14 C11         3.7839    2.6840    2.5126 C.3       1 <0>         0.0944
     15 H1          4.1827    1.7562    2.9228 H         1 <0>         0.1501
     16 C12         3.1257    2.3993    1.1877 C.ar      1 <0>        -0.1211
     17 C13         1.8633    1.8227    1.1902 C.ar      1 <0>        -0.1081
     18 C14         1.2237    1.5328   -0.0014 C.ar      1 <0>         0.0997
     19 C15         1.8468    1.8323   -1.2096 C.ar      1 <0>         0.1152
     20 C16         3.1021    2.4135   -1.2070 C.ar      1 <0>        -0.1198
     21 C17         3.7409    2.6988   -0.0091 C.ar      1 <0>        -0.0784
     22 C18         5.1034    3.3418   -0.0587 C.3       1 <0>        -0.1063
     23 C19         5.7996    3.1955    1.2945 C.3       1 <0>        -0.0003
     24 O4          1.2249    1.5544   -2.3866 O.3       1 <0>        -0.4865
     25 O5         -0.0110    0.9628    0.0073 O.3       1 <0>        -0.4860
     26 H2          5.7189    7.8482    6.1244 H         1 <0>         0.1116
     27 H3          5.7160    6.6015    4.8540 H         1 <0>         0.0529
     28 H4          4.1760    7.2397    5.4781 H         1 <0>         0.0612
     29 H5          4.0339    5.4229    4.4480 H         1 <0>         0.1340
     30 H6          2.8161    1.4744    5.5025 H         1 <0>         0.1422
     31 H7          3.3871    3.7717    9.7578 H         1 <0>         0.0485
     32 H8          4.8124    4.5025   10.5342 H         1 <0>         0.1009
     33 H9          3.8917    5.4213    9.3191 H         1 <0>         0.0479
     34 H10         3.1962   -0.3887    8.3161 H         1 <0>         0.1114
     35 H11         2.1316    0.5640    7.2544 H         1 <0>         0.0614
     36 H12         3.6717   -0.0735    6.6300 H         1 <0>         0.0598
     37 H13         2.4037    4.2258    3.1114 H         1 <0>         0.1050
     38 H14         1.8991    2.5762    3.5501 H         1 <0>         0.1253
     39 H15         1.3790    1.5952    2.1283 H         1 <0>         0.1461
     40 H16         3.5875    2.6469   -2.1431 H         1 <0>         0.1467
     41 H17         5.7040    2.8579   -0.8288 H         1 <0>         0.1262
     42 H18         4.9956    4.3999   -0.2977 H         1 <0>         0.1071
     43 H19         6.7013    3.8077    1.3105 H         1 <0>         0.1425
     44 H20         6.0630    2.1513    1.4630 H         1 <0>         0.1357
     45 H21         0.6735    2.2755   -2.7199 H         1 <0>         0.4062
     46 H22         0.0021   -0.0041    0.0020 H         1 <0>         0.4048
     47 N1          4.8763    3.6530    2.3494 N.4       1 <0>        -0.5146
     48 H23         5.3883    3.7412    3.2351 H         1 <0>         0.4381
     49 H24         4.4856    4.5656    2.0876 H         1 <0>         0.4309
@<TRIPOS>BOND
     1    1    2 1
     2    1   26 1
     3    1   27 1
     4    1   28 1
     5    2    3 1
     6    3    8 ar
     7    3    4 ar
     8    4    5 ar
     9    4   29 1
    10    5    6 ar
    11    5   13 1
    12    6    7 ar
    13    6   30 1
    14    7    8 ar
    15    7   11 1
    16    8    9 1
    17    9   10 1
    18   10   31 1
    19   10   32 1
    20   10   33 1
    21   11   12 1
    22   12   34 1
    23   12   35 1
    24   12   36 1
    25   13   14 1
    26   13   37 1
    27   13   38 1
    28   14   15 1
    29   14   16 1
    30   14   47 1
    31   16   21 ar
    32   16   17 ar
    33   17   18 ar
    34   17   39 1
    35   18   19 ar
    36   18   25 1
    37   19   20 ar
    38   19   24 1
    39   20   21 ar
    40   20   40 1
    41   21   22 1
    42   22   23 1
    43   22   41 1
    44   22   42 1
    45   23   43 1
    46   23   44 1
    47   23   47 1
    48   24   45 1
    49   25   46 1
    50   47   48 1
    51   47   49 1
@<TRIPOS>MOLECULE
ZINC02017274
   49    51     0     0     0
SMALL
USER_CHARGES

@<TRIPOS>ATOM
      1 C1         -0.0173    1.4248    0.0099 C.3       1 <0>         0.0214
      2 O1          0.0021   -0.0041    0.0020 O.3       1 <0>        -0.2943
      3 C2         -1.2011   -0.6379    0.0101 C.ar      1 <0>         0.1641
      4 C3         -2.3748    0.1005    0.0195 C.ar      1 <0>        -0.2213
      5 C4         -3.5982   -0.5428    0.0277 C.ar      1 <0>        -0.0510
      6 C5         -3.6572   -1.9238    0.0266 C.ar      1 <0>        -0.2591
      7 C6         -2.4882   -2.6696    0.0172 C.ar      1 <0>         0.1629
      8 C7         -1.2561   -2.0266    0.0032 C.ar      1 <0>         0.0414
      9 O2         -0.1065   -2.7549   -0.0117 O.3       1 <0>        -0.3122
     10 C8          0.4536   -3.1089    1.2544 C.3       1 <0>         0.0344
     11 O3         -2.5472   -4.0282    0.0166 O.3       1 <0>        -0.2936
     12 C9         -3.8474   -4.6211    0.0259 C.3       1 <0>         0.0225
     13 C10        -4.8712    0.2637    0.0384 C.3       1 <0>        -0.1004
     14 C11        -5.3128    0.5387   -1.4005 C.3       1 <0>         0.0914
     15 H1         -4.4968    1.0179   -1.9414 H         1 <0>         0.1509
     16 C12        -6.5063    1.4574   -1.3866 C.ar      1 <0>        -0.1221
     17 C13        -6.5159    2.5154   -0.4889 C.ar      1 <0>        -0.1064
     18 C14        -7.5904    3.3854   -0.4443 C.ar      1 <0>         0.0985
     19 C15        -8.6675    3.1971   -1.3056 C.ar      1 <0>         0.1147
     20 C16        -8.6543    2.1400   -2.1981 C.ar      1 <0>        -0.1184
     21 C17        -7.5748    1.2705   -2.2380 C.ar      1 <0>        -0.0787
     22 C18        -7.6055    0.1278   -3.2210 C.3       1 <0>        -0.1065
     23 C19        -6.1995   -0.4496   -3.3880 C.3       1 <0>        -0.0038
     24 N1         -5.6468   -0.7298   -2.0543 N.4       1 <0>        -0.5061
     25 O4         -9.7275    4.0484   -1.2704 O.3       1 <0>        -0.4818
     26 O5         -7.5941    4.4208    0.4373 O.3       1 <0>        -0.4808
     27 H2          1.0053    1.8021    0.0021 H         1 <0>         0.1113
     28 H3         -0.5445    1.7859   -0.8732 H         1 <0>         0.0596
     29 H4         -0.5275    1.7763    0.9067 H         1 <0>         0.0614
     30 H5         -2.3329    1.1797    0.0207 H         1 <0>         0.1422
     31 H6         -4.6151   -2.4227    0.0334 H         1 <0>         0.1339
     32 H7          1.3650   -3.6864    1.0998 H         1 <0>         0.1009
     33 H8          0.6878   -2.2033    1.8141 H         1 <0>         0.0485
     34 H9         -0.2648   -3.7070    1.8151 H         1 <0>         0.0480
     35 H10        -3.7517   -5.7069    0.0243 H         1 <0>         0.1118
     36 H11        -4.3845   -4.3050    0.9202 H         1 <0>         0.0614
     37 H12        -4.3978   -4.3036   -0.8597 H         1 <0>         0.0529
     38 H13        -5.6506   -0.2944    0.5572 H         1 <0>         0.1054
     39 H14        -4.6980    1.2092    0.5523 H         1 <0>         0.1259
     40 H15        -5.6795    2.6606    0.1786 H         1 <0>         0.1465
     41 H16        -9.4887    1.9916   -2.8675 H         1 <0>         0.1471
     42 H17        -8.2750   -0.6494   -2.8524 H         1 <0>         0.1078
     43 H18        -7.9661    0.4882   -4.1845 H         1 <0>         0.1269
     44 H19        -6.2492   -1.3730   -3.9651 H         1 <0>         0.1435
     45 H20        -5.5659    0.2729   -3.9024 H         1 <0>         0.1367
     46 H21        -4.8139   -1.2920   -2.1458 H         1 <0>         0.4340
     47 H22        -9.6419    4.8079   -1.8628 H         1 <0>         0.4014
     48 H23        -7.2038    5.2346    0.0900 H         1 <0>         0.3994
     49 H24        -6.3309   -1.2246   -1.5018 H         1 <0>         0.4278
@<TRIPOS>BOND
     1    1    2 1
     2    1   27 1
     3    1   28 1
     4    1   29 1
     5    2    3 1
     6    3    8 ar
     7    3    4 ar
     8    4    5 ar
     9    4   30 1
    10    5    6 ar
    11    5   13 1
    12    6    7 ar
    13    6   31 1
    14    7    8 ar
    15    7   11 1
    16    8    9 1
    17    9   10 1
    18   10   32 1
    19   10   33 1
    20   10   34 1
    21   11   12 1
    22   12   35 1
    23   12   36 1
    24   12   37 1
    25   13   14 1
    26   13   38 1
    27   13   39 1
    28   14   15 1
    29   14   24 1
    30   14   16 1
    31   16   21 ar
    32   16   17 ar
    33   17   18 ar
    34   17   40 1
    35   18   19 ar
    36   18   26 1
    37   19   20 ar
    38   19   25 1
    39   20   21 ar
    40   20   41 1
    41   21   22 1
    42   22   23 1
    43   22   42 1
    44   22   43 1
    45   23   24 1
    46   23   44 1
    47   23   45 1
    48   24   46 1
    49   24   49 1
    50   25   47 1
    51   26   48 1
@<TRIPOS>MOLECULE
ZINC02017274
   48    50     0     0     0
SMALL
USER_CHARGES

@<TRIPOS>ATOM
      1 C1         -0.0173    1.4248    0.0099 C.3       1 <0>         0.0248
      2 O1          0.0021   -0.0041    0.0020 O.3       1 <0>        -0.3024
      3 C2         -1.2011   -0.6379    0.0101 C.ar      1 <0>         0.1516
      4 C3         -2.3748    0.1005    0.0195 C.ar      1 <0>        -0.2326
      5 C4         -3.5982   -0.5428    0.0277 C.ar      1 <0>        -0.0109
      6 C5         -3.6572   -1.9238    0.0266 C.ar      1 <0>        -0.2255
      7 C6         -2.4882   -2.6696    0.0172 C.ar      1 <0>         0.1521
      8 C7         -1.2561   -2.0266    0.0032 C.ar      1 <0>         0.0238
      9 O2         -0.1065   -2.7549   -0.0117 O.3       1 <0>        -0.3130
     10 C8          0.4536   -3.1089    1.2544 C.3       1 <0>         0.0352
     11 O3         -2.5472   -4.0282    0.0166 O.3       1 <0>        -0.3024
     12 C9         -3.8474   -4.6211    0.0259 C.3       1 <0>         0.0241
     13 C10        -4.8712    0.2637    0.0384 C.3       1 <0>        -0.0754
     14 C11        -5.3128    0.5387   -1.4005 C.3       1 <0>         0.1371
     15 H1         -4.4970    1.0179   -1.9418 H         1 <0>         0.0558
     16 C12        -6.5074    1.4565   -1.3872 C.ar      1 <0>        -0.0674
     17 C13        -6.5056    2.5267   -0.5035 C.ar      1 <0>        -0.1267
     18 C14        -7.5779    3.3990   -0.4581 C.ar      1 <0>         0.0784
     19 C15        -8.6649    3.2007   -1.3048 C.ar      1 <0>         0.0842
     20 C16        -8.6632    2.1315   -2.1824 C.ar      1 <0>        -0.1321
     21 C17        -7.5859    1.2583   -2.2226 C.ar      1 <0>        -0.0554
     22 C18        -7.6363    0.1018   -3.1881 C.3       1 <0>        -0.0777
     23 C19        -6.2355   -0.4796   -3.3804 C.3       1 <0>         0.0533
     24 N1         -5.6482   -0.7299   -2.0546 N.3       1 <0>        -0.6789
     25 O4         -9.7230    4.0543   -1.2698 O.3       1 <0>        -0.4876
     26 O5         -7.5707    4.4455    0.4104 O.3       1 <0>        -0.4868
     27 H2          1.0053    1.8021    0.0021 H         1 <0>         0.1035
     28 H3         -0.5445    1.7859   -0.8732 H         1 <0>         0.0571
     29 H4         -0.5275    1.7763    0.9067 H         1 <0>         0.0574
     30 H5         -2.3329    1.1797    0.0207 H         1 <0>         0.1337
     31 H6         -4.6151   -2.4227    0.0334 H         1 <0>         0.1421
     32 H7          1.3650   -3.6864    1.0998 H         1 <0>         0.0926
     33 H8          0.6878   -2.2033    1.8141 H         1 <0>         0.0436
     34 H9         -0.2648   -3.7070    1.8151 H         1 <0>         0.0442
     35 H10        -4.3845   -4.3050    0.9202 H         1 <0>         0.0578
     36 H11        -4.3978   -4.3036   -0.8597 H         1 <0>         0.0604
     37 H12        -3.7517   -5.7069    0.0243 H         1 <0>         0.1027
     38 H13        -5.6506   -0.2944    0.5572 H         1 <0>         0.0905
     39 H14        -4.6980    1.2092    0.5523 H         1 <0>         0.0844
     40 H15        -5.6613    2.6795    0.1525 H         1 <0>         0.1351
     41 H16        -9.5052    1.9758   -2.8406 H         1 <0>         0.1340
     42 H17        -8.2974   -0.6700   -2.7941 H         1 <0>         0.0880
     43 H18        -8.0190    0.4484   -4.1481 H         1 <0>         0.0801
     44 H19        -6.3004   -1.4157   -3.9349 H         1 <0>         0.0837
     45 H20        -5.6159    0.2311   -3.9273 H         1 <0>         0.0384
     46 H21        -9.6427    4.8053   -1.8736 H         1 <0>         0.3878
     47 H22        -7.1830    5.2541    0.0486 H         1 <0>         0.3869
     48 H23        -4.8370   -1.3257   -2.1257 H         1 <0>         0.3503
@<TRIPOS>BOND
     1    1    2 1
     2    1   27 1
     3    1   28 1
     4    1   29 1
     5    2    3 1
     6    3    8 ar
     7    3    4 ar
     8    4    5 ar
     9    4   30 1
    10    5    6 ar
    11    5   13 1
    12    6    7 ar
    13    6   31 1
    14    7    8 ar
    15    7   11 1
    16    8    9 1
    17    9   10 1
    18   10   32 1
    19   10   33 1
    20   10   34 1
    21   11   12 1
    22   12   35 1
    23   12   36 1
    24   12   37 1
    25   13   14 1
    26   13   38 1
    27   13   39 1
    28   14   15 1
    29   14   24 1
    30   14   16 1
    31   16   21 ar
    32   16   17 ar
    33   17   18 ar
    34   17   40 1
    35   18   19 ar
    36   18   26 1
    37   19   20 ar
    38   19   25 1
    39   20   21 ar
    40   20   41 1
    41   21   22 1
    42   22   23 1
    43   22   42 1
    44   22   43 1
    45   23   24 1
    46   23   44 1
    47   23   45 1
    48   24   48 1
    49   25   46 1
    50   26   47 1
@<TRIPOS>MOLECULE
ZINC29486259
   56    60     0     0     0
SMALL
USER_CHARGES

@<TRIPOS>ATOM
      1 C1         -0.0173    1.4248    0.0099 C.3       1 <0>         0.0240
      2 O1          0.0021   -0.0041    0.0020 O.3       1 <0>        -0.3091
      3 C2          0.6063   -0.6076   -1.0566 C.ar      1 <0>         0.1271
      4 C3          1.1727    0.1584   -2.0619 C.ar      1 <0>        -0.2045
      5 C4          1.7862   -0.4565   -3.1379 C.ar      1 <0>        -0.0716
      6 C5          1.8369   -1.8361   -3.2138 C.ar      1 <0>        -0.1492
      7 C6          1.2745   -2.6077   -2.2144 C.ar      1 <0>        -0.0814
      8 C7          0.6620   -1.9977   -1.1294 C.ar      1 <0>         0.1172
      9 N1          0.0968   -2.7768   -0.1132 N.pl3     1 <0>        -0.6663
     10 C8         -1.3057   -3.2146   -0.1871 C.3       1 <0>         0.1252
     11 C9         -1.3569   -4.7253    0.0636 C.3       1 <0>        -0.0216
     12 N2         -0.6925   -5.0320    1.3366 N.4       1 <0>        -0.3732
     13 C10         0.7338   -4.6939    1.2505 C.3       1 <0>        -0.0273
     14 C11         0.8902   -3.1864    1.0559 C.3       1 <0>         0.1245
     15 C12        -0.8376   -6.4641    1.6301 C.3       1 <0>        -0.0204
     16 C13        -0.2558   -6.7628    3.0132 C.3       1 <0>         0.0945
     17 N3         -0.4005   -8.1909    3.3059 N.am      1 <0>        -0.5422
     18 C14        -1.5159   -8.6406    3.9197 C.2       1 <0>         0.5643
     19 O2         -2.4077   -7.8699    4.2342 O.2       1 <0>        -0.5843
     20 C15        -1.6281  -10.0217    4.1892 C.2       1 <0>        -0.1619
     21 C16        -0.5810  -10.8585    3.8088 C.2       1 <0>         0.2210
     22 C17        -0.9678  -12.2185    4.2088 C.ar      1 <0>        -0.1313
     23 C18        -0.3495  -13.4650    4.1012 C.ar      1 <0>        -0.0271
     24 C19        -0.9772  -14.5801    4.5807 C.ar      1 <0>        -0.1777
     25 C20        -2.2275  -14.4830    5.1752 C.ar      1 <0>        -0.0689
     26 C21        -2.8559  -13.2633    5.2914 C.ar      1 <0>        -0.1623
     27 C22        -2.2340  -12.1134    4.8099 C.ar      1 <0>         0.1668
     28 N4         -2.6133  -10.7884    4.7888 N.pl3     1 <0>        -0.5763
     29 H1         -3.4482  -10.4435    5.1422 H         1 <0>         0.4125
     30 N5          0.5005  -10.3413    3.2017 N.2       1 <0>        -0.5842
     31 C23         0.5879   -9.0575    2.9524 C.2       1 <0>         0.5976
     32 O3          1.6901   -8.5811    2.3343 O.3       1 <0>        -0.6726
     33 H2          1.0053    1.8021    0.0021 H         1 <0>         0.0572
     34 H3         -0.5445    1.7859   -0.8732 H         1 <0>         0.0567
     35 H4         -0.5275    1.7763    0.9067 H         1 <0>         0.1019
     36 H5          1.1348    1.2363   -2.0057 H         1 <0>         0.1316
     37 H6          2.2267    0.1425   -3.9212 H         1 <0>         0.1292
     38 H7          2.3168   -2.3119   -4.0562 H         1 <0>         0.1293
     39 H8          1.3151   -3.6852   -2.2764 H         1 <0>         0.1293
     40 H9         -1.8914   -2.6971    0.5728 H         1 <0>         0.0768
     41 H10        -1.7068   -2.9936   -1.1762 H         1 <0>         0.1107
     42 H11        -2.3961   -5.0513    0.1082 H         1 <0>         0.1338
     43 H12        -0.8470   -5.2457   -0.7471 H         1 <0>         0.1292
     44 H13         1.2353   -4.9969    2.1697 H         1 <0>         0.1409
     45 H14         1.1804   -5.2153    0.4039 H         1 <0>         0.1328
     46 H15         1.9402   -2.9468    0.8881 H         1 <0>         0.1124
     47 H16         0.5300   -2.6661    1.9434 H         1 <0>         0.0766
     48 H17        -1.8938   -6.7330    1.6144 H         1 <0>         0.1289
     49 H18        -0.3036   -7.0450    0.8781 H         1 <0>         0.1354
     50 H19         0.8004   -6.4939    3.0289 H         1 <0>         0.1120
     51 H20        -0.7898   -6.1819    3.7652 H         1 <0>         0.0987
     52 H21         0.6232  -13.5483    3.6395 H         1 <0>         0.1266
     53 H22        -0.4970  -15.5438    4.4960 H         1 <0>         0.1227
     54 H23        -2.7123  -15.3724    5.5499 H         1 <0>         0.1248
     55 H24        -3.8292  -13.1981    5.7550 H         1 <0>         0.1208
     56 H25        -1.1202   -4.4947    2.0759 H         1 <0>         0.4201
@<TRIPOS>BOND
     1    1    2 1
     2    1   33 1
     3    1   34 1
     4    1   35 1
     5    2    3 1
     6    3    8 ar
     7    3    4 ar
     8    4    5 ar
     9    4   36 1
    10    5    6 ar
    11    5   37 1
    12    6    7 ar
    13    6   38 1
    14    7    8 ar
    15    7   39 1
    16    8    9 1
    17    9   14 1
    18    9   10 1
    19   10   11 1
    20   10   40 1
    21   10   41 1
    22   11   12 1
    23   11   42 1
    24   11   43 1
    25   12   13 1
    26   12   15 1
    27   12   56 1
    28   13   14 1
    29   13   44 1
    30   13   45 1
    31   14   46 1
    32   14   47 1
    33   15   16 1
    34   15   48 1
    35   15   49 1
    36   16   17 1
    37   16   50 1
    38   16   51 1
    39   17   31 1
    40   17   18 am
    41   18   19 2
    42   18   20 1
    43   20   28 1
    44   20   21 2
    45   21   22 1
    46   21   30 1
    47   22   27 ar
    48   22   23 ar
    49   23   24 ar
    50   23   52 1
    51   24   25 ar
    52   24   53 1
    53   25   26 ar
    54   25   54 1
    55   26   27 ar
    56   26   55 1
    57   27   28 1
    58   28   29 1
    59   30   31 2
    60   31   32 1
@<TRIPOS>MOLECULE
ZINC29486259
   55    59     0     0     0
SMALL
USER_CHARGES

@<TRIPOS>ATOM
      1 C1         -0.0173    1.4248    0.0099 C.3       1 <0>         0.0263
      2 O1          0.0021   -0.0041    0.0020 O.3       1 <0>        -0.3019
      3 C2          0.6263   -0.6189    1.0423 C.ar      1 <0>         0.1179
      4 C3          1.2020    0.1362    2.0507 C.ar      1 <0>        -0.2086
      5 C4          1.8368   -0.4902    3.1075 C.ar      1 <0>        -0.0883
      6 C5          1.8987   -1.8703    3.1618 C.ar      1 <0>        -0.1521
      7 C6          1.3263   -2.6311    2.1598 C.ar      1 <0>        -0.0878
      8 C7          0.6832   -2.0097    1.0992 C.ar      1 <0>         0.1468
      9 N1          0.0978   -2.7779    0.0862 N.pl3     1 <0>        -0.6702
     10 C8          0.8705   -3.1791   -1.0992 C.3       1 <0>         0.1566
     11 C9          0.7192   -4.6921   -1.2897 C.3       1 <0>         0.0419
     12 N2         -0.7081   -5.0367   -1.3328 N.3       1 <0>        -0.5287
     13 C10        -1.3720   -4.7173   -0.0619 C.3       1 <0>         0.0369
     14 C11        -1.3047   -3.2105    0.1818 C.3       1 <0>         0.1553
     15 C12        -0.8980   -6.4501   -1.6852 C.3       1 <0>         0.0520
     16 C13        -2.3795   -6.7116   -1.9641 C.3       1 <0>         0.1206
     17 N3         -2.5689   -8.1211   -2.3156 N.am      1 <0>        -0.5423
     18 C14        -2.4832   -8.5083   -3.6063 C.2       1 <0>         0.5650
     19 O2         -2.2489   -7.6965   -4.4861 O.2       1 <0>        -0.5831
     20 C15        -2.6702   -9.8729   -3.9156 C.2       1 <0>        -0.1706
     21 C16        -2.9348  -10.7586   -2.8731 C.2       1 <0>         0.2176
     22 C17        -3.0814  -12.0878   -3.4824 C.ar      1 <0>        -0.1281
     23 C18        -3.3478  -13.3574   -2.9680 C.ar      1 <0>        -0.0266
     24 C19        -3.4258  -14.4307   -3.8100 C.ar      1 <0>        -0.1867
     25 C20        -3.2418  -14.2683   -5.1761 C.ar      1 <0>        -0.0767
     26 C21        -2.9775  -13.0247   -5.7050 C.ar      1 <0>        -0.1643
     27 C22        -2.8941  -11.9166   -4.8648 C.ar      1 <0>         0.1624
     28 N4         -2.6486  -10.5817   -5.1052 N.pl3     1 <0>        -0.5728
     29 H1         -2.4847  -10.1952   -5.9797 H         1 <0>         0.4100
     30 N5         -3.0066  -10.3027   -1.6111 N.2       1 <0>        -0.6012
     31 C23        -2.8247   -9.0336   -1.3385 C.2       1 <0>         0.6042
     32 O3         -2.8990   -8.6195   -0.0552 O.3       1 <0>        -0.6714
     33 H2          1.0053    1.8021    0.0021 H         1 <0>         0.0516
     34 H3         -0.5445    1.7859   -0.8732 H         1 <0>         0.0977
     35 H4         -0.5275    1.7763    0.9067 H         1 <0>         0.0520
     36 H5          1.1555    1.2145    2.0114 H         1 <0>         0.1252
     37 H6          2.2858    0.1003    3.8925 H         1 <0>         0.1218
     38 H7          2.3959   -2.3551    3.9890 H         1 <0>         0.1225
     39 H8          1.3765   -3.7090    2.2044 H         1 <0>         0.1275
     40 H9          0.4889   -2.6595   -1.9781 H         1 <0>         0.0577
     41 H10         1.9218   -2.9319   -0.9519 H         1 <0>         0.0657
     42 H11         1.1938   -4.9902   -2.2246 H         1 <0>         0.0777
     43 H12         1.1942   -5.2127   -0.4581 H         1 <0>         0.0328
     44 H13        -2.4141   -5.0337   -0.1064 H         1 <0>         0.0868
     45 H14        -0.8680   -5.2375    0.7526 H         1 <0>         0.0362
     46 H15        -1.6908   -2.9840    1.1756 H         1 <0>         0.0671
     47 H16        -1.8994   -2.6939   -0.5716 H         1 <0>         0.0574
     48 H17        -0.3139   -6.6843   -2.5752 H         1 <0>         0.0724
     49 H18        -0.5676   -7.0784   -0.8581 H         1 <0>         0.0406
     50 H19        -2.9636   -6.4774   -1.0741 H         1 <0>         0.0910
     51 H20        -2.7099   -6.0833   -2.7912 H         1 <0>         0.0869
     52 H21        -3.4918  -13.4915   -1.9061 H         1 <0>         0.1238
     53 H22        -3.6317  -15.4124   -3.4097 H         1 <0>         0.1174
     54 H23        -3.3062  -15.1252   -5.8302 H         1 <0>         0.1193
     55 H24        -2.8351  -12.9086   -6.7693 H         1 <0>         0.1166
@<TRIPOS>BOND
     1    1    2 1
     2    1   33 1
     3    1   34 1
     4    1   35 1
     5    2    3 1
     6    3    8 ar
     7    3    4 ar
     8    4    5 ar
     9    4   36 1
    10    5    6 ar
    11    5   37 1
    12    6    7 ar
    13    6   38 1
    14    7    8 ar
    15    7   39 1
    16    8    9 1
    17    9   14 1
    18    9   10 1
    19   10   11 1
    20   10   40 1
    21   10   41 1
    22   11   12 1
    23   11   42 1
    24   11   43 1
    25   12   13 1
    26   12   15 1
    27   13   14 1
    28   13   44 1
    29   13   45 1
    30   14   46 1
    31   14   47 1
    32   15   16 1
    33   15   48 1
    34   15   49 1
    35   16   17 1
    36   16   50 1
    37   16   51 1
    38   17   31 1
    39   17   18 am
    40   18   19 2
    41   18   20 1
    42   20   28 1
    43   20   21 2
    44   21   22 1
    45   21   30 1
    46   22   27 ar
    47   22   23 ar
    48   23   24 ar
    49   23   52 1
    50   24   25 ar
    51   24   53 1
    52   25   26 ar
    53   25   54 1
    54   26   27 ar
    55   26   55 1
    56   27   28 1
    57   28   29 1
    58   30   31 2
    59   31   32 1
@<TRIPOS>MOLECULE
ZINC05958016
   44    45     0     0     0
SMALL
USER_CHARGES
1-[1-(2-chlorophenyl)-2-dimethylamino-ethyl]cyclohexan-1-ol
@<TRIPOS>ATOM
      1 C1          0.4610   -3.5739    2.4924 C.3       1 <0>        -0.0490
      2 C2          2.6992   -3.3332    3.3841 C.3       1 <0>        -0.0431
      3 C3          2.2889   -2.9632    1.0267 C.3       1 <0>        -0.0010
      4 C4          1.3764   -2.2272    0.0436 C.3       1 <0>        -0.0632
      5 H1          0.3601   -2.6105    0.1345 H         1 <0>         0.1170
      6 C5          1.3870   -0.7529    0.3556 C.ar      1 <0>        -0.1178
      7 C6          2.5889   -0.0827    0.4870 C.ar      1 <0>        -0.1146
      8 C7          2.5989    1.2693    0.7741 C.ar      1 <0>        -0.1040
      9 C8          1.4068    1.9524    0.9291 C.ar      1 <0>        -0.0873
     10 C9          0.2047    1.2836    0.7980 C.ar      1 <0>        -0.0992
     11 C10         0.1941   -0.0701    0.5111 C.ar      1 <0>        -0.0305
     12 Cl1        -1.3157   -0.9109    0.3457 Cl        1 <0>        -0.0514
     13 C11         1.8796   -2.4500   -1.3840 C.3       1 <0>         0.1554
     14 C12         3.3493   -2.0350   -1.4773 C.3       1 <0>        -0.1661
     15 C13         3.8526   -2.2578   -2.9049 C.3       1 <0>        -0.1241
     16 C14         3.0223   -1.4156   -3.8756 C.3       1 <0>        -0.1269
     17 C15         1.5526   -1.8306   -3.7823 C.3       1 <0>        -0.1257
     18 C16         1.0493   -1.6078   -2.3547 C.3       1 <0>        -0.1433
     19 O1          1.7525   -3.8322   -1.7237 O.3       1 <0>        -0.5611
     20 H2          0.6182   -4.6278    2.2632 H         1 <0>         0.1286
     21 H3          0.0742   -3.4764    3.5068 H         1 <0>         0.1251
     22 H4         -0.2559   -3.1518    1.7881 H         1 <0>         0.1164
     23 H5          3.5734   -2.6822    3.3886 H         1 <0>         0.1209
     24 H6          2.2339   -3.3236    4.3697 H         1 <0>         0.1243
     25 H7          3.0046   -4.3498    3.1364 H         1 <0>         0.1258
     26 H8          2.3542   -4.0141    0.7448 H         1 <0>         0.1476
     27 H9          3.2835   -2.5180    1.0022 H         1 <0>         0.1312
     28 H10         3.5204   -0.6157    0.3656 H         1 <0>         0.1431
     29 H11         3.5381    1.7924    0.8766 H         1 <0>         0.1397
     30 H12         1.4152    3.0090    1.1528 H         1 <0>         0.1428
     31 H13        -0.7264    1.8181    0.9151 H         1 <0>         0.1440
     32 H14         3.4463   -0.9807   -1.2182 H         1 <0>         0.0896
     33 H15         3.9408   -2.6350   -0.7857 H         1 <0>         0.0701
     34 H16         3.7556   -3.3121   -3.1639 H         1 <0>         0.0660
     35 H17         4.8996   -1.9622   -2.9713 H         1 <0>         0.0738
     36 H18         3.3808   -1.5744   -4.8926 H         1 <0>         0.0714
     37 H19         3.1193   -0.3613   -3.6165 H         1 <0>         0.0656
     38 H20         1.4556   -2.8849   -4.0414 H         1 <0>         0.0657
     39 H21         0.9611   -1.2307   -4.4739 H         1 <0>         0.0741
     40 H22         0.0023   -1.9035   -2.2883 H         1 <0>         0.0751
     41 H23         1.1463   -0.5535   -2.0957 H         1 <0>         0.0758
     42 H24         2.0535   -4.0470   -2.6172 H         1 <0>         0.3915
     43 N1          1.7315   -2.8258    2.3887 N.4       1 <0>        -0.3988
     44 H25         1.5500   -1.8327    2.5762 H         1 <0>         0.4267
@<TRIPOS>BOND
     1    1   20 1
     2    1   21 1
     3    1   22 1
     4    1   43 1
     5    2   23 1
     6    2   24 1
     7    2   25 1
     8    2   43 1
     9    3    4 1
    10    3   26 1
    11    3   27 1
    12    3   43 1
    13    4    5 1
    14    4    6 1
    15    4   13 1
    16    6   11 ar
    17    6    7 ar
    18    7    8 ar
    19    7   28 1
    20    8    9 ar
    21    8   29 1
    22    9   10 ar
    23    9   30 1
    24   10   11 ar
    25   10   31 1
    26   11   12 1
    27   13   18 1
    28   13   14 1
    29   13   19 1
    30   14   15 1
    31   14   32 1
    32   14   33 1
    33   15   16 1
    34   15   34 1
    35   15   35 1
    36   16   17 1
    37   16   36 1
    38   16   37 1
    39   17   18 1
    40   17   38 1
    41   17   39 1
    42   18   40 1
    43   18   41 1
    44   19   42 1
    45   43   44 1
@<TRIPOS>MOLECULE
ZINC05958046
   44    45     0     0     0
SMALL
USER_CHARGES
1-[1-(2-chlorophenyl)-2-dimethylamino-ethyl]cyclohexan-1-ol
@<TRIPOS>ATOM
      1 C1          3.0610    2.3210   -3.8451 C.3       1 <0>        -0.0425
      2 C2          2.3675    0.3527   -2.6172 C.3       1 <0>        -0.0501
      3 C3          3.5829    2.1173   -1.4895 C.3       1 <0>         0.0007
      4 C4          2.9284    1.9180   -0.1210 C.3       1 <0>        -0.0617
      5 H1          2.5221    0.9086   -0.0561 H         1 <0>         0.1151
      6 C5          1.8161    2.9195    0.0546 C.ar      1 <0>        -0.1192
      7 C6          2.0915    4.2734    0.0098 C.ar      1 <0>        -0.0836
      8 C7          1.0713    5.1921    0.1703 C.ar      1 <0>        -0.1103
      9 C8         -0.2252    4.7575    0.3753 C.ar      1 <0>        -0.0889
     10 C9         -0.5025    3.4043    0.4150 C.ar      1 <0>        -0.1053
     11 C10         0.5193    2.4841    0.2601 C.ar      1 <0>        -0.0403
     12 Cl1         0.1727    0.7840    0.3166 Cl        1 <0>        -0.0612
     13 C11         3.9736    2.1187    0.9783 C.3       1 <0>         0.1554
     14 C12         5.0357    1.0220    0.8785 C.3       1 <0>        -0.1501
     15 C13         6.0809    1.2227    1.9777 C.3       1 <0>        -0.1240
     16 C14         5.4014    1.1515    3.3467 C.3       1 <0>        -0.1280
     17 C15         4.3392    2.2482    3.4465 C.3       1 <0>        -0.1246
     18 C16         3.2940    2.0475    2.3472 C.3       1 <0>        -0.1424
     19 O1          4.5923    3.3970    0.8196 O.3       1 <0>        -0.5606
     20 H2          4.0209    1.8746   -4.1049 H         1 <0>         0.1255
     21 H3          2.3254    2.0715   -4.6097 H         1 <0>         0.1233
     22 H4          3.1686    3.4039   -3.7839 H         1 <0>         0.1219
     23 H5          1.8829    0.0215   -1.6987 H         1 <0>         0.1151
     24 H6          1.7214    0.1352   -3.4676 H         1 <0>         0.1263
     25 H7          3.3154   -0.1718   -2.7374 H         1 <0>         0.1275
     26 H8          3.9042    3.1539   -1.5910 H         1 <0>         0.1414
     27 H9          4.4469    1.4587   -1.5784 H         1 <0>         0.1388
     28 H10         3.1038    4.6134   -0.1511 H         1 <0>         0.1521
     29 H11         1.2869    6.2498    0.1352 H         1 <0>         0.1372
     30 H12        -1.0220    5.4758    0.5000 H         1 <0>         0.1403
     31 H13        -1.5159    3.0650    0.5711 H         1 <0>         0.1414
     32 H14         4.5638    0.0470    0.9995 H         1 <0>         0.0775
     33 H15         5.5199    1.0728   -0.0968 H         1 <0>         0.0700
     34 H16         6.5529    2.1978    1.8566 H         1 <0>         0.0665
     35 H17         6.8376    0.4414    1.9066 H         1 <0>         0.0741
     36 H18         6.1459    1.2945    4.1298 H         1 <0>         0.0712
     37 H19         4.9294    0.1765    3.4677 H         1 <0>         0.0666
     38 H20         4.8111    3.2232    3.3254 H         1 <0>         0.0652
     39 H21         3.8551    2.1974    4.4217 H         1 <0>         0.0734
     40 H22         2.5373    2.8288    2.4183 H         1 <0>         0.0756
     41 H23         2.8221    1.0724    2.4683 H         1 <0>         0.0743
     42 H24         5.2675    3.5923    1.4837 H         1 <0>         0.3899
     43 N1          2.5890    1.8121   -2.5401 N.4       1 <0>        -0.4006
     44 H25         1.7020    2.2720   -2.3038 H         1 <0>         0.4271
@<TRIPOS>BOND
     1    1   20 1
     2    1   21 1
     3    1   22 1
     4    1   43 1
     5    2   23 1
     6    2   24 1
     7    2   25 1
     8    2   43 1
     9    3    4 1
    10    3   26 1
    11    3   27 1
    12    3   43 1
    13    4    5 1
    14    4    6 1
    15    4   13 1
    16    6   11 ar
    17    6    7 ar
    18    7    8 ar
    19    7   28 1
    20    8    9 ar
    21    8   29 1
    22    9   10 ar
    23    9   30 1
    24   10   11 ar
    25   10   31 1
    26   11   12 1
    27   13   18 1
    28   13   14 1
    29   13   19 1
    30   14   15 1
    31   14   32 1
    32   14   33 1
    33   15   16 1
    34   15   34 1
    35   15   35 1
    36   16   17 1
    37   16   36 1
    38   16   37 1
    39   17   18 1
    40   17   38 1
    41   17   39 1
    42   18   40 1
    43   18   41 1
    44   19   42 1
    45   43   44 1
@<TRIPOS>MOLECULE
ZINC53057273
   45    48     0     0     0
SMALL
USER_CHARGES

@<TRIPOS>ATOM
      1 C1          1.2158   -0.6795    0.0011 C.ar      1 <0>        -0.1904
      2 C2          2.4000    0.0311   -0.0073 C.ar      1 <0>        -0.0583
      3 C3          2.3781    1.4147   -0.0144 C.ar      1 <0>        -0.0952
      4 C4          1.1704    2.0902   -0.0131 C.ar      1 <0>        -0.0584
      5 C5         -0.0169    1.3848   -0.0051 C.ar      1 <0>        -0.1902
      6 C6          0.0021   -0.0041    0.0020 C.ar      1 <0>         0.2267
      7 N1         -1.1977   -0.7205    0.0101 N.pl3     1 <0>        -0.6279
      8 C7         -2.4897   -0.0279    0.1306 C.3       1 <0>         0.1251
      9 C8         -3.2909   -0.6853    1.2593 C.3       1 <0>         0.0400
     10 N2         -3.3815   -2.1308    1.0137 N.3       1 <0>        -0.5310
     11 C9         -2.0540   -2.7593    1.0363 C.3       1 <0>         0.0343
     12 C10        -1.2024   -2.1865   -0.1078 C.3       1 <0>         0.1251
     13 C11        -4.2846   -2.7730    1.9780 C.3       1 <0>         0.0961
     14 C12        -4.5457   -4.1947    1.5518 C.ar      1 <0>        -0.0703
     15 C13        -5.6065   -4.4779    0.7111 C.ar      1 <0>        -0.0842
     16 C14        -5.8518   -5.7800    0.3150 C.ar      1 <0>        -0.1214
     17 C15        -5.0315   -6.8022    0.7631 C.ar      1 <0>         0.0950
     18 C16        -3.9627   -6.5167    1.6111 C.ar      1 <0>         0.0773
     19 C17        -3.7200   -5.2104    1.9984 C.ar      1 <0>        -0.1023
     20 O1         -3.1656   -7.5288    2.0466 O.3       1 <0>        -0.3017
     21 C18        -3.7907   -8.7995    2.2449 C.3       1 <0>         0.0508
     22 C19        -4.6612   -9.1264    1.0582 C.2       1 <0>         0.4901
     23 O2         -4.8219  -10.2802    0.7203 O.2       1 <0>        -0.5072
     24 N3         -5.2619   -8.1291    0.3730 N.am      1 <0>        -0.6607
     25 Cl1         3.8686    2.3047   -0.0245 Cl        1 <0>        -0.0801
     26 H1          1.2334   -1.7594    0.0025 H         1 <0>         0.1309
     27 H2          3.3440   -0.4936   -0.0080 H         1 <0>         0.1315
     28 H3          1.1563    3.1701   -0.0179 H         1 <0>         0.1315
     29 H4         -0.9591    1.9125   -0.0037 H         1 <0>         0.1309
     30 H5         -2.3212    1.0231    0.3651 H         1 <0>         0.0878
     31 H6         -3.0396   -0.1133   -0.8066 H         1 <0>         0.0726
     32 H7         -2.7903   -0.5088    2.2113 H         1 <0>         0.0410
     33 H8         -4.2933   -0.2581    1.2904 H         1 <0>         0.0888
     34 H9         -1.5706   -2.5540    1.9914 H         1 <0>         0.0408
     35 H10        -2.1593   -3.8364    0.9056 H         1 <0>         0.0915
     36 H11        -1.6310   -2.4754   -1.0674 H         1 <0>         0.0726
     37 H12        -0.1825   -2.5633   -0.0308 H         1 <0>         0.0874
     38 H13        -3.8240   -2.7686    2.9658 H         1 <0>         0.0478
     39 H14        -5.2266   -2.2257    2.0139 H         1 <0>         0.0904
     40 H15        -6.2455   -3.6799    0.3631 H         1 <0>         0.1348
     41 H16        -6.6808   -5.9992   -0.3415 H         1 <0>         0.1352
     42 H17        -2.8896   -4.9851    2.6512 H         1 <0>         0.1366
     43 H18        -3.0250   -9.5673    2.3556 H         1 <0>         0.1479
     44 H19        -4.4032   -8.7660    3.1459 H         1 <0>         0.1016
     45 H20        -5.8439   -8.3279   -0.3771 H         1 <0>         0.4173
@<TRIPOS>BOND
     1    1    6 ar
     2    1    2 ar
     3    1   26 1
     4    2    3 ar
     5    2   27 1
     6    3    4 ar
     7    3   25 1
     8    4    5 ar
     9    4   28 1
    10    5    6 ar
    11    5   29 1
    12    6    7 1
    13    7   12 1
    14    7    8 1
    15    8    9 1
    16    8   30 1
    17    8   31 1
    18    9   10 1
    19    9   32 1
    20    9   33 1
    21   10   11 1
    22   10   13 1
    23   11   12 1
    24   11   34 1
    25   11   35 1
    26   12   36 1
    27   12   37 1
    28   13   14 1
    29   13   38 1
    30   13   39 1
    31   14   19 ar
    32   14   15 ar
    33   15   16 ar
    34   15   40 1
    35   16   17 ar
    36   16   41 1
    37   17   24 1
    38   17   18 ar
    39   18   19 ar
    40   18   20 1
    41   19   42 1
    42   20   21 1
    43   21   22 1
    44   21   43 1
    45   21   44 1
    46   22   23 2
    47   22   24 am
    48   24   45 1
@<TRIPOS>MOLECULE
ZINC00056583
   39    41     0     0     0
SMALL
USER_CHARGES
1-[(3,4-dihydroxyphenyl)methyl]-1,2,3,4-tetrahydroisoquinoline-6,7-diol
@<TRIPOS>ATOM
      1 C1         -1.2416    3.1328    0.0308 C.ar      1 <0>        -0.0950
      2 C2         -0.0572    3.8465    0.0234 C.ar      1 <0>        -0.1182
      3 C3          1.1551    3.1765    0.0081 C.ar      1 <0>         0.1003
      4 C4          1.1775    1.7847    0.0004 C.ar      1 <0>         0.0938
      5 C5         -0.0126    1.0758    0.0080 C.ar      1 <0>        -0.1517
      6 C6         -1.2194    1.7509    0.0173 C.ar      1 <0>        -0.1213
      7 C7         -2.5132    0.9781    0.0187 C.3       1 <0>        -0.0967
      8 C8         -2.9445    0.7082    1.4617 C.3       1 <0>         0.0925
      9 H1         -2.9995    1.6525    2.0033 H         1 <0>         0.1498
     10 C9         -4.3023    0.0556    1.4610 C.ar      1 <0>        -0.1207
     11 C10        -5.2663    0.5427    0.5895 C.ar      1 <0>        -0.1074
     12 C11        -6.5285   -0.0218    0.5552 C.ar      1 <0>         0.0986
     13 C12        -6.8320   -1.0850    1.4010 C.ar      1 <0>         0.1136
     14 C13        -5.8686   -1.5667    2.2667 C.ar      1 <0>        -0.1190
     15 C14        -4.6033   -0.9986    2.2960 C.ar      1 <0>        -0.0788
     16 C15        -3.5858   -1.5642    3.2537 C.3       1 <0>        -0.1063
     17 C16        -2.4344   -0.5751    3.4367 C.3       1 <0>        -0.0003
     18 O1         -8.0707   -1.6458    1.3762 O.3       1 <0>        -0.4815
     19 O2         -7.4688    0.4594   -0.3014 O.3       1 <0>        -0.4805
     20 O3          2.3652    1.1224   -0.0141 O.3       1 <0>        -0.4868
     21 O4          2.3208    3.8768    0.0003 O.3       1 <0>        -0.4852
     22 H2         -2.1861    3.6564    0.0427 H         1 <0>         0.1385
     23 H3         -0.0774    4.9263    0.0297 H         1 <0>         0.1442
     24 H4          0.0021   -0.0041    0.0020 H         1 <0>         0.1327
     25 H5         -3.2838    1.5588   -0.4882 H         1 <0>         0.1247
     26 H6         -2.3711    0.0307   -0.5013 H         1 <0>         0.1026
     27 H7         -5.0296    1.3680   -0.0656 H         1 <0>         0.1466
     28 H8         -6.1021   -2.3915    2.9236 H         1 <0>         0.1466
     29 H9         -3.1975   -2.5021    2.8567 H         1 <0>         0.1070
     30 H10        -4.0600   -1.7497    4.2175 H         1 <0>         0.1262
     31 H11        -1.6233   -1.0547    3.9845 H         1 <0>         0.1427
     32 H12        -2.7823    0.2985    3.9879 H         1 <0>         0.1355
     33 H13        -8.1587   -2.3775    0.7501 H         1 <0>         0.4006
     34 H14        -7.4691    0.0289   -1.1673 H         1 <0>         0.3988
     35 H15         2.7004    0.9353   -0.9016 H         1 <0>         0.3989
     36 H16         2.6491    4.0842   -0.8853 H         1 <0>         0.3996
     37 N1         -1.9526   -0.1644    2.1048 N.4       1 <0>        -0.5139
     38 H17        -1.0661    0.3438    2.2051 H         1 <0>         0.4381
     39 H18        -1.8053   -0.9982    1.5240 H         1 <0>         0.4312
@<TRIPOS>BOND
     1    1    6 ar
     2    1    2 ar
     3    1   22 1
     4    2    3 ar
     5    2   23 1
     6    3    4 ar
     7    3   21 1
     8    4    5 ar
     9    4   20 1
    10    5    6 ar
    11    5   24 1
    12    6    7 1
    13    7    8 1
    14    7   25 1
    15    7   26 1
    16    8    9 1
    17    8   10 1
    18    8   37 1
    19   10   15 ar
    20   10   11 ar
    21   11   12 ar
    22   11   27 1
    23   12   13 ar
    24   12   19 1
    25   13   14 ar
    26   13   18 1
    27   14   15 ar
    28   14   28 1
    29   15   16 1
    30   16   17 1
    31   16   29 1
    32   16   30 1
    33   17   31 1
    34   17   32 1
    35   17   37 1
    36   18   33 1
    37   19   34 1
    38   20   35 1
    39   21   36 1
    40   37   38 1
    41   37   39 1
@<TRIPOS>MOLECULE
ZINC00135449
   46    49     0     0     0
SMALL
USER_CHARGES

@<TRIPOS>ATOM
      1 C1          0.6605    1.5200   -0.0407 C.3       1 <0>        -0.0529
      2 N1          0.4452    0.0672   -0.0107 N.4       1 <0>        -0.3827
      3 C2          0.9258   -0.5225   -1.2604 C.3       1 <0>        -0.0046
      4 C3          0.5470   -1.9919   -1.3464 C.3       1 <0>        -0.1055
      5 C4          0.6791   -2.6890   -0.0217 C.ar      1 <0>        -0.0671
      6 C5          0.5061   -4.0675    0.0137 C.ar      1 <0>        -0.1258
      7 C6          0.6400   -4.7686    1.1984 C.ar      1 <0>         0.1276
      8 C7          0.9473   -4.0883    2.3713 C.ar      1 <0>         0.0910
      9 C8          1.1004   -2.7042    2.3419 C.ar      1 <0>        -0.0079
     10 C9          0.9725   -2.0051    1.1384 C.ar      1 <0>        -0.1226
     11 C10         1.1795   -0.5133    1.1232 C.3       1 <0>         0.0922
     12 H1          2.2423   -0.2967    1.0147 H         1 <0>         0.1492
     13 C11         0.6688    0.1232    2.4140 C.3       1 <0>        -0.0898
     14 C12         1.2332   -0.5808    3.6175 C.ar      1 <0>        -0.1044
     15 C13         1.4258   -1.9603    3.5820 C.ar      1 <0>        -0.0291
     16 C14         1.9205   -2.6263    4.6996 C.ar      1 <0>        -0.1738
     17 C15         2.2351   -1.9102    5.8416 C.ar      1 <0>         0.1123
     18 C16         2.0571   -0.5294    5.8675 C.ar      1 <0>         0.0968
     19 C17         1.5565    0.1304    4.7551 C.ar      1 <0>        -0.0977
     20 O1          2.3752    0.1742    6.9867 O.3       1 <0>        -0.4817
     21 O2          2.7174   -2.5547    6.9377 O.3       1 <0>        -0.2998
     22 C18         2.8742   -3.9717    6.8404 C.3       1 <0>         0.0220
     23 O3          1.0970   -4.7691    3.5386 O.3       1 <0>        -0.3245
     24 C19        -0.0915   -5.0608    4.2765 C.3       1 <0>         0.0301
     25 O4          0.4711   -6.1180    1.2160 O.3       1 <0>        -0.4846
     26 H2          1.7248    1.7273   -0.1524 H         1 <0>         0.1258
     27 H3          0.1163    1.9507   -0.8811 H         1 <0>         0.1296
     28 H4          0.3004    1.9600    0.8893 H         1 <0>         0.1281
     29 H5          0.4840    0.0114   -2.1018 H         1 <0>         0.1412
     30 H6          2.0107   -0.4286   -1.3071 H         1 <0>         0.1318
     31 H7         -0.4853   -2.0719   -1.6872 H         1 <0>         0.1081
     32 H8          1.1963   -2.4830   -2.0712 H         1 <0>         0.1263
     33 H9          0.2637   -4.5979   -0.8953 H         1 <0>         0.1485
     34 H10         0.9668    1.1714    2.4392 H         1 <0>         0.1075
     35 H11        -0.4191    0.0599    2.4390 H         1 <0>         0.0988
     36 H12         2.0580   -3.6973    4.6760 H         1 <0>         0.1703
     37 H13         1.4195    1.2014    4.7791 H         1 <0>         0.1450
     38 H14         3.2892    0.4894    7.0067 H         1 <0>         0.3955
     39 H15         1.9077   -4.4308    6.6323 H         1 <0>         0.0581
     40 H16         3.5688   -4.2059    6.0337 H         1 <0>         0.0599
     41 H17         3.2656   -4.3594    7.7809 H         1 <0>         0.1092
     42 H18         0.1751   -5.5253    5.2258 H         1 <0>         0.1030
     43 H19        -0.6381   -4.1368    4.4649 H         1 <0>         0.0509
     44 H20        -0.7180   -5.7427    3.7015 H         1 <0>         0.0624
     45 H21         1.2837   -6.6181    1.0587 H         1 <0>         0.4067
     46 H22        -0.5400   -0.1243    0.0937 H         1 <0>         0.4265
@<TRIPOS>BOND
     1    1    2 1
     2    1   26 1
     3    1   27 1
     4    1   28 1
     5    2   11 1
     6    2    3 1
     7    2   46 1
     8    3    4 1
     9    3   29 1
    10    3   30 1
    11    4    5 1
    12    4   31 1
    13    4   32 1
    14    5   10 ar
    15    5    6 ar
    16    6    7 ar
    17    6   33 1
    18    7    8 ar
    19    7   25 1
    20    8    9 ar
    21    8   23 1
    22    9   15 1
    23    9   10 ar
    24   10   11 1
    25   11   12 1
    26   11   13 1
    27   13   14 1
    28   13   34 1
    29   13   35 1
    30   14   19 ar
    31   14   15 ar
    32   15   16 ar
    33   16   17 ar
    34   16   36 1
    35   17   18 ar
    36   17   21 1
    37   18   19 ar
    38   18   20 1
    39   19   37 1
    40   20   38 1
    41   21   22 1
    42   22   39 1
    43   22   40 1
    44   22   41 1
    45   23   24 1
    46   24   42 1
    47   24   43 1
    48   24   44 1
    49   25   45 1
@<TRIPOS>MOLECULE
ZINC00135449
   45    48     0     0     0
SMALL
USER_CHARGES

@<TRIPOS>ATOM
      1 C1          0.6622    1.4955   -0.0548 C.3       1 <0>         0.0195
      2 N1          0.4475    0.0426   -0.0248 N.3       1 <0>        -0.5353
      3 C2          0.8370   -0.5716   -1.2953 C.3       1 <0>         0.0544
      4 C3          0.3847   -2.0210   -1.3556 C.3       1 <0>        -0.0781
      5 C4          0.5256   -2.7201   -0.0330 C.ar      1 <0>        -0.0485
      6 C5          0.2905   -4.0900    0.0085 C.ar      1 <0>        -0.1335
      7 C6          0.4252   -4.7974    1.1891 C.ar      1 <0>         0.0954
      8 C7          0.7956   -4.1336    2.3531 C.ar      1 <0>         0.0779
      9 C8          1.0122   -2.7581    2.3183 C.ar      1 <0>        -0.0371
     10 C9          0.8858   -2.0531    1.1177 C.ar      1 <0>        -0.0564
     11 C10         1.1698   -0.5738    1.0978 C.3       1 <0>         0.1318
     12 H1          2.2403   -0.4127    0.9711 H         1 <0>         0.0599
     13 C11         0.7159    0.0869    2.3976 C.3       1 <0>        -0.0693
     14 C12         1.2749   -0.6430    3.5887 C.ar      1 <0>        -0.0893
     15 C13         1.4023   -2.0299    3.5491 C.ar      1 <0>        -0.0191
     16 C14         1.8935   -2.7186    4.6547 C.ar      1 <0>        -0.1786
     17 C15         2.2681   -2.0181    5.7882 C.ar      1 <0>         0.0962
     18 C16         2.1536   -0.6307    5.8180 C.ar      1 <0>         0.0837
     19 C17         1.6575    0.0521    4.7176 C.ar      1 <0>        -0.1061
     20 O1          2.5293    0.0567    6.9295 O.3       1 <0>        -0.4856
     21 O2          2.7474   -2.6846    6.8724 O.3       1 <0>        -0.3067
     22 C18         2.8374   -4.1072    6.7718 C.3       1 <0>         0.0250
     23 O3          0.9448   -4.8215    3.5163 O.3       1 <0>        -0.3268
     24 C19        -0.2357   -5.0579    4.2861 C.3       1 <0>         0.0323
     25 O4          0.1957   -6.1378    1.2114 O.3       1 <0>        -0.4899
     26 H2          1.7263    1.7033   -0.1676 H         1 <0>         0.0293
     27 H3          0.1169    1.9261   -0.8947 H         1 <0>         0.0738
     28 H4          0.3028    1.9352    0.8756 H         1 <0>         0.0758
     29 H5          0.3799   -0.0188   -2.1159 H         1 <0>         0.0859
     30 H6          1.9216   -0.5299   -1.3961 H         1 <0>         0.0373
     31 H7         -0.6610   -2.0520   -1.6617 H         1 <0>         0.0871
     32 H8          0.9839   -2.5472   -2.0987 H         1 <0>         0.0843
     33 H9         -0.0014   -4.6082   -0.8929 H         1 <0>         0.1362
     34 H10         1.0621    1.1204    2.4150 H         1 <0>         0.0838
     35 H11        -0.3729    0.0728    2.4464 H         1 <0>         0.0916
     36 H12         1.9815   -3.7946    4.6282 H         1 <0>         0.1662
     37 H13         1.5708    1.1283    4.7441 H         1 <0>         0.1395
     38 H14         3.4569    0.3301    6.9280 H         1 <0>         0.3876
     39 H15         3.5006   -4.3721    5.9484 H         1 <0>         0.0568
     40 H16         3.2338   -4.5129    7.7026 H         1 <0>         0.1018
     41 H17         1.8462   -4.5218    6.5877 H         1 <0>         0.0554
     42 H18        -0.7334   -4.1096    4.4887 H         1 <0>         0.0480
     43 H19        -0.9086   -5.7095    3.7287 H         1 <0>         0.0564
     44 H20         0.0344   -5.5350    5.2282 H         1 <0>         0.0939
     45 H21         0.9800   -6.6741    1.0317 H         1 <0>         0.3936
@<TRIPOS>BOND
     1    1    2 1
     2    1   26 1
     3    1   27 1
     4    1   28 1
     5    2   11 1
     6    2    3 1
     7    3    4 1
     8    3   29 1
     9    3   30 1
    10    4    5 1
    11    4   31 1
    12    4   32 1
    13    5   10 ar
    14    5    6 ar
    15    6    7 ar
    16    6   33 1
    17    7    8 ar
    18    7   25 1
    19    8    9 ar
    20    8   23 1
    21    9   15 1
    22    9   10 ar
    23   10   11 1
    24   11   12 1
    25   11   13 1
    26   13   14 1
    27   13   34 1
    28   13   35 1
    29   14   19 ar
    30   14   15 ar
    31   15   16 ar
    32   16   17 ar
    33   16   36 1
    34   17   18 ar
    35   17   21 1
    36   18   19 ar
    37   18   20 1
    38   19   37 1
    39   20   38 1
    40   21   22 1
    41   22   39 1
    42   22   40 1
    43   22   41 1
    44   23   24 1
    45   24   42 1
    46   24   43 1
    47   24   44 1
    48   25   45 1
@<TRIPOS>MOLECULE
ZINC00020248
   46    48     0     0     0
SMALL
USER_CHARGES

@<TRIPOS>ATOM
      1 C1         -5.6600    1.3618    0.4597 C.3       1 <0>        -0.0474
      2 N1         -5.6471   -0.0878    0.2218 N.4       1 <0>        -0.3867
      3 C2         -6.3574   -0.3850   -1.0293 C.3       1 <0>        -0.0523
      4 C3         -4.2581   -0.5548    0.1191 C.3       1 <0>        -0.0083
      5 C4         -4.2405   -2.0797   -0.0038 C.3       1 <0>        -0.1741
      6 C5         -2.7938   -2.5661   -0.1108 C.3       1 <0>         0.1309
      7 N2         -2.7704   -4.0309   -0.1190 N.pl3     1 <0>        -0.5935
      8 C6         -2.7303   -4.6837   -1.3451 C.ar      1 <0>         0.1859
      9 C7         -1.8260   -4.1660   -2.2811 C.ar      1 <0>        -0.1574
     10 C8         -1.6797   -4.7476   -3.5192 C.ar      1 <0>        -0.0952
     11 C9         -2.4365   -5.8609   -3.8384 C.ar      1 <0>        -0.1332
     12 C10        -3.3330   -6.3646   -2.9249 C.ar      1 <0>        -0.0999
     13 C11        -3.5037   -5.7750   -1.6688 C.ar      1 <0>        -0.1089
     14 C12        -4.5743   -6.4166   -0.8216 C.3       1 <0>        -0.0721
     15 C13        -4.9918   -5.6033    0.3783 C.3       1 <0>        -0.0690
     16 C14        -3.8887   -5.4681    1.3836 C.ar      1 <0>        -0.0980
     17 C15        -2.7839   -4.6994    1.1019 C.ar      1 <0>         0.1741
     18 C16        -1.7322   -4.5882    1.9998 C.ar      1 <0>        -0.1187
     19 C17        -1.8086   -5.2524    3.2126 C.ar      1 <0>        -0.0223
     20 C18        -2.9248   -6.0132    3.5136 C.ar      1 <0>        -0.1131
     21 C19        -3.9754   -6.1256    2.6005 C.ar      1 <0>        -0.0889
     22 Cl1        -0.5058   -5.1313    4.3535 Cl        1 <0>        -0.0554
     23 H1         -6.6906    1.7083    0.5359 H         1 <0>         0.1247
     24 H2         -5.1330    1.5823    1.3879 H         1 <0>         0.1236
     25 H3         -5.1660    1.8703   -0.3683 H         1 <0>         0.1224
     26 H4         -5.8633    0.1235   -1.8572 H         1 <0>         0.1230
     27 H5         -6.3478   -1.4606   -1.2058 H         1 <0>         0.1233
     28 H6         -7.3880   -0.0385   -0.9531 H         1 <0>         0.1247
     29 H7         -3.7907   -0.1139   -0.7614 H         1 <0>         0.1315
     30 H8         -3.7074   -0.2558    1.0110 H         1 <0>         0.1322
     31 H9         -4.7079   -2.5206    0.8766 H         1 <0>         0.0896
     32 H10        -4.7912   -2.3787   -0.8957 H         1 <0>         0.0908
     33 H11        -2.3515   -2.1905   -1.0335 H         1 <0>         0.0902
     34 H12        -2.2229   -2.1984    0.7418 H         1 <0>         0.0815
     35 H13        -1.2357   -3.2979   -2.0274 H         1 <0>         0.1217
     36 H14        -0.9815   -4.3392   -4.2348 H         1 <0>         0.1273
     37 H15        -2.3238   -6.3333   -4.8030 H         1 <0>         0.1262
     38 H16        -3.9182   -7.2346   -3.1839 H         1 <0>         0.1241
     39 H17        -5.4518   -6.5884   -1.4450 H         1 <0>         0.0825
     40 H18        -4.2074   -7.3823   -0.4739 H         1 <0>         0.0763
     41 H19        -5.2905   -4.6094    0.0453 H         1 <0>         0.0673
     42 H20        -5.8457   -6.0866    0.8532 H         1 <0>         0.0790
     43 H21        -0.8653   -3.9919    1.7562 H         1 <0>         0.1372
     44 H22        -2.9858   -6.5230    4.4638 H         1 <0>         0.1382
     45 H23        -4.8449   -6.7215    2.8354 H         1 <0>         0.1390
     46 H24        -6.1044   -0.5585    0.9882 H         1 <0>         0.4269
@<TRIPOS>BOND
     1    1    2 1
     2    1   23 1
     3    1   24 1
     4    1   25 1
     5    2    3 1
     6    2    4 1
     7    2   46 1
     8    3   26 1
     9    3   27 1
    10    3   28 1
    11    4    5 1
    12    4   29 1
    13    4   30 1
    14    5    6 1
    15    5   31 1
    16    5   32 1
    17    6    7 1
    18    6   33 1
    19    6   34 1
    20    7   17 1
    21    7    8 1
    22    8   13 ar
    23    8    9 ar
    24    9   10 ar
    25    9   35 1
    26   10   11 ar
    27   10   36 1
    28   11   12 ar
    29   11   37 1
    30   12   13 ar
    31   12   38 1
    32   13   14 1
    33   14   15 1
    34   14   39 1
    35   14   40 1
    36   15   16 1
    37   15   41 1
    38   15   42 1
    39   16   21 ar
    40   16   17 ar
    41   17   18 ar
    42   18   19 ar
    43   18   43 1
    44   19   20 ar
    45   19   22 1
    46   20   21 ar
    47   20   44 1
    48   21   45 1
@<TRIPOS>MOLECULE
ZINC02183637
   61    64     0     0     0
SMALL
USER_CHARGES
(8aR)-2-[4-[4-[3-(trifluoromethyl)phenyl]piperazin-1-yl]butyl]-6,7,8,8a-tetrahydro-5H-imidazo[1,5-a]pyridine-1,3-dione
@<TRIPOS>ATOM
      1 C1         -2.7397    2.5386    2.3644 C.ar      1 <0>        -0.0881
      2 C2         -2.0876    2.0980    1.2270 C.ar      1 <0>        -0.0780
      3 C3         -0.7223    1.8808    1.2496 C.ar      1 <0>        -0.1518
      4 C4         -0.0033    2.1142    2.4056 C.ar      1 <0>        -0.0825
      5 C5         -0.6542    2.5621    3.5479 C.ar      1 <0>         0.0882
      6 C6         -2.0270    2.7738    3.5234 C.ar      1 <0>        -0.1325
      7 N1          0.0699    2.7995    4.7185 N.pl3     1 <0>        -0.4856
      8 C7          0.8134    1.6006    5.1301 C.3       1 <0>         0.0235
      9 C8          1.6537    1.9246    6.3677 C.3       1 <0>        -0.0018
     10 C9          0.0283    3.5892    7.0354 C.3       1 <0>         0.0031
     11 C10        -0.8119    3.2652    5.7979 C.3       1 <0>         0.0190
     12 C11         1.5334    2.6400    8.6782 C.3       1 <0>        -0.0024
     13 C12         2.0887    1.3178    9.2114 C.3       1 <0>        -0.1462
     14 C13         2.8819    1.5779   10.4936 C.3       1 <0>        -0.1344
     15 C14         3.4372    0.2557   11.0268 C.3       1 <0>         0.1195
     16 N2          4.1967    0.5047   12.2546 N.am      1 <0>        -0.5830
     17 C15         5.5191    0.7749   12.2871 C.2       1 <0>         0.5287
     18 O1          6.2665    0.8930   11.3399 O.2       1 <0>        -0.4615
     19 C16         5.8729    0.9027   13.7516 C.3       1 <0>         0.0852
     20 H1          6.5321    0.1020   14.0868 H         1 <0>         0.1367
     21 C17         6.4664    2.2818   14.0543 C.3       1 <0>        -0.1140
     22 C18         6.4533    2.5006   15.5703 C.3       1 <0>        -0.1221
     23 C19         5.0181    2.5187   16.0968 C.3       1 <0>        -0.1396
     24 C20         4.3531    1.1586   15.8340 C.3       1 <0>         0.1469
     25 N3          4.5538    0.8396   14.4187 N.am      1 <0>        -0.6167
     26 C21         3.6654    0.4870   13.4865 C.2       1 <0>         0.7041
     27 O2          2.5125    0.1854   13.7255 O.2       1 <0>        -0.5414
     28 C22        -0.0169    1.3948    0.0097 C.3       1 <0>         0.5070
     29 F1          0.0021   -0.0041    0.0020 F         1 <0>        -0.1726
     30 F2          1.2956    1.8790   -0.0002 F         1 <0>        -0.1744
     31 F3         -0.6935    1.8582   -1.1237 F         1 <0>        -0.1703
     32 H2         -3.8070    2.7030    2.3446 H         1 <0>         0.1442
     33 H3         -2.6466    1.9193    0.3205 H         1 <0>         0.1443
     34 H4          1.0638    1.9482    2.4214 H         1 <0>         0.1417
     35 H5         -2.5362    3.1224    4.4098 H         1 <0>         0.1375
     36 H6          0.1117    0.8007    5.3662 H         1 <0>         0.0727
     37 H7          1.4684    1.2825    4.3190 H         1 <0>         0.1290
     38 H8          2.3739    2.7056    6.1240 H         1 <0>         0.1428
     39 H9          2.1837    1.0290    6.6920 H         1 <0>         0.1403
     40 H10         0.7300    4.3891    6.7993 H         1 <0>         0.1419
     41 H11        -0.6267    3.9072    7.8466 H         1 <0>         0.1397
     42 H12        -1.3419    4.1608    5.4735 H         1 <0>         0.1316
     43 H13        -1.5322    2.4842    6.0416 H         1 <0>         0.0739
     44 H14         2.3576    3.3203    8.4639 H         1 <0>         0.1344
     45 H15         0.8785    3.0870    9.4261 H         1 <0>         0.1325
     46 H16         1.2644    0.6376    9.4257 H         1 <0>         0.0927
     47 H17         2.7436    0.8708    8.4634 H         1 <0>         0.0918
     48 H18         3.7061    2.2582   10.2793 H         1 <0>         0.0808
     49 H19         2.2270    2.0249   11.2416 H         1 <0>         0.0824
     50 H20         2.6130   -0.4245   11.2411 H         1 <0>         0.1011
     51 H21         4.0921   -0.1913   10.2789 H         1 <0>         0.0976
     52 H22         5.8675    3.0522   13.5686 H         1 <0>         0.0722
     53 H23         7.4915    2.3298   13.6868 H         1 <0>         0.0926
     54 H24         6.9329    3.4519   15.8006 H         1 <0>         0.0797
     55 H25         7.0040    1.6942   16.0548 H         1 <0>         0.0736
     56 H26         4.4552    3.3018   15.5887 H         1 <0>         0.0694
     57 H27         5.0280    2.7165   17.1686 H         1 <0>         0.0890
     58 H28         3.2870    1.2189   16.0527 H         1 <0>         0.0980
     59 H29         4.8160    0.3923   16.4558 H         1 <0>         0.0826
     60 N4          0.7532    2.3700    7.4517 N.4       1 <0>        -0.3987
     61 H30         0.0721    1.6268    7.6464 H         1 <0>         0.4259
@<TRIPOS>BOND
     1    1    6 ar
     2    1    2 ar
     3    1   32 1
     4    2    3 ar
     5    2   33 1
     6    3    4 ar
     7    3   28 1
     8    4    5 ar
     9    4   34 1
    10    5    6 ar
    11    5    7 1
    12    6   35 1
    13    7   11 1
    14    7    8 1
    15    8    9 1
    16    8   36 1
    17    8   37 1
    18    9   38 1
    19    9   39 1
    20    9   60 1
    21   10   11 1
    22   10   40 1
    23   10   41 1
    24   10   60 1
    25   11   42 1
    26   11   43 1
    27   12   13 1
    28   12   44 1
    29   12   45 1
    30   12   60 1
    31   13   14 1
    32   13   46 1
    33   13   47 1
    34   14   15 1
    35   14   48 1
    36   14   49 1
    37   15   16 1
    38   15   50 1
    39   15   51 1
    40   16   26 am
    41   16   17 am
    42   17   18 2
    43   17   19 1
    44   19   20 1
    45   19   25 1
    46   19   21 1
    47   21   22 1
    48   21   52 1
    49   21   53 1
    50   22   23 1
    51   22   54 1
    52   22   55 1
    53   23   24 1
    54   23   56 1
    55   23   57 1
    56   24   25 1
    57   24   58 1
    58   24   59 1
    59   25   26 am
    60   26   27 2
    61   28   29 1
    62   28   30 1
    63   28   31 1
    64   60   61 1
@<TRIPOS>MOLECULE
ZINC02183638
   61    64     0     0     0
SMALL
USER_CHARGES
8-[4-[4-[3-(trifluoromethyl)phenyl]piperazin-1-yl]butyl]-6,8-diazabicyclo[4.3.0]nonane-7,9-dione
@<TRIPOS>ATOM
      1 C1         -2.7397    2.5386    2.3644 C.ar      1 <0>        -0.0881
      2 C2         -2.0876    2.0980    1.2270 C.ar      1 <0>        -0.0781
      3 C3         -0.7223    1.8808    1.2496 C.ar      1 <0>        -0.1518
      4 C4         -0.0033    2.1142    2.4056 C.ar      1 <0>        -0.0826
      5 C5         -0.6542    2.5621    3.5479 C.ar      1 <0>         0.0883
      6 C6         -2.0270    2.7738    3.5234 C.ar      1 <0>        -0.1325
      7 N1          0.0699    2.7995    4.7185 N.pl3     1 <0>        -0.4857
      8 C7          0.8134    1.6006    5.1301 C.3       1 <0>         0.0236
      9 C8          1.6537    1.9246    6.3677 C.3       1 <0>        -0.0057
     10 C9          0.0283    3.5892    7.0354 C.3       1 <0>         0.0036
     11 C10        -0.8119    3.2652    5.7979 C.3       1 <0>         0.0190
     12 C11         1.5334    2.6400    8.6782 C.3       1 <0>        -0.0020
     13 C12         2.4812    1.4674    8.9383 C.3       1 <0>        -0.1479
     14 C13         3.2743    1.7275   10.2205 C.3       1 <0>        -0.1353
     15 C14         4.2221    0.5550   10.4806 C.3       1 <0>         0.1202
     16 N2          4.9816    0.8040   11.7084 N.am      1 <0>        -0.5832
     17 C15         6.1724    1.4389   11.7483 C.2       1 <0>         0.5282
     18 O1          6.8109    1.8590   10.8072 O.2       1 <0>        -0.4612
     19 C16         6.5417    1.5193   13.2128 C.3       1 <0>         0.0862
     20 H1          6.5343    2.5418   13.5906 H         1 <0>         0.1364
     21 C17         7.8890    0.8368   13.4674 C.3       1 <0>        -0.1172
     22 C18         8.0428    0.5991   14.9728 C.3       1 <0>        -0.1211
     23 C19         6.9655   -0.3618   15.4764 C.3       1 <0>        -0.1414
     24 C20         5.5765    0.2585   15.2599 C.3       1 <0>         0.1475
     25 N3          5.5029    0.6896   13.8620 N.am      1 <0>        -0.6168
     26 C21         4.5826    0.4243   12.9319 C.2       1 <0>         0.7044
     27 O2          3.5106   -0.0986   13.1657 O.2       1 <0>        -0.5420
     28 C22        -0.0169    1.3948    0.0097 C.3       1 <0>         0.5070
     29 F1          0.0021   -0.0041    0.0020 F         1 <0>        -0.1727
     30 F2          1.2956    1.8790   -0.0002 F         1 <0>        -0.1744
     31 F3         -0.6935    1.8582   -1.1237 F         1 <0>        -0.1703
     32 H2         -3.8070    2.7030    2.3446 H         1 <0>         0.1442
     33 H3         -2.6466    1.9193    0.3205 H         1 <0>         0.1443
     34 H4          1.0638    1.9482    2.4214 H         1 <0>         0.1417
     35 H5         -2.5362    3.1224    4.4098 H         1 <0>         0.1375
     36 H6          0.1117    0.8007    5.3662 H         1 <0>         0.0726
     37 H7          1.4684    1.2825    4.3190 H         1 <0>         0.1288
     38 H8          2.3739    2.7056    6.1240 H         1 <0>         0.1431
     39 H9          2.1837    1.0290    6.6920 H         1 <0>         0.1430
     40 H10         0.7300    4.3891    6.7993 H         1 <0>         0.1418
     41 H11        -0.6267    3.9072    7.8466 H         1 <0>         0.1399
     42 H12        -1.3419    4.1608    5.4735 H         1 <0>         0.1315
     43 H13        -1.5324    2.4844    6.0413 H         1 <0>         0.0739
     44 H14         2.1118    3.5572    8.5679 H         1 <0>         0.1339
     45 H15         0.8447    2.7434    9.5167 H         1 <0>         0.1323
     46 H16         1.9027    0.5502    9.0486 H         1 <0>         0.0927
     47 H17         3.1698    1.3640    8.0997 H         1 <0>         0.0941
     48 H18         3.8528    2.6447   10.1102 H         1 <0>         0.0803
     49 H19         2.5856    1.8309   11.0591 H         1 <0>         0.0841
     50 H20         3.6436   -0.3623   10.5910 H         1 <0>         0.0992
     51 H21         4.9108    0.4515    9.6421 H         1 <0>         0.0981
     52 H22         8.6963    1.4784   13.1142 H         1 <0>         0.0926
     53 H23         7.9234   -0.1171   12.9412 H         1 <0>         0.0747
     54 H24         7.9512    1.5496   15.4983 H         1 <0>         0.0725
     55 H25         9.0262    0.1726   15.1710 H         1 <0>         0.0802
     56 H26         7.1164   -0.5511   16.5392 H         1 <0>         0.0891
     57 H27         7.0326   -1.3015   14.9282 H         1 <0>         0.0712
     58 H28         5.4468    1.1165   15.9195 H         1 <0>         0.0819
     59 H29         4.8038   -0.4839   15.4598 H         1 <0>         0.0982
     60 N4          0.7532    2.3700    7.4517 N.4       1 <0>        -0.3983
     61 H30         0.0721    1.6268    7.6464 H         1 <0>         0.4265
@<TRIPOS>BOND
     1    1    6 ar
     2    1    2 ar
     3    1   32 1
     4    2    3 ar
     5    2   33 1
     6    3    4 ar
     7    3   28 1
     8    4    5 ar
     9    4   34 1
    10    5    6 ar
    11    5    7 1
    12    6   35 1
    13    7   11 1
    14    7    8 1
    15    8    9 1
    16    8   36 1
    17    8   37 1
    18    9   38 1
    19    9   39 1
    20    9   60 1
    21   10   11 1
    22   10   40 1
    23   10   41 1
    24   10   60 1
    25   11   42 1
    26   11   43 1
    27   12   13 1
    28   12   44 1
    29   12   45 1
    30   12   60 1
    31   13   14 1
    32   13   46 1
    33   13   47 1
    34   14   15 1
    35   14   48 1
    36   14   49 1
    37   15   16 1
    38   15   50 1
    39   15   51 1
    40   16   26 am
    41   16   17 am
    42   17   18 2
    43   17   19 1
    44   19   20 1
    45   19   25 1
    46   19   21 1
    47   21   22 1
    48   21   52 1
    49   21   53 1
    50   22   23 1
    51   22   54 1
    52   22   55 1
    53   23   24 1
    54   23   56 1
    55   23   57 1
    56   24   25 1
    57   24   58 1
    58   24   59 1
    59   25   26 am
    60   26   27 2
    61   28   29 1
    62   28   30 1
    63   28   31 1
    64   60   61 1
@<TRIPOS>MOLECULE
ZINC19796155
   42    45     0     0     0
SMALL
USER_CHARGES

@<TRIPOS>ATOM
      1 C1         -0.0670    1.4396   -0.3852 C.3       1 <0>         0.0243
      2 N1         -0.0229   -0.0169   -0.1987 N.3       1 <0>        -0.5428
      3 C2          0.3808   -0.6943   -1.4380 C.3       1 <0>         0.0399
      4 C3          0.2401   -2.2095   -1.2572 C.3       1 <0>         0.1263
      5 N2          0.9912   -2.6085   -0.0572 N.pl3     1 <0>        -0.5953
      6 C4          0.7394   -1.8803    1.1955 C.3       1 <0>         0.1122
      7 C5          0.8604   -0.3781    0.9181 C.3       1 <0>         0.0393
      8 C6          1.9051   -3.6365   -0.1053 C.2       1 <0>         0.5098
      9 N3          2.1670   -4.1290   -1.2643 N.2       1 <0>        -0.6041
     10 C7          3.0130   -5.1503   -1.5719 C.ar      1 <0>         0.1655
     11 C8          2.6280   -6.0848   -2.5372 C.ar      1 <0>        -0.1058
     12 C9          3.4872   -7.1047   -2.8991 C.ar      1 <0>        -0.0230
     13 C10         4.7348   -7.2069   -2.3106 C.ar      1 <0>        -0.1209
     14 C11         5.1212   -6.2977   -1.3402 C.ar      1 <0>        -0.1017
     15 C12         4.2618   -5.2835   -0.9546 C.ar      1 <0>         0.1117
     16 N4          4.6314   -4.4326    0.1003 N.pl3     1 <0>        -0.7261
     17 C13         3.8434   -4.4184    1.2519 C.ar      1 <0>         0.2140
     18 C14         2.4943   -4.0640    1.1729 C.ar      1 <0>        -0.1453
     19 C15         1.7072   -4.1133    2.3240 C.ar      1 <0>        -0.0723
     20 C16         2.2727   -4.4729    3.5311 C.ar      1 <0>        -0.1389
     21 C17         3.6189   -4.7825    3.6069 C.ar      1 <0>        -0.0765
     22 C18         4.3974   -4.7629    2.4751 C.ar      1 <0>        -0.1433
     23 Cl1         2.9987   -8.2627   -4.0966 Cl        1 <0>        -0.0679
     24 H1          0.9359    1.8090   -0.5992 H         1 <0>         0.0255
     25 H2         -0.7279    1.6794   -1.2181 H         1 <0>         0.0711
     26 H3         -0.4416    1.9111    0.5233 H         1 <0>         0.0709
     27 H4         -0.2581   -0.3649   -2.2574 H         1 <0>         0.0878
     28 H5          1.4186   -0.4499   -1.6647 H         1 <0>         0.0378
     29 H6         -0.8117   -2.4673   -1.1334 H         1 <0>         0.0720
     30 H7          0.6453   -2.7216   -2.1299 H         1 <0>         0.1060
     31 H8         -0.2645   -2.1065    1.5551 H         1 <0>         0.0792
     32 H9          1.4746   -2.1748    1.9444 H         1 <0>         0.0984
     33 H10         1.8915   -0.1381    0.6586 H         1 <0>         0.0379
     34 H11         0.5693    0.1807    1.8075 H         1 <0>         0.0892
     35 H12         1.6558   -6.0097   -3.0016 H         1 <0>         0.1375
     36 H13         5.4083   -7.9971   -2.6081 H         1 <0>         0.1357
     37 H14         6.0961   -6.3802   -0.8829 H         1 <0>         0.1326
     38 H15         5.4169   -3.8679    0.0299 H         1 <0>         0.4097
     39 H16         0.6563   -3.8699    2.2709 H         1 <0>         0.1344
     40 H17         1.6613   -4.5124    4.4205 H         1 <0>         0.1323
     41 H18         4.0571   -5.0467    4.5580 H         1 <0>         0.1317
     42 H19         5.4473   -5.0071    2.5424 H         1 <0>         0.1313
@<TRIPOS>BOND
     1    1    2 1
     2    1   24 1
     3    1   25 1
     4    1   26 1
     5    2    7 1
     6    2    3 1
     7    3    4 1
     8    3   27 1
     9    3   28 1
    10    4    5 1
    11    4   29 1
    12    4   30 1
    13    5    6 1
    14    5    8 1
    15    6    7 1
    16    6   31 1
    17    6   32 1
    18    7   33 1
    19    7   34 1
    20    8   18 1
    21    8    9 2
    22    9   10 1
    23   10   15 ar
    24   10   11 ar
    25   11   12 ar
    26   11   35 1
    27   12   13 ar
    28   12   23 1
    29   13   14 ar
    30   13   36 1
    31   14   15 ar
    32   14   37 1
    33   15   16 1
    34   16   17 1
    35   16   38 1
    36   17   22 ar
    37   17   18 ar
    38   18   19 ar
    39   19   20 ar
    40   19   39 1
    41   20   21 ar
    42   20   40 1
    43   21   22 ar
    44   21   41 1
    45   22   42 1
@<TRIPOS>MOLECULE
ZINC19796155
   44    47     0     0     0
SMALL
USER_CHARGES

@<TRIPOS>ATOM
      1 C1         -1.5703   -0.0018   -1.9302 C.3       1 <0>        -0.0497
      2 N1         -0.7527   -0.7171   -0.9414 N.4       1 <0>        -0.3854
      3 C2         -1.0498   -2.1535   -1.0104 C.3       1 <0>        -0.0252
      4 C3         -0.2839   -2.8861    0.0962 C.3       1 <0>         0.1048
      5 N2          1.1441   -2.5548   -0.0269 N.pl3     1 <0>        -0.7052
      6 C4          1.5202   -1.1363   -0.1296 C.3       1 <0>         0.1049
      7 C5          0.6692   -0.4862   -1.2256 C.3       1 <0>        -0.0251
      8 C6          2.0831   -3.5253   -0.0448 C.2       1 <0>         0.6309
      9 C7          2.6112   -3.9094    1.2074 C.ar      1 <0>        -0.2438
     10 C8          2.0495   -3.1929    2.2728 C.ar      1 <0>         0.0055
     11 C9          2.4602   -3.4528    3.5483 C.ar      1 <0>        -0.1817
     12 C10         3.4265   -4.4148    3.8208 C.ar      1 <0>         0.0489
     13 C11         4.0101   -5.1439    2.8276 C.ar      1 <0>        -0.2233
     14 C12         3.6302   -4.9235    1.4921 C.ar      1 <0>         0.3343
     15 N3          4.2865   -5.7106    0.6358 N.pl3     1 <0>        -0.6131
     16 C13         4.1767   -5.7728   -0.7271 C.ar      1 <0>         0.1589
     17 C14         5.0408   -6.7320   -1.2562 C.ar      1 <0>        -0.1157
     18 C15         5.0795   -6.9478   -2.6222 C.ar      1 <0>        -0.0495
     19 C16         4.2642   -6.2154   -3.4643 C.ar      1 <0>        -0.0338
     20 C17         3.4016   -5.2585   -2.9468 C.ar      1 <0>        -0.0846
     21 C18         3.3520   -5.0321   -1.5848 C.ar      1 <0>         0.0769
     22 N4          2.4115   -4.0290   -1.2719 N.pl3     1 <0>        -0.5773
     23 Cl1         4.3195   -6.4929   -5.1771 Cl        1 <0>        -0.0159
     24 H1         -1.3348   -0.3678   -2.9295 H         1 <0>         0.1246
     25 H2         -2.6262   -0.1724   -1.7203 H         1 <0>         0.1321
     26 H3         -1.3566    1.0656   -1.8745 H         1 <0>         0.1321
     27 H4         -2.1201   -2.3101   -0.8766 H         1 <0>         0.1569
     28 H5         -0.7442   -2.5415   -1.9820 H         1 <0>         0.1344
     29 H6         -0.6518   -2.5648    1.0707 H         1 <0>         0.1155
     30 H7         -0.4211   -3.9618   -0.0138 H         1 <0>         0.1302
     31 H8          1.3345   -0.6383    0.8220 H         1 <0>         0.1155
     32 H9          2.5758   -1.0551   -0.3891 H         1 <0>         0.1302
     33 H10         0.9228   -0.9247   -2.1907 H         1 <0>         0.1344
     34 H11         0.8655    0.5856   -1.2504 H         1 <0>         0.1569
     35 H12         1.2975   -2.4405    2.0860 H         1 <0>         0.1502
     36 H13         2.0243   -2.8976    4.3657 H         1 <0>         0.1496
     37 H14         3.7223   -4.5886    4.8448 H         1 <0>         0.1558
     38 H15         4.7590   -5.8851    3.0650 H         1 <0>         0.1623
     39 H16         5.6790   -7.3052   -0.6001 H         1 <0>         0.1677
     40 H17         5.7487   -7.6901   -3.0316 H         1 <0>         0.1653
     41 H18         2.7675   -4.6896   -3.6107 H         1 <0>         0.1565
     42 H19         1.9393   -3.6432   -2.0263 H         1 <0>         0.4255
     43 H20         4.9278   -6.3202    1.0333 H         1 <0>         0.4372
     44 H21        -0.9695   -0.3754   -0.0171 H         1 <0>         0.4310
@<TRIPOS>BOND
     1    1    2 1
     2    1   24 1
     3    1   25 1
     4    1   26 1
     5    2    7 1
     6    2    3 1
     7    2   44 1
     8    3    4 1
     9    3   27 1
    10    3   28 1
    11    4    5 1
    12    4   29 1
    13    4   30 1
    14    5    6 1
    15    5    8 1
    16    6    7 1
    17    6   31 1
    18    6   32 1
    19    7   33 1
    20    7   34 1
    21    8   22 1
    22    8    9 2
    23    9   14 ar
    24    9   10 ar
    25   10   11 ar
    26   10   35 1
    27   11   12 ar
    28   11   36 1
    29   12   13 ar
    30   12   37 1
    31   13   14 ar
    32   13   38 1
    33   14   15 2
    34   15   16 1
    35   15   43 1
    36   16   21 ar
    37   16   17 ar
    38   17   18 ar
    39   17   39 1
    40   18   19 ar
    41   18   40 1
    42   19   20 ar
    43   19   23 1
    44   20   21 ar
    45   20   41 1
    46   21   22 1
    47   22   42 1
@<TRIPOS>MOLECULE
ZINC19796155
   43    46     0     0     0
SMALL
USER_CHARGES

@<TRIPOS>ATOM
      1 C1         -0.0523    1.4387   -0.3863 C.3       1 <0>        -0.0469
      2 N1         -0.0147   -0.0168   -0.1908 N.4       1 <0>        -0.3852
      3 C2          0.4863   -0.6601   -1.4120 C.3       1 <0>        -0.0213
      4 C3          0.4181   -2.1823   -1.2510 C.3       1 <0>         0.1002
      5 N2          1.1441   -2.5548   -0.0269 N.pl3     1 <0>        -0.6180
      6 C4          0.8178   -1.8405    1.2170 C.3       1 <0>         0.0860
      7 C5          0.8671   -0.3344    0.9395 C.3       1 <0>        -0.0221
      8 C6          2.1017   -3.5432   -0.0451 C.2       1 <0>         0.5019
      9 N3          2.4234   -4.0210   -1.1951 N.2       1 <0>        -0.5760
     10 C7          3.3217   -5.0050   -1.4750 C.ar      1 <0>         0.1390
     11 C8          3.0096   -5.9522   -2.4541 C.ar      1 <0>        -0.0932
     12 C9          3.9229   -6.9340   -2.7877 C.ar      1 <0>        -0.0267
     13 C10         5.1529   -6.9852   -2.1572 C.ar      1 <0>        -0.1032
     14 C11         5.4673   -6.0631   -1.1730 C.ar      1 <0>        -0.1031
     15 C12         4.5533   -5.0871   -0.8155 C.ar      1 <0>         0.1235
     16 N4          4.8505   -4.2243    0.2524 N.pl3     1 <0>        -0.7273
     17 C13         4.0239   -4.2464    1.3765 C.ar      1 <0>         0.2173
     18 C14         2.6645   -3.9489    1.2520 C.ar      1 <0>        -0.1537
     19 C15         1.8414   -4.0345    2.3754 C.ar      1 <0>        -0.0841
     20 C16         2.3802   -4.3733    3.6007 C.ar      1 <0>        -0.1334
     21 C17         3.7349   -4.6261    3.7220 C.ar      1 <0>        -0.0692
     22 C18         4.5500   -4.5705    2.6174 C.ar      1 <0>        -0.1369
     23 Cl1         3.5248   -8.1083   -4.0027 Cl        1 <0>        -0.0551
     24 H1          0.9534    1.8033   -0.5956 H         1 <0>         0.1211
     25 H2         -0.7066    1.6758   -1.2253 H         1 <0>         0.1256
     26 H3         -0.4316    1.9169    0.5167 H         1 <0>         0.1252
     27 H4         -0.1269   -0.3565   -2.2605 H         1 <0>         0.1425
     28 H5          1.5196   -0.3587   -1.5839 H         1 <0>         0.1315
     29 H6         -0.6226   -2.4957   -1.1694 H         1 <0>         0.0898
     30 H7          0.8819   -2.6629   -2.1125 H         1 <0>         0.1431
     31 H8         -0.1827   -2.1194    1.5479 H         1 <0>         0.0960
     32 H9          1.5457   -2.0950    1.9873 H         1 <0>         0.1385
     33 H10         1.8889   -0.0428    0.6965 H         1 <0>         0.1320
     34 H11         0.5345    0.2092    1.8238 H         1 <0>         0.1439
     35 H12         2.0515   -5.9169   -2.9512 H         1 <0>         0.1396
     36 H13         5.8689   -7.7454   -2.4325 H         1 <0>         0.1422
     37 H14         6.4287   -6.1057   -0.6827 H         1 <0>         0.1382
     38 H15         5.6134   -3.6267    0.2096 H         1 <0>         0.4129
     39 H16         0.7836   -3.8354    2.2868 H         1 <0>         0.1314
     40 H17         1.7411   -4.4409    4.4686 H         1 <0>         0.1357
     41 H18         4.1512   -4.8742    4.6872 H         1 <0>         0.1370
     42 H19         5.6063   -4.7705    2.7202 H         1 <0>         0.1363
     43 H20        -0.9456   -0.3526    0.0057 H         1 <0>         0.4250
@<TRIPOS>BOND
     1    1    2 1
     2    1   24 1
     3    1   25 1
     4    1   26 1
     5    2    7 1
     6    2    3 1
     7    2   43 1
     8    3    4 1
     9    3   27 1
    10    3   28 1
    11    4    5 1
    12    4   29 1
    13    4   30 1
    14    5    6 1
    15    5    8 1
    16    6    7 1
    17    6   31 1
    18    6   32 1
    19    7   33 1
    20    7   34 1
    21    8   18 1
    22    8    9 2
    23    9   10 1
    24   10   15 ar
    25   10   11 ar
    26   11   12 ar
    27   11   35 1
    28   12   13 ar
    29   12   23 1
    30   13   14 ar
    31   13   36 1
    32   14   15 ar
    33   14   37 1
    34   15   16 1
    35   16   17 1
    36   16   38 1
    37   17   22 ar
    38   17   18 ar
    39   18   19 ar
    40   19   20 ar
    41   19   39 1
    42   20   21 ar
    43   20   40 1
    44   21   22 ar
    45   21   41 1
    46   22   42 1
@<TRIPOS>MOLECULE
ZINC02012436
   61    63     0     0     0
SMALL
USER_CHARGES

@<TRIPOS>ATOM
      1 C1         -0.2976    0.2970   -2.2453 C.3       1 <0>        -0.0696
      2 C2         -0.1307   -0.6466   -1.0821 C.2       1 <0>        -0.2813
      3 C3         -1.1115   -0.7618   -0.1366 C.2       1 <0>         0.4367
      4 N1         -0.9365   -1.6287    0.9146 N.am      1 <0>        -0.5452
      5 C4          0.1895   -2.3587    1.0145 C.2       1 <0>         0.6983
      6 O1          0.3278   -3.1210    1.9515 O.2       1 <0>        -0.5311
      7 N2          1.1645   -2.2580    0.0928 N.am      1 <0>        -0.5563
      8 C5          1.0314   -1.4239   -0.9572 C.2       1 <0>         0.5531
      9 O2          1.9170   -1.3414   -1.7910 O.2       1 <0>        -0.5073
     10 C6          2.3789   -3.0660    0.2291 C.3       1 <0>         0.0776
     11 C7         -1.9816   -1.7588    1.9330 C.3       1 <0>         0.0761
     12 N3         -2.2596   -0.0183   -0.2365 N.pl3     1 <0>        -0.7551
     13 C8         -3.5605   -0.6870   -0.3182 C.3       1 <0>         0.1249
     14 C9         -4.6549    0.3545   -0.5604 C.3       1 <0>        -0.1613
     15 C10        -6.0135   -0.3439   -0.6457 C.3       1 <0>        -0.0062
     16 N4         -7.0643    0.6560   -0.8782 N.4       1 <0>        -0.3795
     17 C11        -6.8569    1.2858   -2.1883 C.3       1 <0>        -0.0280
     18 C12        -7.8826    2.4073   -2.3829 C.3       1 <0>         0.1225
     19 N5         -9.2286    1.8478   -2.1844 N.pl3     1 <0>        -0.6633
     20 C13        -9.4790    1.0587   -0.9684 C.3       1 <0>         0.1217
     21 C14        -8.3779    0.0009   -0.8406 C.3       1 <0>        -0.0220
     22 C15       -10.2424    2.0606   -3.1257 C.ar      1 <0>         0.1077
     23 C16       -10.4206    1.1654   -4.1704 C.ar      1 <0>        -0.0817
     24 C17       -11.4228    1.3775   -5.0983 C.ar      1 <0>        -0.1488
     25 C18       -12.2492    2.4805   -4.9884 C.ar      1 <0>        -0.0664
     26 C19       -12.0775    3.3770   -3.9497 C.ar      1 <0>        -0.2021
     27 C20       -11.0790    3.1689   -3.0127 C.ar      1 <0>         0.1289
     28 O3        -10.9123    4.0471   -1.9876 O.3       1 <0>        -0.3116
     29 C21       -11.8067    5.1604   -1.9351 C.3       1 <0>         0.0228
     30 H1          0.5823    0.2428   -2.8862 H         1 <0>         0.0815
     31 H2         -1.1817    0.0157   -2.8174 H         1 <0>         0.0627
     32 H3         -0.4141    1.3150   -1.8735 H         1 <0>         0.0616
     33 H4          2.2412   -4.0181   -0.2835 H         1 <0>         0.0762
     34 H5          3.2210   -2.5337   -0.2132 H         1 <0>         0.0966
     35 H6          2.5780   -3.2474    1.2852 H         1 <0>         0.0933
     36 H7         -2.6394   -2.5886    1.6747 H         1 <0>         0.0735
     37 H8         -1.5220   -1.9479    2.9032 H         1 <0>         0.0968
     38 H9         -2.5609   -0.8366    1.9790 H         1 <0>         0.0883
     39 H10        -2.2102    0.9503   -0.2531 H         1 <0>         0.4177
     40 H11        -3.5506   -1.4017   -1.1411 H         1 <0>         0.0754
     41 H12        -3.7586   -1.2117    0.6164 H         1 <0>         0.0722
     42 H13        -4.6648    1.0692    0.2625 H         1 <0>         0.0965
     43 H14        -4.4567    0.8792   -1.4950 H         1 <0>         0.0987
     44 H15        -6.0037   -1.0586   -1.4686 H         1 <0>         0.1332
     45 H16        -6.2117   -0.8686    0.2889 H         1 <0>         0.1349
     46 H17        -5.8504    1.7015   -2.2365 H         1 <0>         0.1365
     47 H18        -6.9803    0.5401   -2.9737 H         1 <0>         0.1312
     48 H19        -7.7036    3.1980   -1.6542 H         1 <0>         0.0775
     49 H20        -7.7984    2.8096   -3.3924 H         1 <0>         0.1142
     50 H21        -9.4611    1.7132   -0.0969 H         1 <0>         0.0779
     51 H22       -10.4501    0.5694   -1.0428 H         1 <0>         0.1146
     52 H23        -8.4552   -0.7060   -1.6667 H         1 <0>         0.1307
     53 H24        -8.4921   -0.5304    0.1043 H         1 <0>         0.1366
     54 H25        -9.7762    0.3032   -4.2588 H         1 <0>         0.1266
     55 H26       -11.5605    0.6802   -5.9114 H         1 <0>         0.1308
     56 H27       -13.0308    2.6424   -5.7160 H         1 <0>         0.1322
     57 H28       -12.7248    4.2376   -3.8668 H         1 <0>         0.1342
     58 H29       -11.7059    5.7507   -2.8459 H         1 <0>         0.0591
     59 H30       -12.8315    4.7993   -1.8477 H         1 <0>         0.0590
     60 H31       -11.5651    5.7803   -1.0717 H         1 <0>         0.1037
     61 H32        -7.0209    1.3614   -0.1580 H         1 <0>         0.4227
@<TRIPOS>BOND
     1    1    2 1
     2    1   30 1
     3    1   31 1
     4    1   32 1
     5    2    8 1
     6    2    3 2
     7    3    4 1
     8    3   12 1
     9    4    5 am
    10    4   11 1
    11    5    6 2
    12    5    7 am
    13    7    8 am
    14    7   10 1
    15    8    9 2
    16   10   33 1
    17   10   34 1
    18   10   35 1
    19   11   36 1
    20   11   37 1
    21   11   38 1
    22   12   13 1
    23   12   39 1
    24   13   14 1
    25   13   40 1
    26   13   41 1
    27   14   15 1
    28   14   42 1
    29   14   43 1
    30   15   16 1
    31   15   44 1
    32   15   45 1
    33   16   21 1
    34   16   17 1
    35   16   61 1
    36   17   18 1
    37   17   46 1
    38   17   47 1
    39   18   19 1
    40   18   48 1
    41   18   49 1
    42   19   20 1
    43   19   22 1
    44   20   21 1
    45   20   50 1
    46   20   51 1
    47   21   52 1
    48   21   53 1
    49   22   27 ar
    50   22   23 ar
    51   23   24 ar
    52   23   54 1
    53   24   25 ar
    54   24   55 1
    55   25   26 ar
    56   25   56 1
    57   26   27 ar
    58   26   57 1
    59   27   28 1
    60   28   29 1
    61   29   58 1
    62   29   59 1
    63   29   60 1
@<TRIPOS>MOLECULE
ZINC02012436
   60    62     0     0     0
SMALL
USER_CHARGES

@<TRIPOS>ATOM
      1 C1         -0.2976    0.2970   -2.2453 C.3       1 <0>        -0.0664
      2 C2         -0.1307   -0.6466   -1.0821 C.2       1 <0>        -0.2994
      3 C3         -1.1115   -0.7618   -0.1366 C.2       1 <0>         0.4503
      4 N1         -0.9365   -1.6287    0.9146 N.am      1 <0>        -0.5436
      5 C4          0.1895   -2.3587    1.0145 C.2       1 <0>         0.6990
      6 O1          0.3278   -3.1210    1.9515 O.2       1 <0>        -0.5389
      7 N2          1.1645   -2.2580    0.0928 N.am      1 <0>        -0.5582
      8 C5          1.0314   -1.4239   -0.9572 C.2       1 <0>         0.5569
      9 O2          1.9170   -1.3414   -1.7910 O.2       1 <0>        -0.5179
     10 C6          2.3789   -3.0660    0.2291 C.3       1 <0>         0.0803
     11 C7         -1.9816   -1.7588    1.9330 C.3       1 <0>         0.0753
     12 N3         -2.2596   -0.0183   -0.2365 N.pl3     1 <0>        -0.7531
     13 C8         -3.5605   -0.6870   -0.3182 C.3       1 <0>         0.1209
     14 C9         -4.6549    0.3545   -0.5604 C.3       1 <0>        -0.1259
     15 C10        -6.0135   -0.3439   -0.6457 C.3       1 <0>         0.0589
     16 N4         -7.0643    0.6560   -0.8782 N.3       1 <0>        -0.5336
     17 C11        -6.9059    1.2900   -2.1938 C.3       1 <0>         0.0377
     18 C12        -7.9037    2.4458   -2.3236 C.3       1 <0>         0.1533
     19 N5         -9.2524    1.9329   -2.0388 N.pl3     1 <0>        -0.6681
     20 C13        -9.4582    1.1663   -0.8005 C.3       1 <0>         0.1532
     21 C14        -8.3992    0.0609   -0.7307 C.3       1 <0>         0.0417
     22 C15       -10.3120    2.1685   -2.9223 C.ar      1 <0>         0.1379
     23 C16       -10.5799    1.2679   -3.9430 C.ar      1 <0>        -0.0878
     24 C17       -11.6272    1.5026   -4.8140 C.ar      1 <0>        -0.1520
     25 C18       -12.4095    2.6335   -4.6709 C.ar      1 <0>        -0.0831
     26 C19       -12.1485    3.5356   -3.6559 C.ar      1 <0>        -0.2064
     27 C20       -11.1042    3.3051   -2.7757 C.ar      1 <0>         0.1195
     28 O3        -10.8495    4.1889   -1.7737 O.3       1 <0>        -0.3044
     29 C21       -11.7028    5.3317   -1.6842 C.3       1 <0>         0.0251
     30 H1          0.5823    0.2428   -2.8862 H         1 <0>         0.0771
     31 H2         -1.1817    0.0157   -2.8174 H         1 <0>         0.0632
     32 H3         -0.4141    1.3150   -1.8735 H         1 <0>         0.0601
     33 H4          2.2412   -4.0181   -0.2835 H         1 <0>         0.0731
     34 H5          3.2210   -2.5337   -0.2132 H         1 <0>         0.0939
     35 H6          2.5780   -3.2474    1.2852 H         1 <0>         0.0908
     36 H7         -2.6394   -2.5886    1.6747 H         1 <0>         0.0745
     37 H8         -1.5220   -1.9479    2.9032 H         1 <0>         0.0935
     38 H9         -2.5609   -0.8366    1.9790 H         1 <0>         0.0936
     39 H10        -2.2102    0.9503   -0.2531 H         1 <0>         0.4171
     40 H11        -3.5506   -1.4017   -1.1411 H         1 <0>         0.0639
     41 H12        -3.7586   -1.2117    0.6164 H         1 <0>         0.0635
     42 H13        -4.6648    1.0692    0.2625 H         1 <0>         0.0813
     43 H14        -4.4567    0.8792   -1.4950 H         1 <0>         0.0742
     44 H15        -6.0037   -1.0586   -1.4686 H         1 <0>         0.0359
     45 H16        -6.2117   -0.8686    0.2889 H         1 <0>         0.0776
     46 H17        -5.8904    1.6733   -2.2930 H         1 <0>         0.0821
     47 H18        -7.0960    0.5557   -2.9767 H         1 <0>         0.0351
     48 H19        -7.6514    3.2293   -1.6091 H         1 <0>         0.0576
     49 H20        -7.8706    2.8460   -3.3370 H         1 <0>         0.0691
     50 H21        -9.3553    1.8269    0.0604 H         1 <0>         0.0581
     51 H22       -10.4529    0.7206   -0.8068 H         1 <0>         0.0697
     52 H23        -8.5685   -0.6562   -1.5339 H         1 <0>         0.0354
     53 H24        -8.4667   -0.4471    0.2313 H         1 <0>         0.0801
     54 H25        -9.9700    0.3839   -4.0572 H         1 <0>         0.1250
     55 H26       -11.8346    0.8010   -5.6084 H         1 <0>         0.1240
     56 H27       -13.2266    2.8130   -5.3540 H         1 <0>         0.1247
     57 H28       -12.7616    4.4180   -3.5470 H         1 <0>         0.1278
     58 H29       -11.3911    5.9530   -0.8446 H         1 <0>         0.0993
     59 H30       -11.6363    5.9080   -2.6070 H         1 <0>         0.0539
     60 H31       -12.7318    5.0058   -1.5327 H         1 <0>         0.0538
@<TRIPOS>BOND
     1    1    2 1
     2    1   30 1
     3    1   31 1
     4    1   32 1
     5    2    8 1
     6    2    3 2
     7    3    4 1
     8    3   12 1
     9    4    5 am
    10    4   11 1
    11    5    6 2
    12    5    7 am
    13    7    8 am
    14    7   10 1
    15    8    9 2
    16   10   33 1
    17   10   34 1
    18   10   35 1
    19   11   36 1
    20   11   37 1
    21   11   38 1
    22   12   13 1
    23   12   39 1
    24   13   14 1
    25   13   40 1
    26   13   41 1
    27   14   15 1
    28   14   42 1
    29   14   43 1
    30   15   16 1
    31   15   44 1
    32   15   45 1
    33   16   21 1
    34   16   17 1
    35   17   18 1
    36   17   46 1
    37   17   47 1
    38   18   19 1
    39   18   48 1
    40   18   49 1
    41   19   20 1
    42   19   22 1
    43   20   21 1
    44   20   50 1
    45   20   51 1
    46   21   52 1
    47   21   53 1
    48   22   27 ar
    49   22   23 ar
    50   23   24 ar
    51   23   54 1
    52   24   25 ar
    53   24   55 1
    54   25   26 ar
    55   25   56 1
    56   26   27 ar
    57   26   57 1
    58   27   28 1
    59   28   29 1
    60   29   58 1
    61   29   59 1
    62   29   60 1
@<TRIPOS>MOLECULE
ZINC02183635
   58    61     0     0     0
SMALL
USER_CHARGES

@<TRIPOS>ATOM
      1 C1          1.2094   -0.6829   -0.0260 C.ar      1 <0>        -0.0559
      2 C2          2.3979    0.0209   -0.0345 C.ar      1 <0>        -0.1842
      3 C3          2.3816    1.4097   -0.0131 C.ar      1 <0>         0.2106
      4 C4          1.1691    2.0868    0.0169 C.ar      1 <0>        -0.1817
      5 C5         -0.0166    1.3770    0.0253 C.ar      1 <0>         0.0119
      6 C6          0.0038   -0.0070    0.0039 C.ar      1 <0>        -0.1486
      7 Cl1        -1.5329    2.2215    0.0634 Cl        1 <0>        -0.0536
      8 N1          3.5819    2.1238   -0.0212 N.pl3     1 <0>        -0.6431
      9 C7          3.5881    3.5917   -0.1177 C.3       1 <0>         0.0984
     10 C8          4.5524    4.0009   -1.2359 C.3       1 <0>        -0.0215
     11 N2          5.8707    3.4044   -0.9867 N.4       1 <0>        -0.3823
     12 C9          5.7793    1.9407   -1.0599 C.3       1 <0>        -0.0282
     13 C10         4.8756    1.4298    0.0728 C.3       1 <0>         0.1007
     14 C11         6.8225    3.8848   -1.9973 C.3       1 <0>        -0.0088
     15 C12         8.2229    3.3642   -1.6673 C.3       1 <0>        -0.1447
     16 C13         9.2142    3.8646   -2.7198 C.3       1 <0>        -0.1346
     17 C14        10.6145    3.3440   -2.3897 C.3       1 <0>         0.1197
     18 N3         11.5637    3.8232   -3.3975 N.am      1 <0>        -0.5834
     19 C15        11.8574    3.1624   -4.5376 C.2       1 <0>         0.5274
     20 O1         11.3713    2.1226   -4.9278 O.2       1 <0>        -0.4622
     21 C16        12.9190    3.9901   -5.2264 C.3       1 <0>         0.0849
     22 H1         13.8758    3.4690   -5.2571 H         1 <0>         0.1366
     23 C17        12.4613    4.4047   -6.6281 C.3       1 <0>        -0.1145
     24 C18        13.3720    5.5298   -7.1294 C.3       1 <0>        -0.1223
     25 C19        13.2335    6.7669   -6.2419 C.3       1 <0>        -0.1402
     26 C20        13.6824    6.4309   -4.8113 C.3       1 <0>         0.1470
     27 N4         12.9873    5.2071   -4.3889 N.am      1 <0>        -0.6162
     28 C21        12.2442    4.9757   -3.3043 C.2       1 <0>         0.7044
     29 O2         12.1930    5.7195   -2.3445 O.2       1 <0>        -0.5410
     30 H2          1.2219   -1.7626   -0.0473 H         1 <0>         0.1393
     31 H3          3.3391   -0.5082   -0.0575 H         1 <0>         0.1297
     32 H4          1.1530    3.1665    0.0341 H         1 <0>         0.1338
     33 H5         -0.9239   -0.5598    0.0102 H         1 <0>         0.1383
     34 H6          2.5846    3.9477   -0.3509 H         1 <0>         0.1269
     35 H7          3.9211    4.0195    0.8279 H         1 <0>         0.0905
     36 H8          4.1690    3.6483   -2.1935 H         1 <0>         0.1334
     37 H9          4.6432    5.0869   -1.2583 H         1 <0>         0.1423
     38 H10         5.3588    1.6505   -2.0227 H         1 <0>         0.1341
     39 H11         6.7742    1.5085   -0.9525 H         1 <0>         0.1431
     40 H12         5.3365    1.6430    1.0373 H         1 <0>         0.0908
     41 H13         4.7237    0.3558   -0.0344 H         1 <0>         0.1280
     42 H14         6.5225    3.5223   -2.9804 H         1 <0>         0.1308
     43 H15         6.8312    4.9748   -1.9990 H         1 <0>         0.1340
     44 H16         8.5229    3.7268   -0.6841 H         1 <0>         0.0939
     45 H17         8.2142    2.2743   -1.6655 H         1 <0>         0.0917
     46 H18         8.9141    3.5021   -3.7029 H         1 <0>         0.0802
     47 H19         9.2229    4.9546   -2.7215 H         1 <0>         0.0826
     48 H20        10.9146    3.7066   -1.4066 H         1 <0>         0.1015
     49 H21        10.6059    2.2541   -2.3880 H         1 <0>         0.0974
     50 H22        12.5297    3.5510   -7.3025 H         1 <0>         0.0934
     51 H23        11.4313    4.7591   -6.5866 H         1 <0>         0.0720
     52 H24        14.4073    5.1890   -7.1125 H         1 <0>         0.0740
     53 H25        13.0956    5.7878   -8.1518 H         1 <0>         0.0798
     54 H26        13.8559    7.5691   -6.6383 H         1 <0>         0.0901
     55 H27        12.1923    7.0892   -6.2290 H         1 <0>         0.0693
     56 H28        14.7577    6.2535   -4.7923 H         1 <0>         0.0831
     57 H29        13.4296    7.2524   -4.1410 H         1 <0>         0.0981
     58 H30         6.1929    3.6746   -0.0695 H         1 <0>         0.4235
@<TRIPOS>BOND
     1    1    6 ar
     2    1    2 ar
     3    1   30 1
     4    2    3 ar
     5    2   31 1
     6    3    4 ar
     7    3    8 1
     8    4    5 ar
     9    4   32 1
    10    5    6 ar
    11    5    7 1
    12    6   33 1
    13    8   13 1
    14    8    9 1
    15    9   10 1
    16    9   34 1
    17    9   35 1
    18   10   11 1
    19   10   36 1
    20   10   37 1
    21   11   12 1
    22   11   14 1
    23   11   58 1
    24   12   13 1
    25   12   38 1
    26   12   39 1
    27   13   40 1
    28   13   41 1
    29   14   15 1
    30   14   42 1
    31   14   43 1
    32   15   16 1
    33   15   44 1
    34   15   45 1
    35   16   17 1
    36   16   46 1
    37   16   47 1
    38   17   18 1
    39   17   48 1
    40   17   49 1
    41   18   28 am
    42   18   19 am
    43   19   20 2
    44   19   21 1
    45   21   22 1
    46   21   27 1
    47   21   23 1
    48   23   24 1
    49   23   50 1
    50   23   51 1
    51   24   25 1
    52   24   52 1
    53   24   53 1
    54   25   26 1
    55   25   54 1
    56   25   55 1
    57   26   27 1
    58   26   56 1
    59   26   57 1
    60   27   28 am
    61   28   29 2
@<TRIPOS>MOLECULE
ZINC02183635
   57    60     0     0     0
SMALL
USER_CHARGES

@<TRIPOS>ATOM
      1 C1          1.2094   -0.6829   -0.0265 C.ar      1 <0>        -0.0564
      2 C2          2.3979    0.0209   -0.0351 C.ar      1 <0>        -0.1983
      3 C3          2.3816    1.4097   -0.0131 C.ar      1 <0>         0.2341
      4 C4          1.1691    2.0868    0.0175 C.ar      1 <0>        -0.1957
      5 C5         -0.0166    1.3770    0.0258 C.ar      1 <0>         0.0169
      6 C6          0.0038   -0.0070    0.0039 C.ar      1 <0>        -0.1731
      7 Cl1        -1.5329    2.2215    0.0645 Cl        1 <0>        -0.0715
      8 N1          3.5819    2.1238   -0.0212 N.pl3     1 <0>        -0.6277
      9 C7          3.5865    3.5914   -0.1178 C.3       1 <0>         0.1244
     10 C8          4.5350    4.0018   -1.2493 C.3       1 <0>         0.0404
     11 N2          5.8517    3.3898   -1.0263 N.3       1 <0>        -0.5364
     12 C9          5.7725    1.9237   -1.0721 C.3       1 <0>         0.0359
     13 C10         4.8746    1.4286    0.0728 C.3       1 <0>         0.1252
     14 C11         6.8370    3.8942   -1.9921 C.3       1 <0>         0.0573
     15 C12         8.2367    3.4337   -1.5805 C.3       1 <0>        -0.1116
     16 C13         9.2629    3.9590   -2.5864 C.3       1 <0>        -0.1334
     17 C14        10.6626    3.4984   -2.1747 C.3       1 <0>         0.1197
     18 N3         11.6452    4.0015   -3.1379 N.am      1 <0>        -0.5801
     19 C15        12.0249    3.3379   -4.2506 C.2       1 <0>         0.5251
     20 O1         11.6010    2.2747   -4.6502 O.2       1 <0>        -0.4642
     21 C16        13.0890    4.1978   -4.8947 C.3       1 <0>         0.0863
     22 H1         14.0656    3.7145   -4.8666 H         1 <0>         0.1328
     23 C17        12.6914    4.5756   -6.3248 C.3       1 <0>        -0.1158
     24 C18        13.5835    5.7291   -6.7941 C.3       1 <0>        -0.1197
     25 C19        13.3498    6.9713   -5.9340 C.3       1 <0>        -0.1408
     26 C20        13.7340    6.6721   -4.4767 C.3       1 <0>         0.1490
     27 N4         13.0652    5.4274   -4.0732 N.am      1 <0>        -0.6209
     28 C21        12.2746    5.1810   -3.0261 C.2       1 <0>         0.7051
     29 O2         12.1432    5.9348   -2.0818 O.2       1 <0>        -0.5391
     30 H2          1.2218   -1.7626   -0.0482 H         1 <0>         0.1312
     31 H3          3.3391   -0.5082   -0.0584 H         1 <0>         0.1281
     32 H4          1.1531    3.1665    0.0350 H         1 <0>         0.1322
     33 H5         -0.9239   -0.5598    0.0102 H         1 <0>         0.1295
     34 H6          2.5797    3.9471   -0.3368 H         1 <0>         0.0866
     35 H7          3.9324    4.0192    0.8232 H         1 <0>         0.0731
     36 H8          4.1323    3.6609   -2.2031 H         1 <0>         0.0389
     37 H9          4.6360    5.0870   -1.2636 H         1 <0>         0.0873
     38 H10         5.3526    1.6118   -2.0283 H         1 <0>         0.0392
     39 H11         6.7711    1.5018   -0.9579 H         1 <0>         0.0898
     40 H12         5.3419    1.6525    1.0318 H         1 <0>         0.0733
     41 H13         4.7198    0.3536   -0.0201 H         1 <0>         0.0877
     42 H14         6.6043    3.5073   -2.9842 H         1 <0>         0.0347
     43 H15         6.8035    4.9836   -2.0100 H         1 <0>         0.0773
     44 H16         8.4694    3.8206   -0.5884 H         1 <0>         0.0782
     45 H17         8.2702    2.3443   -1.5626 H         1 <0>         0.0670
     46 H18         9.0302    3.5721   -3.5785 H         1 <0>         0.0667
     47 H19         9.2294    5.0483   -2.6042 H         1 <0>         0.0711
     48 H20        10.8953    3.8854   -1.1826 H         1 <0>         0.0991
     49 H21        10.6961    2.4091   -2.1569 H         1 <0>         0.0942
     50 H22        12.8288    3.7166   -6.9815 H         1 <0>         0.0916
     51 H23        11.6478    4.8896   -6.3433 H         1 <0>         0.0735
     52 H24        14.6287    5.4298   -6.7171 H         1 <0>         0.0716
     53 H25        13.3524    5.9626   -7.8334 H         1 <0>         0.0770
     54 H26        13.9610    7.7923   -6.3090 H         1 <0>         0.0869
     55 H27        12.2977    7.2524   -5.9812 H         1 <0>         0.0702
     56 H28        14.8128    6.5375   -4.3980 H         1 <0>         0.0795
     57 H29        13.4140    7.4917   -3.8333 H         1 <0>         0.0968
@<TRIPOS>BOND
     1    1    6 ar
     2    1    2 ar
     3    1   30 1
     4    2    3 ar
     5    2   31 1
     6    3    4 ar
     7    3    8 1
     8    4    5 ar
     9    4   32 1
    10    5    6 ar
    11    5    7 1
    12    6   33 1
    13    8   13 1
    14    8    9 1
    15    9   10 1
    16    9   34 1
    17    9   35 1
    18   10   11 1
    19   10   36 1
    20   10   37 1
    21   11   12 1
    22   11   14 1
    23   12   13 1
    24   12   38 1
    25   12   39 1
    26   13   40 1
    27   13   41 1
    28   14   15 1
    29   14   42 1
    30   14   43 1
    31   15   16 1
    32   15   44 1
    33   15   45 1
    34   16   17 1
    35   16   46 1
    36   16   47 1
    37   17   18 1
    38   17   48 1
    39   17   49 1
    40   18   28 am
    41   18   19 am
    42   19   20 2
    43   19   21 1
    44   21   22 1
    45   21   27 1
    46   21   23 1
    47   23   24 1
    48   23   50 1
    49   23   51 1
    50   24   25 1
    51   24   52 1
    52   24   53 1
    53   25   26 1
    54   25   54 1
    55   25   55 1
    56   26   27 1
    57   26   56 1
    58   26   57 1
    59   27   28 am
    60   28   29 2
@<TRIPOS>MOLECULE
ZINC02183636
   58    61     0     0     0
SMALL
USER_CHARGES

@<TRIPOS>ATOM
      1 C1          1.2094   -0.6829   -0.0260 C.ar      1 <0>        -0.0559
      2 C2          2.3979    0.0209   -0.0345 C.ar      1 <0>        -0.1842
      3 C3          2.3816    1.4097   -0.0131 C.ar      1 <0>         0.2106
      4 C4          1.1691    2.0868    0.0169 C.ar      1 <0>        -0.1817
      5 C5         -0.0166    1.3770    0.0253 C.ar      1 <0>         0.0119
      6 C6          0.0038   -0.0070    0.0039 C.ar      1 <0>        -0.1487
      7 Cl1        -1.5329    2.2215    0.0634 Cl        1 <0>        -0.0536
      8 N1          3.5819    2.1238   -0.0212 N.pl3     1 <0>        -0.6431
      9 C7          3.5881    3.5917   -0.1177 C.3       1 <0>         0.0984
     10 C8          4.5524    4.0009   -1.2359 C.3       1 <0>        -0.0215
     11 N2          5.8707    3.4044   -0.9867 N.4       1 <0>        -0.3823
     12 C9          5.7793    1.9407   -1.0599 C.3       1 <0>        -0.0283
     13 C10         4.8756    1.4298    0.0728 C.3       1 <0>         0.1007
     14 C11         6.8225    3.8848   -1.9973 C.3       1 <0>        -0.0090
     15 C12         8.2229    3.3642   -1.6673 C.3       1 <0>        -0.1446
     16 C13         9.2142    3.8646   -2.7198 C.3       1 <0>        -0.1352
     17 C14        10.6145    3.3440   -2.3897 C.3       1 <0>         0.1203
     18 N3         11.5637    3.8232   -3.3975 N.am      1 <0>        -0.5834
     19 C15        11.8574    3.1624   -4.5376 C.2       1 <0>         0.5269
     20 O1         11.4365    2.0803   -4.8865 O.2       1 <0>        -0.4620
     21 C16        12.8206    4.0538   -5.2887 C.3       1 <0>         0.0858
     22 H1         12.3763    4.4399   -6.2062 H         1 <0>         0.1350
     23 C17        14.1358    3.3203   -5.5683 C.3       1 <0>        -0.1166
     24 C18        15.1950    4.3493   -5.9756 C.3       1 <0>        -0.1214
     25 C19        15.4717    5.3175   -4.8252 C.3       1 <0>        -0.1416
     26 C20        14.1932    6.1002   -4.4880 C.3       1 <0>         0.1478
     27 N4         13.0973    5.1359   -4.3193 N.am      1 <0>        -0.6168
     28 C21        12.2442    4.9757   -3.3043 C.2       1 <0>         0.7047
     29 O2         12.1034    5.7770   -2.4014 O.2       1 <0>        -0.5411
     30 H2          1.2219   -1.7626   -0.0473 H         1 <0>         0.1392
     31 H3          3.3391   -0.5082   -0.0575 H         1 <0>         0.1296
     32 H4          1.1530    3.1665    0.0341 H         1 <0>         0.1338
     33 H5         -0.9239   -0.5598    0.0102 H         1 <0>         0.1382
     34 H6          2.5846    3.9477   -0.3509 H         1 <0>         0.1269
     35 H7          3.9211    4.0195    0.8279 H         1 <0>         0.0905
     36 H8          4.1690    3.6483   -2.1935 H         1 <0>         0.1335
     37 H9          4.6432    5.0869   -1.2583 H         1 <0>         0.1424
     38 H10         5.3588    1.6505   -2.0227 H         1 <0>         0.1342
     39 H11         6.7742    1.5085   -0.9525 H         1 <0>         0.1430
     40 H12         5.3365    1.6430    1.0373 H         1 <0>         0.0907
     41 H13         4.7237    0.3558   -0.0344 H         1 <0>         0.1279
     42 H14         6.5225    3.5223   -2.9804 H         1 <0>         0.1309
     43 H15         6.8312    4.9748   -1.9990 H         1 <0>         0.1343
     44 H16         8.5229    3.7268   -0.6841 H         1 <0>         0.0937
     45 H17         8.2142    2.2743   -1.6655 H         1 <0>         0.0914
     46 H18         8.9141    3.5021   -3.7029 H         1 <0>         0.0798
     47 H19         9.2229    4.9546   -2.7215 H         1 <0>         0.0844
     48 H20        10.9146    3.7066   -1.4066 H         1 <0>         0.0999
     49 H21        10.6059    2.2541   -2.3880 H         1 <0>         0.0980
     50 H22        14.4610    2.7972   -4.6690 H         1 <0>         0.0746
     51 H23        13.9906    2.6050   -6.3778 H         1 <0>         0.0935
     52 H24        16.1171    3.8312   -6.2394 H         1 <0>         0.0804
     53 H25        14.8383    4.9099   -6.8397 H         1 <0>         0.0728
     54 H26        15.7952    4.7562   -3.9486 H         1 <0>         0.0713
     55 H27        16.2568    6.0144   -5.1187 H         1 <0>         0.0902
     56 H28        14.3366    6.6651   -3.5669 H         1 <0>         0.0983
     57 H29        13.9473    6.7782   -5.3052 H         1 <0>         0.0820
     58 H30         6.1929    3.6746   -0.0695 H         1 <0>         0.4234
@<TRIPOS>BOND
     1    1    6 ar
     2    1    2 ar
     3    1   30 1
     4    2    3 ar
     5    2   31 1
     6    3    4 ar
     7    3    8 1
     8    4    5 ar
     9    4   32 1
    10    5    6 ar
    11    5    7 1
    12    6   33 1
    13    8   13 1
    14    8    9 1
    15    9   10 1
    16    9   34 1
    17    9   35 1
    18   10   11 1
    19   10   36 1
    20   10   37 1
    21   11   12 1
    22   11   14 1
    23   11   58 1
    24   12   13 1
    25   12   38 1
    26   12   39 1
    27   13   40 1
    28   13   41 1
    29   14   15 1
    30   14   42 1
    31   14   43 1
    32   15   16 1
    33   15   44 1
    34   15   45 1
    35   16   17 1
    36   16   46 1
    37   16   47 1
    38   17   18 1
    39   17   48 1
    40   17   49 1
    41   18   28 am
    42   18   19 am
    43   19   20 2
    44   19   21 1
    45   21   22 1
    46   21   27 1
    47   21   23 1
    48   23   24 1
    49   23   50 1
    50   23   51 1
    51   24   25 1
    52   24   52 1
    53   24   53 1
    54   25   26 1
    55   25   54 1
    56   25   55 1
    57   26   27 1
    58   26   56 1
    59   26   57 1
    60   27   28 am
    61   28   29 2
@<TRIPOS>MOLECULE
ZINC02183636
   57    60     0     0     0
SMALL
USER_CHARGES

@<TRIPOS>ATOM
      1 C1          1.2094   -0.6829   -0.0265 C.ar      1 <0>        -0.0564
      2 C2          2.3979    0.0209   -0.0351 C.ar      1 <0>        -0.1983
      3 C3          2.3816    1.4097   -0.0131 C.ar      1 <0>         0.2341
      4 C4          1.1691    2.0868    0.0175 C.ar      1 <0>        -0.1957
      5 C5         -0.0166    1.3770    0.0258 C.ar      1 <0>         0.0169
      6 C6          0.0038   -0.0070    0.0039 C.ar      1 <0>        -0.1731
      7 Cl1        -1.5329    2.2215    0.0645 Cl        1 <0>        -0.0715
      8 N1          3.5819    2.1238   -0.0212 N.pl3     1 <0>        -0.6277
      9 C7          3.5865    3.5914   -0.1178 C.3       1 <0>         0.1244
     10 C8          4.5350    4.0018   -1.2493 C.3       1 <0>         0.0404
     11 N2          5.8517    3.3898   -1.0263 N.3       1 <0>        -0.5364
     12 C9          5.7725    1.9237   -1.0721 C.3       1 <0>         0.0359
     13 C10         4.8746    1.4286    0.0728 C.3       1 <0>         0.1252
     14 C11         6.8370    3.8942   -1.9921 C.3       1 <0>         0.0572
     15 C12         8.2367    3.4337   -1.5805 C.3       1 <0>        -0.1115
     16 C13         9.2629    3.9590   -2.5864 C.3       1 <0>        -0.1342
     17 C14        10.6626    3.4984   -2.1747 C.3       1 <0>         0.1203
     18 N3         11.6452    4.0015   -3.1379 N.am      1 <0>        -0.5801
     19 C15        12.0249    3.3379   -4.2506 C.2       1 <0>         0.5252
     20 O1         11.6655    2.2356   -4.6049 O.2       1 <0>        -0.4644
     21 C16        12.9917    4.2568   -4.9630 C.3       1 <0>         0.0864
     22 H1         12.5827    4.6130   -5.9085 H         1 <0>         0.1320
     23 C17        14.3475    3.5722   -5.1613 C.3       1 <0>        -0.1159
     24 C18        15.3863    4.6367   -5.5274 C.3       1 <0>        -0.1198
     25 C19        15.5633    5.6301   -4.3788 C.3       1 <0>        -0.1407
     26 C20        14.2392    6.3660   -4.1218 C.3       1 <0>         0.1493
     27 N4         13.1739    5.3615   -3.9968 N.am      1 <0>        -0.6214
     28 C21        12.2746    5.1810   -3.0261 C.2       1 <0>         0.7052
     29 O2         12.0546    5.9880   -2.1443 O.2       1 <0>        -0.5386
     30 H2          1.2218   -1.7626   -0.0482 H         1 <0>         0.1312
     31 H3          3.3391   -0.5082   -0.0584 H         1 <0>         0.1281
     32 H4          1.1531    3.1665    0.0350 H         1 <0>         0.1323
     33 H5         -0.9239   -0.5598    0.0102 H         1 <0>         0.1294
     34 H6          2.5797    3.9471   -0.3368 H         1 <0>         0.0866
     35 H7          3.9324    4.0192    0.8232 H         1 <0>         0.0731
     36 H8          4.1323    3.6609   -2.2031 H         1 <0>         0.0389
     37 H9          4.6360    5.0870   -1.2636 H         1 <0>         0.0874
     38 H10         5.3526    1.6118   -2.0283 H         1 <0>         0.0392
     39 H11         6.7711    1.5018   -0.9579 H         1 <0>         0.0898
     40 H12         5.3419    1.6525    1.0318 H         1 <0>         0.0733
     41 H13         4.7198    0.3536   -0.0201 H         1 <0>         0.0876
     42 H14         6.6043    3.5073   -2.9842 H         1 <0>         0.0347
     43 H15         6.8035    4.9836   -2.0100 H         1 <0>         0.0777
     44 H16         8.4694    3.8206   -0.5884 H         1 <0>         0.0781
     45 H17         8.2702    2.3443   -1.5626 H         1 <0>         0.0667
     46 H18         9.0302    3.5721   -3.5785 H         1 <0>         0.0664
     47 H19         9.2294    5.0483   -2.6042 H         1 <0>         0.0729
     48 H20        10.8953    3.8854   -1.1826 H         1 <0>         0.0975
     49 H21        10.6961    2.4091   -2.1569 H         1 <0>         0.0948
     50 H22        14.6440    3.0741   -4.2382 H         1 <0>         0.0742
     51 H23        14.2737    2.8411   -5.9664 H         1 <0>         0.0916
     52 H24        16.3405    4.1520   -5.7340 H         1 <0>         0.0772
     53 H25        15.0550    5.1714   -6.4176 H         1 <0>         0.0713
     54 H26        15.8608    5.0935   -3.4778 H         1 <0>         0.0706
     55 H27        16.3354    6.3536   -4.6407 H         1 <0>         0.0869
     56 H28        14.3110    6.9482   -3.2031 H         1 <0>         0.0968
     57 H29        14.0114    7.0231   -4.9611 H         1 <0>         0.0790
@<TRIPOS>BOND
     1    1    6 ar
     2    1    2 ar
     3    1   30 1
     4    2    3 ar
     5    2   31 1
     6    3    4 ar
     7    3    8 1
     8    4    5 ar
     9    4   32 1
    10    5    6 ar
    11    5    7 1
    12    6   33 1
    13    8   13 1
    14    8    9 1
    15    9   10 1
    16    9   34 1
    17    9   35 1
    18   10   11 1
    19   10   36 1
    20   10   37 1
    21   11   12 1
    22   11   14 1
    23   12   13 1
    24   12   38 1
    25   12   39 1
    26   13   40 1
    27   13   41 1
    28   14   15 1
    29   14   42 1
    30   14   43 1
    31   15   16 1
    32   15   44 1
    33   15   45 1
    34   16   17 1
    35   16   46 1
    36   16   47 1
    37   17   18 1
    38   17   48 1
    39   17   49 1
    40   18   28 am
    41   18   19 am
    42   19   20 2
    43   19   21 1
    44   21   22 1
    45   21   27 1
    46   21   23 1
    47   23   24 1
    48   23   50 1
    49   23   51 1
    50   24   25 1
    51   24   52 1
    52   24   53 1
    53   25   26 1
    54   25   54 1
    55   25   55 1
    56   26   27 1
    57   26   56 1
    58   26   57 1
    59   27   28 am
    60   28   29 2
