@<TRIPOS>MOLECULE
ZINC52956332
   66    69     0     0     0
SMALL
USER_CHARGES

@<TRIPOS>ATOM
      1 C1         -0.2570   -0.0396   -0.2249 C.3       1 <0>        -0.1481
      2 C2         -0.4777   -1.5512   -0.1410 C.3       1 <0>         0.0719
      3 C3          0.2510   -2.1058    1.0847 C.3       1 <0>        -0.1743
      4 O1         -1.8760   -1.8229   -0.0272 O.3       1 <0>        -0.2968
      5 C4         -2.3308   -2.9699   -0.5993 C.ar      1 <0>         0.1238
      6 C5         -1.4369   -3.8709   -1.1538 C.ar      1 <0>        -0.2108
      7 C6         -1.9007   -5.0365   -1.7356 C.ar      1 <0>        -0.0833
      8 C7         -3.2562   -5.3067   -1.7656 C.ar      1 <0>        -0.1528
      9 C8         -4.1549   -4.4130   -1.2140 C.ar      1 <0>        -0.0865
     10 C9         -3.6965   -3.2442   -0.6239 C.ar      1 <0>         0.1375
     11 N1         -4.6040   -2.3403   -0.0596 N.pl3     1 <0>        -0.6674
     12 C10        -5.1972   -1.2631   -0.8665 C.3       1 <0>         0.1547
     13 C11        -5.0050    0.0635   -0.1240 C.3       1 <0>         0.0426
     14 N2         -5.5408   -0.0593    1.2382 N.3       1 <0>        -0.5278
     15 C12        -4.8056   -1.0693    2.0110 C.3       1 <0>         0.0391
     16 C13        -4.9943   -2.4462    1.3545 C.3       1 <0>         0.1554
     17 C14        -5.5326    1.2387    1.9262 C.3       1 <0>         0.0947
     18 C15        -6.3064    1.1292    3.2147 C.ar      1 <0>        -0.0813
     19 C16        -7.6662    1.3854    3.2273 C.ar      1 <0>        -0.0744
     20 C17        -8.3840    1.2867    4.4058 C.ar      1 <0>        -0.1211
     21 C18        -7.7471    0.9321    5.5774 C.ar      1 <0>        -0.0675
     22 C19        -6.3760    0.6723    5.5716 C.ar      1 <0>        -0.1273
     23 C20        -5.6587    0.7682    4.3778 C.ar      1 <0>        -0.0879
     24 C21        -5.6870    0.2923    6.8233 C.2       1 <0>         0.5617
     25 O2         -6.1780   -0.5424    7.5580 O.2       1 <0>        -0.5326
     26 N3         -4.5146    0.8713    7.1497 N.am      1 <0>        -0.6059
     27 C22        -3.8640    1.8148    6.2303 C.3       1 <0>         0.0916
     28 C23        -3.5771    3.1180    6.9827 C.3       1 <0>        -0.1360
     29 C24        -2.7654    2.8071    8.2423 C.3       1 <0>        -0.1214
     30 C25        -3.5758    1.8882    9.1594 C.3       1 <0>        -0.1356
     31 C26        -3.8657    0.5757    8.4343 C.3       1 <0>         0.1105
     32 H1          0.8096    0.1676   -0.3117 H         1 <0>         0.0754
     33 H2         -0.7761    0.3555   -1.0981 H         1 <0>         0.0627
     34 H3         -0.6472    0.4351    0.6754 H         1 <0>         0.0636
     35 H4         -0.0875   -2.0259   -1.0413 H         1 <0>         0.0742
     36 H5         -0.1393   -1.6311    1.9850 H         1 <0>         0.0650
     37 H6          0.0937   -3.1828    1.1445 H         1 <0>         0.0608
     38 H7          1.3176   -1.8986    0.9979 H         1 <0>         0.0710
     39 H8         -0.3773   -3.6629   -1.1321 H         1 <0>         0.1279
     40 H9         -1.2021   -5.7375   -2.1681 H         1 <0>         0.1235
     41 H10        -3.6139   -6.2182   -2.2214 H         1 <0>         0.1239
     42 H11        -5.2133   -4.6264   -1.2391 H         1 <0>         0.1282
     43 H12        -4.7006   -1.2157   -1.8356 H         1 <0>         0.0685
     44 H13        -6.2613   -1.4538   -1.0061 H         1 <0>         0.0563
     45 H14        -3.9427    0.3033   -0.0768 H         1 <0>         0.0406
     46 H15        -5.5341    0.8563   -0.6529 H         1 <0>         0.0772
     47 H16        -3.7461   -0.8138    2.0285 H         1 <0>         0.0394
     48 H17        -5.1901   -1.0982    3.0305 H         1 <0>         0.0783
     49 H18        -6.0393   -2.7483    1.4243 H         1 <0>         0.0563
     50 H19        -4.3636   -3.1812    1.8544 H         1 <0>         0.0674
     51 H20        -4.5044    1.5283    2.1433 H         1 <0>         0.0422
     52 H21        -5.9950    1.9913    1.2875 H         1 <0>         0.0858
     53 H22        -8.1693    1.6640    2.3132 H         1 <0>         0.1285
     54 H23        -9.4450    1.4880    4.4089 H         1 <0>         0.1309
     55 H24        -8.3085    0.8561    6.4969 H         1 <0>         0.1292
     56 H25        -4.5982    0.5642    4.3658 H         1 <0>         0.1264
     57 H26        -2.9283    1.3874    5.8698 H         1 <0>         0.0700
     58 H27        -4.5244    2.0175    5.3871 H         1 <0>         0.0990
     59 H28        -3.0089    3.7912    6.3407 H         1 <0>         0.0765
     60 H29        -4.5182    3.5906    7.2637 H         1 <0>         0.0681
     61 H30        -1.8355    2.3122    7.9621 H         1 <0>         0.0648
     62 H31        -2.5388    3.7354    8.7666 H         1 <0>         0.0672
     63 H32        -3.0066    1.6860   10.0668 H         1 <0>         0.0777
     64 H33        -4.5169    2.3723    9.4200 H         1 <0>         0.0669
     65 H34        -4.5272   -0.0389    9.0449 H         1 <0>         0.0936
     66 H35        -2.9302    0.0450    8.2576 H         1 <0>         0.0683
@<TRIPOS>BOND
     1    1    2 1
     2    1   32 1
     3    1   33 1
     4    1   34 1
     5    2    3 1
     6    2    4 1
     7    2   35 1
     8    3   36 1
     9    3   37 1
    10    3   38 1
    11    4    5 1
    12    5   10 ar
    13    5    6 ar
    14    6    7 ar
    15    6   39 1
    16    7    8 ar
    17    7   40 1
    18    8    9 ar
    19    8   41 1
    20    9   10 ar
    21    9   42 1
    22   10   11 1
    23   11   16 1
    24   11   12 1
    25   12   13 1
    26   12   43 1
    27   12   44 1
    28   13   14 1
    29   13   45 1
    30   13   46 1
    31   14   15 1
    32   14   17 1
    33   15   16 1
    34   15   47 1
    35   15   48 1
    36   16   49 1
    37   16   50 1
    38   17   18 1
    39   17   51 1
    40   17   52 1
    41   18   23 ar
    42   18   19 ar
    43   19   20 ar
    44   19   53 1
    45   20   21 ar
    46   20   54 1
    47   21   22 ar
    48   21   55 1
    49   22   23 ar
    50   22   24 1
    51   23   56 1
    52   24   25 2
    53   24   26 am
    54   26   31 1
    55   26   27 1
    56   27   28 1
    57   27   57 1
    58   27   58 1
    59   28   29 1
    60   28   59 1
    61   28   60 1
    62   29   30 1
    63   29   61 1
    64   29   62 1
    65   30   31 1
    66   30   63 1
    67   30   64 1
    68   31   65 1
    69   31   66 1
@<TRIPOS>MOLECULE
ZINC53165707
   26    27     0     0     0
SMALL
USER_CHARGES

@<TRIPOS>ATOM
      1 C1         -0.0167    1.3790    0.0096 C.ar      1 <0>        -0.1016
      2 C2          1.1685    2.0936    0.0021 C.ar      1 <0>        -0.0829
      3 C3          2.3781    1.4292   -0.0130 C.ar      1 <0>        -0.0280
      4 C4          2.4037    0.0322   -0.0208 C.ar      1 <0>         0.1829
      5 C5          1.2044   -0.6813   -0.0131 C.ar      1 <0>        -0.1594
      6 C6          0.0021   -0.0041    0.0020 C.ar      1 <0>        -0.1478
      7 C7         -1.2938   -0.7733    0.0108 C.3       1 <0>         0.5076
      8 F1         -2.3680    0.1228    0.0263 F         1 <0>        -0.1739
      9 F2         -1.3695   -1.5724   -1.1351 F         1 <0>        -0.1780
     10 F3         -1.3468   -1.5846    1.1493 F         1 <0>        -0.1747
     11 N1          3.6009   -0.6341   -0.0362 N.2       1 <0>        -0.6190
     12 C8          3.7436   -1.7105   -0.7743 C.2       1 <0>         0.6510
     13 N2          2.7510   -2.2257   -1.5577 N.pl3     1 <0>        -0.7579
     14 C9          3.2536   -3.4250   -2.2420 C.3       1 <0>         0.0873
     15 C10         4.7077   -3.5649   -1.7568 C.3       1 <0>         0.0978
     16 N3          4.9021   -2.4297   -0.8443 N.pl3     1 <0>        -0.7072
     17 Cl1         3.8639    2.3269   -0.0229 Cl        1 <0>        -0.0448
     18 H1         -0.9605    1.9037    0.0260 H         1 <0>         0.1453
     19 H2          1.1467    3.1733    0.0078 H         1 <0>         0.1460
     20 H3          1.2172   -1.7612   -0.0194 H         1 <0>         0.1380
     21 H4          2.6705   -4.2997   -1.9540 H         1 <0>         0.0866
     22 H5          3.2248   -3.2864   -3.3228 H         1 <0>         0.0851
     23 H6          4.8434   -4.5089   -1.2290 H         1 <0>         0.0883
     24 H7          5.3977   -3.4956   -2.5977 H         1 <0>         0.0877
     25 H8          5.7213   -2.2252   -0.3668 H         1 <0>         0.4393
     26 H9          1.8575   -1.8590   -1.6477 H         1 <0>         0.4321
@<TRIPOS>BOND
     1    1    6 ar
     2    1    2 ar
     3    1   18 1
     4    2    3 ar
     5    2   19 1
     6    3    4 ar
     7    3   17 1
     8    4    5 ar
     9    4   11 1
    10    5    6 ar
    11    5   20 1
    12    6    7 1
    13    7    8 1
    14    7    9 1
    15    7   10 1
    16   11   12 2
    17   12   16 1
    18   12   13 1
    19   13   14 1
    20   13   26 1
    21   14   15 1
    22   14   21 1
    23   14   22 1
    24   15   16 1
    25   15   23 1
    26   15   24 1
    27   16   25 1
@<TRIPOS>MOLECULE
ZINC00022168
   30    32     0     0     0
SMALL
USER_CHARGES

@<TRIPOS>ATOM
      1 C1         -0.0184    1.5028    0.0103 C.3       1 <0>        -0.1237
      2 C2          0.0021   -0.0041    0.0020 C.ar      1 <0>        -0.0626
      3 C3          0.0057   -0.6860   -1.1994 C.ar      1 <0>        -0.1043
      4 C4          0.0245   -2.0679   -1.2081 C.ar      1 <0>        -0.1109
      5 C5          0.0398   -2.7646   -0.0152 C.ar      1 <0>        -0.1089
      6 C6          0.0357   -2.0830    1.1899 C.ar      1 <0>        -0.1142
      7 C7          0.0229   -0.7005    1.1985 C.ar      1 <0>        -0.0836
      8 C8          0.0293   -0.1977    2.6262 C.3       1 <0>        -0.0865
      9 C9         -0.3860   -1.4119    3.4839 C.3       1 <0>        -0.1112
     10 C10         0.0492   -2.6034    2.6112 C.3       1 <0>         0.0168
     11 H1          1.0558   -2.9146    2.8905 H         1 <0>         0.1144
     12 C11        -0.9140   -3.7532    2.7562 C.2       1 <0>         0.0455
     13 C12        -2.2399   -3.6528    2.9698 C.2       1 <0>         0.0357
     14 N1         -2.7281   -4.9299    3.0367 N.pl3     1 <0>        -0.5075
     15 H2         -3.6522   -5.1859    3.1826 H         1 <0>         0.4679
     16 C13        -1.6828   -5.7668    2.8616 C.cat     1 <0>         0.3048
     17 N2         -0.6020   -5.0560    2.6894 N.pl3     1 <0>        -0.4749
     18 H3          1.0042    1.8801    0.0026 H         1 <0>         0.0772
     19 H4         -0.5455    1.8639   -0.8728 H         1 <0>         0.0719
     20 H5         -0.5286    1.8543    0.9071 H         1 <0>         0.0701
     21 H6         -0.0066   -0.1397   -2.1310 H         1 <0>         0.1318
     22 H7          0.0269   -2.6026   -2.1464 H         1 <0>         0.1297
     23 H8          0.0546   -3.8445   -0.0228 H         1 <0>         0.1097
     24 H9          1.0283    0.1379    2.9045 H         1 <0>         0.0919
     25 H10        -0.6896    0.6129    2.7450 H         1 <0>         0.0882
     26 H11         0.1409   -1.4105    4.4381 H         1 <0>         0.0953
     27 H12        -1.4652   -1.4278    3.6361 H         1 <0>         0.0803
     28 H13        -2.8086   -2.7401    3.0695 H         1 <0>         0.2253
     29 H14        -1.7336   -6.8456    2.8601 H         1 <0>         0.2671
     30 H15         0.2871   -5.4135    2.5388 H         1 <0>         0.4646
@<TRIPOS>BOND
     1    1    2 1
     2    1   18 1
     3    1   19 1
     4    1   20 1
     5    2    7 ar
     6    2    3 ar
     7    3    4 ar
     8    3   21 1
     9    4    5 ar
    10    4   22 1
    11    5    6 ar
    12    5   23 1
    13    6   10 1
    14    6    7 ar
    15    7    8 1
    16    8    9 1
    17    8   24 1
    18    8   25 1
    19    9   10 1
    20    9   26 1
    21    9   27 1
    22   10   11 1
    23   10   12 1
    24   12   17 1
    25   12   13 2
    26   13   14 1
    27   13   28 1
    28   14   15 1
    29   14   16 1
    30   16   17 2
    31   16   29 1
    32   17   30 1
@<TRIPOS>MOLECULE
ZINC00022168
   29    31     0     0     0
SMALL
USER_CHARGES

@<TRIPOS>ATOM
      1 C1         -0.0184    1.5028    0.0103 C.3       1 <0>        -0.1161
      2 C2          0.0021   -0.0041    0.0020 C.ar      1 <0>        -0.0739
      3 C3          0.0057   -0.6860   -1.1994 C.ar      1 <0>        -0.1203
      4 C4          0.0245   -2.0679   -1.2081 C.ar      1 <0>        -0.1180
      5 C5          0.0398   -2.7646   -0.0152 C.ar      1 <0>        -0.1053
      6 C6          0.0357   -2.0830    1.1899 C.ar      1 <0>        -0.0831
      7 C7          0.0229   -0.7005    1.1985 C.ar      1 <0>        -0.0944
      8 C8          0.0293   -0.1977    2.6262 C.3       1 <0>        -0.0818
      9 C9         -0.3860   -1.4119    3.4839 C.3       1 <0>        -0.1082
     10 C10         0.0492   -2.6034    2.6112 C.3       1 <0>         0.0347
     11 H1          1.0558   -2.9146    2.8905 H         1 <0>         0.0976
     12 C11        -0.9140   -3.7532    2.7562 C.2       1 <0>         0.0122
     13 C12        -2.0794   -3.8973    2.0969 C.2       1 <0>        -0.0437
     14 N1         -2.6333   -5.0739    2.5241 N.pl3     1 <0>        -0.5707
     15 C13        -1.7865   -5.6082    3.4303 C.2       1 <0>         0.1841
     16 N2         -0.7581   -4.8154    3.5603 N.2       1 <0>        -0.4895
     17 H2          1.0042    1.8801    0.0026 H         1 <0>         0.0703
     18 H3         -0.5455    1.8639   -0.8728 H         1 <0>         0.0653
     19 H4         -0.5286    1.8543    0.9071 H         1 <0>         0.0661
     20 H5         -0.0066   -0.1397   -2.1310 H         1 <0>         0.1227
     21 H6          0.0269   -2.6026   -2.1464 H         1 <0>         0.1226
     22 H7          0.0546   -3.8445   -0.0228 H         1 <0>         0.1163
     23 H8          1.0283    0.1379    2.9045 H         1 <0>         0.0821
     24 H9         -0.6896    0.6129    2.7450 H         1 <0>         0.0761
     25 H10         0.1409   -1.4105    4.4381 H         1 <0>         0.0809
     26 H11        -1.4652   -1.4278    3.6361 H         1 <0>         0.0721
     27 H12        -2.4969   -3.2154    1.3709 H         1 <0>         0.1727
     28 H13        -1.9339   -6.5395    3.9570 H         1 <0>         0.2083
     29 H14        -3.4765   -5.4531    2.2307 H         1 <0>         0.4209
@<TRIPOS>BOND
     1    1    2 1
     2    1   17 1
     3    1   18 1
     4    1   19 1
     5    2    7 ar
     6    2    3 ar
     7    3    4 ar
     8    3   20 1
     9    4    5 ar
    10    4   21 1
    11    5    6 ar
    12    5   22 1
    13    6   10 1
    14    6    7 ar
    15    7    8 1
    16    8    9 1
    17    8   23 1
    18    8   24 1
    19    9   10 1
    20    9   25 1
    21    9   26 1
    22   10   11 1
    23   10   12 1
    24   12   16 1
    25   12   13 2
    26   13   27 1
    27   13   14 1
    28   14   15 1
    29   14   29 1
    30   15   28 1
    31   15   16 2
@<TRIPOS>MOLECULE
ZINC03822128
   30    32     0     0     0
SMALL
USER_CHARGES

@<TRIPOS>ATOM
      1 C1         -0.0184    1.5028    0.0103 C.3       1 <0>        -0.1231
      2 C2          0.0021   -0.0041    0.0020 C.ar      1 <0>        -0.0651
      3 C3          0.0057   -0.6860   -1.1994 C.ar      1 <0>        -0.1030
      4 C4          0.0245   -2.0679   -1.2081 C.ar      1 <0>        -0.1110
      5 C5          0.0398   -2.7646   -0.0152 C.ar      1 <0>        -0.1050
      6 C6          0.0357   -2.0830    1.1899 C.ar      1 <0>        -0.1149
      7 C7          0.0229   -0.7005    1.1985 C.ar      1 <0>        -0.0860
      8 C8          0.0293   -0.1977    2.6262 C.3       1 <0>        -0.0893
      9 C9         -0.3860   -1.4119    3.4839 C.3       1 <0>        -0.1150
     10 C10         0.0492   -2.6034    2.6112 C.3       1 <0>         0.0163
     11 C11         1.4408   -3.0337    2.9974 C.2       1 <0>         0.0483
     12 C12         2.4184   -2.2302    3.4583 C.2       1 <0>         0.0325
     13 N1          3.5103   -3.0242    3.6839 N.pl3     1 <0>        -0.5078
     14 H1          4.3732   -2.7346    4.0190 H         1 <0>         0.4677
     15 C13         3.1617   -4.2862    3.3528 C.cat     1 <0>         0.3047
     16 N2          1.9212   -4.2850    2.9478 N.pl3     1 <0>        -0.4739
     17 H2          1.0042    1.8801    0.0026 H         1 <0>         0.0746
     18 H3         -0.5455    1.8639   -0.8728 H         1 <0>         0.0726
     19 H4         -0.5286    1.8543    0.9071 H         1 <0>         0.0703
     20 H5         -0.0066   -0.1397   -2.1310 H         1 <0>         0.1318
     21 H6          0.0269   -2.6026   -2.1464 H         1 <0>         0.1310
     22 H7          0.0546   -3.8445   -0.0228 H         1 <0>         0.1178
     23 H8          1.0283    0.1379    2.9045 H         1 <0>         0.0812
     24 H9         -0.6896    0.6129    2.7450 H         1 <0>         0.0912
     25 H10         0.1409   -1.4105    4.4381 H         1 <0>         0.0885
     26 H11        -1.4652   -1.4278    3.6361 H         1 <0>         0.0981
     27 H12        -0.6475   -3.4351    2.7161 H         1 <0>         0.1120
     28 H13         2.3534   -1.1641    3.6187 H         1 <0>         0.2236
     29 H14         3.8023   -5.1534    3.4165 H         1 <0>         0.2672
     30 H15         1.4252   -5.0657    2.6553 H         1 <0>         0.4645
@<TRIPOS>BOND
     1    1    2 1
     2    1   17 1
     3    1   18 1
     4    1   19 1
     5    2    7 ar
     6    2    3 ar
     7    3    4 ar
     8    3   20 1
     9    4    5 ar
    10    4   21 1
    11    5    6 ar
    12    5   22 1
    13    6   10 1
    14    6    7 ar
    15    7    8 1
    16    8    9 1
    17    8   23 1
    18    8   24 1
    19    9   10 1
    20    9   25 1
    21    9   26 1
    22   10   11 1
    23   10   27 1
    24   11   16 1
    25   11   12 2
    26   12   13 1
    27   12   28 1
    28   13   14 1
    29   13   15 1
    30   15   16 2
    31   15   29 1
    32   16   30 1
@<TRIPOS>MOLECULE
ZINC03822128
   29    31     0     0     0
SMALL
USER_CHARGES
4-(4-methylindan-1-yl)-1H-imidazole
@<TRIPOS>ATOM
      1 C1         -1.3333    2.1135    0.0199 C.3       1 <0>        -0.1167
      2 C2         -0.0167    1.3803    0.0096 C.ar      1 <0>        -0.0739
      3 C3          1.1675    2.0917    0.0021 C.ar      1 <0>        -0.1155
      4 C4          2.3754    1.4202   -0.0109 C.ar      1 <0>        -0.1166
      5 C5          2.3962    0.0389   -0.0196 C.ar      1 <0>        -0.1022
      6 C6          1.2104   -0.6758   -0.0131 C.ar      1 <0>        -0.0854
      7 C7          0.0021   -0.0041    0.0020 C.ar      1 <0>        -0.0889
      8 C8         -1.1372   -1.0007    0.0067 C.3       1 <0>        -0.0807
      9 C9         -0.5084   -2.3352   -0.4472 C.3       1 <0>        -0.1122
     10 C10         0.9653   -2.1695   -0.0195 C.3       1 <0>         0.0270
     11 H1          1.6246   -2.6579   -0.7371 H         1 <0>         0.0847
     12 C11         1.1794   -2.7404    1.3586 C.2       1 <0>        -0.0352
     13 C12         0.9209   -2.1153    2.5231 C.2       1 <0>        -0.0063
     14 N1          1.2543   -2.9880    3.5236 N.2       1 <0>        -0.4969
     15 H2          1.9479   -4.6395    0.9650 H         1 <0>         0.4238
     16 C13         1.7139   -4.1133    2.9353 C.2       1 <0>         0.1610
     17 N2          1.6661   -3.9581    1.6405 N.pl3     1 <0>        -0.5256
     18 H3         -1.6458    2.2847    1.0500 H         1 <0>         0.0712
     19 H4         -1.2201    3.0706   -0.4893 H         1 <0>         0.0661
     20 H5         -2.0862    1.5156   -0.4937 H         1 <0>         0.0662
     21 H6          1.1494    3.1715    0.0077 H         1 <0>         0.1243
     22 H7          3.3022    1.9748   -0.0160 H         1 <0>         0.1244
     23 H8          3.3405   -0.4851   -0.0311 H         1 <0>         0.1166
     24 H9         -1.5495   -1.0991    1.0109 H         1 <0>         0.0827
     25 H10        -1.9135   -0.6910   -0.6930 H         1 <0>         0.0773
     26 H11        -0.5873   -2.4529   -1.5279 H         1 <0>         0.0789
     27 H12        -0.9687   -3.1787    0.0674 H         1 <0>         0.0779
     28 H13         0.5248   -1.1179    2.6443 H         1 <0>         0.1668
     29 H14         2.0632   -4.9957    3.4510 H         1 <0>         0.2073
@<TRIPOS>BOND
     1    1    2 1
     2    1   18 1
     3    1   19 1
     4    1   20 1
     5    2    7 ar
     6    2    3 ar
     7    3    4 ar
     8    3   21 1
     9    4    5 ar
    10    4   22 1
    11    5    6 ar
    12    5   23 1
    13    6   10 1
    14    6    7 ar
    15    7    8 1
    16    8    9 1
    17    8   24 1
    18    8   25 1
    19    9   10 1
    20    9   26 1
    21    9   27 1
    22   10   11 1
    23   10   12 1
    24   12   17 1
    25   12   13 2
    26   13   14 1
    27   13   28 1
    28   14   16 2
    29   15   17 1
    30   16   29 1
    31   16   17 1
@<TRIPOS>MOLECULE
ZINC00013748
   28    30     0     0     0
SMALL
USER_CHARGES

@<TRIPOS>ATOM
      1 C1         -0.0167    1.3777    0.0096 C.ar      1 <0>        -0.0954
      2 C2          1.1697    2.0876    0.0021 C.ar      1 <0>        -0.1049
      3 C3          2.3784    1.4177   -0.0116 C.ar      1 <0>        -0.0981
      4 C4          2.4042    0.0310   -0.0192 C.ar      1 <0>         0.0329
      5 C5          1.2117   -0.6826   -0.0141 C.ar      1 <0>         0.0460
      6 C6          0.0021   -0.0041    0.0020 C.ar      1 <0>        -0.1042
      7 O1          1.2143   -2.0435   -0.0292 O.3       1 <0>        -0.2831
      8 C7          2.4407   -2.6888    0.3305 C.3       1 <0>         0.0319
      9 C8          3.5869   -1.9932   -0.4162 C.3       1 <0>         0.0648
     10 H1          3.4262   -2.0716   -1.4914 H         1 <0>         0.1391
     11 O2          3.6023   -0.6148   -0.0295 O.3       1 <0>        -0.2941
     12 C9          4.8981   -2.6394   -0.0500 C.cat     1 <0>         0.5242
     13 N1          5.2975   -2.7671    1.1936 N.pl3     1 <0>        -0.6146
     14 C10         6.6089   -3.4350    1.2165 C.3       1 <0>         0.0552
     15 C11         6.9063   -3.6783   -0.2777 C.3       1 <0>         0.0574
     16 N2          5.7221   -3.1209   -0.9509 N.pl3     1 <0>        -0.6160
     17 H2         -0.9596    1.9040    0.0259 H         1 <0>         0.1440
     18 H3          1.1518    3.1674    0.0066 H         1 <0>         0.1437
     19 H4          3.3037    1.9746   -0.0169 H         1 <0>         0.1411
     20 H5         -0.9261   -0.5562    0.0086 H         1 <0>         0.1448
     21 H6          2.5984   -2.6053    1.4058 H         1 <0>         0.0891
     22 H7          2.4005   -3.7400    0.0450 H         1 <0>         0.1382
     23 H8          7.3641   -2.7849    1.6584 H         1 <0>         0.1328
     24 H9          6.5499   -4.3802    1.7561 H         1 <0>         0.1335
     25 H10         7.8099   -3.1496   -0.5812 H         1 <0>         0.1334
     26 H11         6.9957   -4.7449   -0.4835 H         1 <0>         0.1330
     27 H12         5.5747   -3.1096   -1.9095 H         1 <0>         0.4633
     28 H13         4.8062   -2.4679    1.9745 H         1 <0>         0.4621
@<TRIPOS>BOND
     1    1    6 ar
     2    1    2 ar
     3    1   17 1
     4    2    3 ar
     5    2   18 1
     6    3    4 ar
     7    3   19 1
     8    4   11 1
     9    4    5 ar
    10    5    6 ar
    11    5    7 1
    12    6   20 1
    13    7    8 1
    14    8    9 1
    15    8   21 1
    16    8   22 1
    17    9   10 1
    18    9   11 1
    19    9   12 1
    20   12   16 1
    21   12   13 2
    22   13   14 1
    23   13   28 1
    24   14   15 1
    25   14   23 1
    26   14   24 1
    27   15   16 1
    28   15   25 1
    29   15   26 1
    30   16   27 1
@<TRIPOS>MOLECULE
ZINC00900630
   28    30     0     0     0
SMALL
USER_CHARGES

@<TRIPOS>ATOM
      1 C1         -0.0167    1.3777    0.0096 C.ar      1 <0>        -0.0954
      2 C2          1.1697    2.0876    0.0021 C.ar      1 <0>        -0.1049
      3 C3          2.3783    1.4178   -0.0143 C.ar      1 <0>        -0.0981
      4 C4          2.4042    0.0310   -0.0230 C.ar      1 <0>         0.0329
      5 C5          1.2117   -0.6826   -0.0129 C.ar      1 <0>         0.0461
      6 C6          0.0021   -0.0041    0.0020 C.ar      1 <0>        -0.1042
      7 O1          1.2145   -2.0436   -0.0133 O.3       1 <0>        -0.2832
      8 C7          2.4336   -2.6847   -0.4041 C.3       1 <0>         0.0320
      9 C8          3.5941   -1.9974    0.3280 C.3       1 <0>         0.0648
     10 H1          3.4543   -2.0880    1.4052 H         1 <0>         0.1391
     11 O2          3.6022   -0.6147   -0.0433 O.3       1 <0>        -0.2941
     12 C9          4.8979   -2.6393   -0.0710 C.cat     1 <0>         0.5240
     13 N1          5.2782   -2.7429   -1.3227 N.pl3     1 <0>        -0.6144
     14 C10         6.5877   -3.4123   -1.3789 C.3       1 <0>         0.0552
     15 C11         6.9072   -3.6858    0.1054 C.3       1 <0>         0.0573
     16 N2          5.7392   -3.1309    0.8082 N.pl3     1 <0>        -0.6159
     17 H2         -0.9596    1.9040    0.0259 H         1 <0>         0.1440
     18 H3          1.1518    3.1674    0.0087 H         1 <0>         0.1437
     19 H4          3.3037    1.9746   -0.0208 H         1 <0>         0.1411
     20 H5         -0.9261   -0.5562    0.0079 H         1 <0>         0.1448
     21 H6          2.3988   -3.7390   -0.1298 H         1 <0>         0.1382
     22 H7          2.5703   -2.5889   -1.4813 H         1 <0>         0.0891
     23 H8          6.5187   -4.3466   -1.9362 H         1 <0>         0.1335
     24 H9          7.3374   -2.7549   -1.8192 H         1 <0>         0.1328
     25 H10         6.9977   -4.7565    0.2887 H         1 <0>         0.1335
     26 H11         7.8164   -3.1648    0.4057 H         1 <0>         0.1329
     27 H12         5.6106   -3.1302    1.7696 H         1 <0>         0.4633
     28 H13         4.7751   -2.4283   -2.0901 H         1 <0>         0.4621
@<TRIPOS>BOND
     1    1    6 ar
     2    1    2 ar
     3    1   17 1
     4    2    3 ar
     5    2   18 1
     6    3    4 ar
     7    3   19 1
     8    4   11 1
     9    4    5 ar
    10    5    6 ar
    11    5    7 1
    12    6   20 1
    13    7    8 1
    14    8    9 1
    15    8   21 1
    16    8   22 1
    17    9   10 1
    18    9   11 1
    19    9   12 1
    20   12   16 1
    21   12   13 2
    22   13   14 1
    23   13   28 1
    24   14   15 1
    25   14   23 1
    26   14   24 1
    27   15   16 1
    28   15   25 1
    29   15   26 1
    30   16   27 1
@<TRIPOS>MOLECULE
ZINC02539830
   32    34     0     0     0
SMALL
USER_CHARGES

@<TRIPOS>ATOM
      1 C1         -1.4323   -0.0901   -0.0833 C.3       1 <0>         0.0000
      2 O1         -0.0082   -0.0029   -0.0051 O.3       1 <0>        -0.3360
      3 C2          0.6740   -0.6619   -1.0740 C.3       1 <0>         0.2539
      4 C3          2.1767   -0.3614   -0.9920 C.3       1 <0>         0.0430
      5 O2          2.3569    1.0551   -1.0962 O.3       1 <0>        -0.2720
      6 C4          1.6640    1.6888   -2.0815 C.ar      1 <0>         0.0580
      7 C5          2.0506    2.9614   -2.4753 C.ar      1 <0>        -0.1050
      8 C6          1.3549    3.6189   -3.4720 C.ar      1 <0>        -0.0921
      9 C7          0.2717    3.0108   -4.0788 C.ar      1 <0>        -0.1071
     10 C8         -0.1178    1.7424   -3.6923 C.ar      1 <0>        -0.0971
     11 C9          0.5774    1.0761   -2.6940 C.ar      1 <0>         0.0324
     12 O3          0.1873   -0.1760   -2.3297 O.3       1 <0>        -0.3090
     13 C10         0.4465   -2.1488   -0.9818 C.cat     1 <0>         0.5088
     14 N1          1.4201   -2.9973   -0.7491 N.pl3     1 <0>        -0.6138
     15 C11         0.8761   -4.3645   -0.7184 C.3       1 <0>         0.0581
     16 C12        -0.6288   -4.1506   -0.9823 C.3       1 <0>         0.0516
     17 N2         -0.7408   -2.6898   -1.1228 N.pl3     1 <0>        -0.6102
     18 H1         -1.7627    0.2352   -1.0697 H         1 <0>         0.0744
     19 H2         -1.7428   -1.1219    0.0819 H         1 <0>         0.0466
     20 H3         -1.8779    0.5497    0.6785 H         1 <0>         0.1248
     21 H4          2.5704   -0.7129   -0.0383 H         1 <0>         0.1402
     22 H5          2.6964   -0.8593   -1.8107 H         1 <0>         0.1086
     23 H6          2.8958    3.4390   -2.0022 H         1 <0>         0.1461
     24 H7          1.6577    4.6097   -3.7772 H         1 <0>         0.1447
     25 H8         -0.2713    3.5280   -4.8560 H         1 <0>         0.1440
     26 H9         -0.9643    1.2696   -4.1679 H         1 <0>         0.1404
     27 H10         1.3219   -4.9738   -1.5046 H         1 <0>         0.1364
     28 H11         1.0345   -4.8199    0.2592 H         1 <0>         0.1360
     29 H12        -0.9338   -4.6532   -1.9001 H         1 <0>         0.1360
     30 H13        -1.2212   -4.4992   -0.1363 H         1 <0>         0.1349
     31 H14        -1.5625   -2.2037   -1.2944 H         1 <0>         0.4617
     32 H15         2.3517   -2.7608   -0.6185 H         1 <0>         0.4616
@<TRIPOS>BOND
     1    1    2 1
     2    1   18 1
     3    1   19 1
     4    1   20 1
     5    2    3 1
     6    3   12 1
     7    3    4 1
     8    3   13 1
     9    4    5 1
    10    4   21 1
    11    4   22 1
    12    5    6 1
    13    6   11 ar
    14    6    7 ar
    15    7    8 ar
    16    7   23 1
    17    8    9 ar
    18    8   24 1
    19    9   10 ar
    20    9   25 1
    21   10   11 ar
    22   10   26 1
    23   11   12 1
    24   13   17 1
    25   13   14 2
    26   14   15 1
    27   14   32 1
    28   15   16 1
    29   15   27 1
    30   15   28 1
    31   16   17 1
    32   16   29 1
    33   16   30 1
    34   17   31 1
@<TRIPOS>MOLECULE
ZINC03995905
   32    34     0     0     0
SMALL
USER_CHARGES

@<TRIPOS>ATOM
      1 C1          0.1172   -0.4235    1.1743 C.3       1 <0>        -0.0030
      2 O1         -0.1971    0.0056   -0.1521 O.3       1 <0>        -0.3348
      3 C2          0.7095   -0.4726   -1.1478 C.3       1 <0>         0.2538
      4 C3          0.3188    0.0952   -2.5189 C.3       1 <0>         0.0432
      5 O2          0.3805    1.5238   -2.4466 O.3       1 <0>        -0.2721
      6 C4          1.4862    2.0592   -1.8605 C.ar      1 <0>         0.0578
      7 C5          1.7890    3.3961   -2.0722 C.ar      1 <0>        -0.1049
      8 C6          2.9064    3.9548   -1.4813 C.ar      1 <0>        -0.0924
      9 C7          3.7254    3.1831   -0.6781 C.ar      1 <0>        -0.1070
     10 C8          3.4302    1.8501   -0.4643 C.ar      1 <0>        -0.0973
     11 C9          2.3109    1.2828   -1.0553 C.ar      1 <0>         0.0337
     12 O3          2.0376   -0.0334   -0.8424 O.3       1 <0>        -0.3093
     13 C10         0.6694   -1.9785   -1.1903 C.cat     1 <0>         0.5078
     14 N1          0.2302   -2.6423   -2.2337 N.pl3     1 <0>        -0.6134
     15 C11         0.3201   -4.0863   -1.9638 C.3       1 <0>         0.0579
     16 C12         0.9063   -4.1422   -0.5378 C.3       1 <0>         0.0518
     17 N2          1.0763   -2.7225   -0.1888 N.pl3     1 <0>        -0.6101
     18 H1         -0.0725   -1.4931    1.2646 H         1 <0>         0.0496
     19 H2          1.1681   -0.2220    1.3819 H         1 <0>         0.0727
     20 H3         -0.5044    0.1173    1.8879 H         1 <0>         0.1248
     21 H4          1.0138   -0.2648   -3.2775 H         1 <0>         0.1087
     22 H5         -0.6949   -0.2166   -2.7706 H         1 <0>         0.1399
     23 H6          1.1512    4.0009   -2.6996 H         1 <0>         0.1460
     24 H7          3.1405    4.9959   -1.6475 H         1 <0>         0.1446
     25 H8          4.5975    3.6227   -0.2171 H         1 <0>         0.1439
     26 H9          4.0715    1.2494    0.1636 H         1 <0>         0.1402
     27 H10        -0.6682   -4.5453   -1.9919 H         1 <0>         0.1361
     28 H11         0.9903   -4.5697   -2.6747 H         1 <0>         0.1366
     29 H12         0.2105   -4.6291    0.1455 H         1 <0>         0.1356
     30 H13         1.8690   -4.6534   -0.5373 H         1 <0>         0.1358
     31 H14         1.4316   -2.3893    0.6501 H         1 <0>         0.4622
     32 H15        -0.1020   -2.2440   -3.0534 H         1 <0>         0.4618
@<TRIPOS>BOND
     1    1    2 1
     2    1   18 1
     3    1   19 1
     4    1   20 1
     5    2    3 1
     6    3   12 1
     7    3    4 1
     8    3   13 1
     9    4    5 1
    10    4   21 1
    11    4   22 1
    12    5    6 1
    13    6   11 ar
    14    6    7 ar
    15    7    8 ar
    16    7   23 1
    17    8    9 ar
    18    8   24 1
    19    9   10 ar
    20    9   25 1
    21   10   11 ar
    22   10   26 1
    23   11   12 1
    24   13   17 1
    25   13   14 2
    26   14   15 1
    27   14   32 1
    28   15   16 1
    29   15   27 1
    30   15   28 1
    31   16   17 1
    32   16   29 1
    33   16   30 1
    34   17   31 1
@<TRIPOS>MOLECULE
ZINC03977785
   53    57     0     0     0
SMALL
USER_CHARGES

@<TRIPOS>ATOM
      1 C1         -0.0173    1.4248    0.0099 C.3       1 <0>         0.0297
      2 O1          0.0021   -0.0041    0.0020 O.3       1 <0>        -0.3232
      3 C2          0.5984   -0.5997   -1.0427 C.2       1 <0>         0.4702
      4 O2          1.0877    0.0699   -1.9214 O.2       1 <0>        -0.5141
      5 C3          0.6575   -2.1036   -1.1196 C.3       1 <0>        -0.0705
      6 H1         -0.3553   -2.5061   -1.1292 H         1 <0>         0.1302
      7 C4          1.4092   -2.6460    0.0974 C.3       1 <0>         0.1112
      8 H2          2.4212   -2.2414    0.1100 H         1 <0>         0.0602
      9 C5          1.4705   -4.1729    0.0153 C.3       1 <0>        -0.1515
     10 C6          2.2113   -4.5823   -1.2587 C.3       1 <0>        -0.1326
     11 C7          1.4664   -4.0438   -2.4826 C.3       1 <0>        -0.1081
     12 H3          0.4649   -4.4724   -2.5190 H         1 <0>         0.1315
     13 C8          1.3810   -2.5185   -2.3989 C.3       1 <0>        -0.0737
     14 H4          0.8319   -2.1415   -3.2617 H         1 <0>         0.1077
     15 C9          2.7928   -1.9262   -2.4160 C.3       1 <0>        -0.1589
     16 C10         3.5103   -2.3981   -3.6821 C.3       1 <0>         0.1155
     17 H5          2.9548   -2.0679   -4.5599 H         1 <0>         0.1495
     18 C11         4.9074   -1.8328   -3.7280 C.2       1 <0>         0.0218
     19 C12         5.9794   -2.5662   -4.1107 C.2       1 <0>        -0.1593
     20 C13         7.1369   -1.7045   -4.0313 C.ar      1 <0>        -0.1001
     21 C14         8.4945   -1.9085   -4.2980 C.ar      1 <0>        -0.0651
     22 C15         9.3323   -0.8371   -4.1111 C.ar      1 <0>        -0.1355
     23 C16         8.8675    0.3940   -3.6782 C.ar      1 <0>        -0.0814
     24 C17         7.5302    0.6240   -3.4055 C.ar      1 <0>        -0.1278
     25 C18         6.6557   -0.4455   -3.5858 C.ar      1 <0>         0.1112
     26 N1          5.3059   -0.5632   -3.4122 N.pl3     1 <0>        -0.5610
     27 H6          4.7183    0.1471   -3.1102 H         1 <0>         0.4235
     28 C19         5.8873   -4.0118   -4.5303 C.3       1 <0>        -0.0680
     29 C20         4.4103   -4.3357   -4.7986 C.3       1 <0>        -0.0070
     30 N2          3.5921   -3.8652   -3.6762 N.4       1 <0>        -0.3805
     31 C21         2.2397   -4.4350   -3.7475 C.3       1 <0>         0.0000
     32 O3          0.7259   -2.2590    1.2913 O.3       1 <0>        -0.5457
     33 H7          1.0053    1.8021    0.0021 H         1 <0>         0.0611
     34 H8         -0.5445    1.7859   -0.8732 H         1 <0>         0.0635
     35 H9         -0.5275    1.7763    0.9067 H         1 <0>         0.1087
     36 H10         1.9994   -4.5630    0.8849 H         1 <0>         0.0864
     37 H11         0.4583   -4.5769   -0.0067 H         1 <0>         0.0895
     38 H12         3.2209   -4.1721   -1.2390 H         1 <0>         0.0596
     39 H13         2.2629   -5.6696   -1.3148 H         1 <0>         0.0926
     40 H14         2.7325   -0.8379   -2.4143 H         1 <0>         0.1358
     41 H15         3.3417   -2.2650   -1.5373 H         1 <0>         0.0927
     42 H16         8.8666   -2.8645   -4.6357 H         1 <0>         0.1349
     43 H17        10.3874   -0.9579   -4.3074 H         1 <0>         0.1281
     44 H18         9.5726    1.2018   -3.5488 H         1 <0>         0.1313
     45 H19         7.1805    1.5885   -3.0678 H         1 <0>         0.1353
     46 H20         6.4698   -4.1697   -5.4380 H         1 <0>         0.1220
     47 H21         6.2658   -4.6516   -3.7331 H         1 <0>         0.0994
     48 H22         4.0893   -3.8376   -5.7134 H         1 <0>         0.1324
     49 H23         4.2888   -5.4132   -4.9094 H         1 <0>         0.1402
     50 H24         2.3054   -5.5210   -3.8133 H         1 <0>         0.1424
     51 H25         1.7237   -4.0459   -4.6252 H         1 <0>         0.1366
     52 H26         1.1478   -2.5695    2.1041 H         1 <0>         0.3887
     53 H27         4.0203   -4.1656   -2.8134 H         1 <0>         0.4208
@<TRIPOS>BOND
     1    1    2 1
     2    1   33 1
     3    1   34 1
     4    1   35 1
     5    2    3 1
     6    3    4 2
     7    3    5 1
     8    5    6 1
     9    5   13 1
    10    5    7 1
    11    7    8 1
    12    7    9 1
    13    7   32 1
    14    9   10 1
    15    9   36 1
    16    9   37 1
    17   10   11 1
    18   10   38 1
    19   10   39 1
    20   11   12 1
    21   11   31 1
    22   11   13 1
    23   13   14 1
    24   13   15 1
    25   15   16 1
    26   15   40 1
    27   15   41 1
    28   16   17 1
    29   16   30 1
    30   16   18 1
    31   18   26 1
    32   18   19 2
    33   19   20 1
    34   19   28 1
    35   20   25 ar
    36   20   21 ar
    37   21   22 ar
    38   21   42 1
    39   22   23 ar
    40   22   43 1
    41   23   24 ar
    42   23   44 1
    43   24   25 ar
    44   24   45 1
    45   25   26 1
    46   26   27 1
    47   28   29 1
    48   28   46 1
    49   28   47 1
    50   29   30 1
    51   29   48 1
    52   29   49 1
    53   30   31 1
    54   30   53 1
    55   31   50 1
    56   31   51 1
    57   32   52 1
@<TRIPOS>MOLECULE
ZINC00020245
   46    48     0     0     0
SMALL
USER_CHARGES

@<TRIPOS>ATOM
      1 C1         -5.6836    1.3838    0.0162 C.3       1 <0>        -0.0473
      2 N1         -5.6620   -0.0833   -0.0564 N.4       1 <0>        -0.3868
      3 C2         -6.3713   -0.5242   -1.2649 C.3       1 <0>        -0.0522
      4 C3         -4.2702   -0.5505   -0.1076 C.3       1 <0>        -0.0086
      5 C4         -4.2434   -2.0795   -0.0575 C.3       1 <0>        -0.1781
      6 C5         -2.7938   -2.5661   -0.1108 C.3       1 <0>         0.1490
      7 N2         -2.7704   -4.0309   -0.1190 N.pl3     1 <0>        -0.6108
      8 C6         -2.7295   -4.7451   -1.3212 C.ar      1 <0>         0.1758
      9 C7         -1.6865   -4.4783   -2.2022 C.ar      1 <0>        -0.1411
     10 C8         -1.5734   -5.1772   -3.3856 C.ar      1 <0>        -0.1022
     11 C9         -2.5089   -6.1508   -3.6854 C.ar      1 <0>        -0.1266
     12 C10        -3.5489   -6.4041   -2.8209 C.ar      1 <0>        -0.1101
     13 C11        -3.6933   -5.6947   -1.6266 C.ar      1 <0>        -0.0998
     14 C12        -4.9357   -6.0340   -0.8354 C.3       1 <0>        -0.0687
     15 C13        -5.1005   -5.1892    0.4158 C.3       1 <0>        -0.0773
     16 C14        -3.9592   -5.4030    1.3779 C.ar      1 <0>        -0.0996
     17 C15        -2.7824   -4.7590    1.0748 C.ar      1 <0>         0.1523
     18 C16        -1.6837   -4.8488    1.9126 C.ar      1 <0>        -0.1184
     19 C17        -1.7825   -5.6251    3.0560 C.ar      1 <0>        -0.1094
     20 C18        -2.9565   -6.2950    3.3488 C.ar      1 <0>        -0.1165
     21 C19        -4.0679   -6.1865    2.5030 C.ar      1 <0>        -0.1028
     22 H1         -6.7163    1.7305    0.0542 H         1 <0>         0.1245
     23 H2         -5.1573    1.7109    0.9129 H         1 <0>         0.1235
     24 H3         -5.1933    1.7984   -0.8646 H         1 <0>         0.1221
     25 H4         -6.3552   -1.6128   -1.3188 H         1 <0>         0.1231
     26 H5         -7.4040   -0.1775   -1.2269 H         1 <0>         0.1246
     27 H6         -5.8810   -0.1096   -2.1457 H         1 <0>         0.1227
     28 H7         -3.8061   -0.2091   -1.0329 H         1 <0>         0.1308
     29 H8         -3.7207   -0.1494    0.7440 H         1 <0>         0.1320
     30 H9         -4.7075   -2.4209    0.8678 H         1 <0>         0.0908
     31 H10        -4.7929   -2.4806   -0.9091 H         1 <0>         0.0915
     32 H11        -2.3174   -2.1901   -1.0161 H         1 <0>         0.0824
     33 H12        -2.2550   -2.1990    0.7627 H         1 <0>         0.0801
     34 H13        -0.9599   -3.7176   -1.9576 H         1 <0>         0.1215
     35 H14        -0.7646   -4.9667   -4.0697 H         1 <0>         0.1276
     36 H15        -2.4229   -6.7145   -4.6025 H         1 <0>         0.1250
     37 H16        -4.2693   -7.1687   -3.0712 H         1 <0>         0.1222
     38 H17        -5.8074   -5.8880   -1.4734 H         1 <0>         0.0793
     39 H18        -4.8898   -7.0837   -0.5452 H         1 <0>         0.0765
     40 H19        -5.1365   -4.1371    0.1334 H         1 <0>         0.0724
     41 H20        -6.0358   -5.4578    0.9068 H         1 <0>         0.0709
     42 H21        -0.7686   -4.3248    1.6795 H         1 <0>         0.1257
     43 H22        -0.9372   -5.7074    3.7231 H         1 <0>         0.1275
     44 H23        -3.0178   -6.9071    4.2365 H         1 <0>         0.1269
     45 H24        -4.9880   -6.7067    2.7249 H         1 <0>         0.1290
     46 H25        -6.1159   -0.4671    0.7589 H         1 <0>         0.4268
@<TRIPOS>BOND
     1    1    2 1
     2    1   22 1
     3    1   23 1
     4    1   24 1
     5    2    3 1
     6    2    4 1
     7    2   46 1
     8    3   25 1
     9    3   26 1
    10    3   27 1
    11    4    5 1
    12    4   28 1
    13    4   29 1
    14    5    6 1
    15    5   30 1
    16    5   31 1
    17    6    7 1
    18    6   32 1
    19    6   33 1
    20    7   17 1
    21    7    8 1
    22    8   13 ar
    23    8    9 ar
    24    9   10 ar
    25    9   34 1
    26   10   11 ar
    27   10   35 1
    28   11   12 ar
    29   11   36 1
    30   12   13 ar
    31   12   37 1
    32   13   14 1
    33   14   15 1
    34   14   38 1
    35   14   39 1
    36   15   16 1
    37   15   40 1
    38   15   41 1
    39   16   21 ar
    40   16   17 ar
    41   17   18 ar
    42   18   19 ar
    43   18   42 1
    44   19   20 ar
    45   19   43 1
    46   20   21 ar
    47   20   44 1
    48   21   45 1
@<TRIPOS>MOLECULE
ZINC11802711
   23    24     0     0     0
SMALL
USER_CHARGES
2,3,4,5-tetrahydro-1,4-benzoxazepine
@<TRIPOS>ATOM
      1 C1          4.6751   -0.7850   -1.2460 C.ar      1 <0>        -0.1177
      2 C2          3.9039   -1.9325   -1.2768 C.ar      1 <0>        -0.0687
      3 C3          2.5248   -1.8439   -1.2762 C.ar      1 <0>        -0.1216
      4 C4          1.9166   -0.5968   -1.2461 C.ar      1 <0>         0.1047
      5 C5          2.6917    0.5471   -1.2361 C.ar      1 <0>        -0.1938
      6 C6          4.0685    0.4587   -1.2252 C.ar      1 <0>        -0.0704
      7 C7          2.0155    1.9040   -1.2694 C.3       1 <0>         0.0529
      8 C8         -0.0184    1.5093    0.0103 C.3       1 <0>        -0.0403
      9 C9          0.0021   -0.0041    0.0020 C.3       1 <0>         0.0426
     10 O1          0.5593   -0.4977   -1.2223 O.3       1 <0>        -0.3125
     11 H1          5.7525   -0.8596   -1.2379 H         1 <0>         0.1421
     12 H2          4.3810   -2.9011   -1.3010 H         1 <0>         0.1439
     13 H3          1.9234   -2.7406   -1.2993 H         1 <0>         0.1449
     14 H4          4.6697    1.3556   -1.2008 H         1 <0>         0.1408
     15 H5          2.7660    2.6830   -1.4034 H         1 <0>         0.1411
     16 H6          1.3033    1.9372   -2.0939 H         1 <0>         0.1417
     17 H7         -0.5645    1.8554   -0.8672 H         1 <0>         0.1397
     18 H8         -0.5476    1.8459    0.9018 H         1 <0>         0.1439
     19 H9          0.6034   -0.3594    0.8389 H         1 <0>         0.0838
     20 H10        -1.0165   -0.3773    0.1082 H         1 <0>         0.1464
     21 N1          1.3199    2.1234    0.0178 N.4       1 <0>        -0.5165
     22 H11         1.2245    3.1329    0.1793 H         1 <0>         0.4408
     23 H12         1.8755    1.7068    0.7741 H         1 <0>         0.4323
@<TRIPOS>BOND
     1    1    6 ar
     2    1    2 ar
     3    1   11 1
     4    2    3 ar
     5    2   12 1
     6    3    4 ar
     7    3   13 1
     8    4   10 1
     9    4    5 ar
    10    5    6 ar
    11    5    7 1
    12    6   14 1
    13    7   15 1
    14    7   16 1
    15    7   21 1
    16    8    9 1
    17    8   17 1
    18    8   18 1
    19    8   21 1
    20    9   10 1
    21    9   19 1
    22    9   20 1
    23   21   22 1
    24   21   23 1
@<TRIPOS>MOLECULE
ZINC05832987
   45    46     0     0     0
SMALL
USER_CHARGES
6-dipropylaminotetralin-1,2-diol
@<TRIPOS>ATOM
      1 C1          4.0838    6.1486    0.2579 C.3       1 <0>        -0.1561
      2 C2          2.6904    5.5655    0.0144 C.3       1 <0>        -0.1487
      3 C3          2.7901    4.0445   -0.1183 C.3       1 <0>        -0.0174
      4 C4          0.8291    3.7966   -1.5167 C.3       1 <0>        -0.0132
      5 C5          1.5485    3.0281   -2.6270 C.3       1 <0>        -0.1475
      6 C6          1.0032    3.4676   -3.9873 C.3       1 <0>        -0.1559
      7 C7          1.4665    2.0205    0.0004 C.3       1 <0>         0.0259
      8 H1          2.0682    1.5414   -0.7718 H         1 <0>         0.1445
      9 C8          0.0373    1.4667   -0.0408 C.3       1 <0>        -0.1393
     10 C9          0.1120   -0.0588   -0.0496 C.3       1 <0>        -0.0726
     11 C10         0.9935   -0.5526    1.0676 C.ar      1 <0>        -0.0931
     12 C11         1.8938    0.2626    1.7174 C.ar      1 <0>        -0.0866
     13 C12         2.6841   -0.2556    2.7351 C.ar      1 <0>        -0.1013
     14 C13         2.5748   -1.5798    3.1076 C.ar      1 <0>        -0.1245
     15 C14         1.6679   -2.4036    2.4612 C.ar      1 <0>         0.0981
     16 C15         0.8781   -1.8882    1.4413 C.ar      1 <0>         0.0855
     17 O1         -0.0129   -2.6939    0.8037 O.3       1 <0>        -0.4823
     18 O2          1.5511   -3.7093    2.8234 O.3       1 <0>        -0.4841
     19 C16         2.0600    1.7204    1.3753 C.3       1 <0>        -0.0917
     20 H2          4.0128    7.2322    0.3524 H         1 <0>         0.0774
     21 H3          4.4975    5.7302    1.1754 H         1 <0>         0.0668
     22 H4          4.7338    5.8989   -0.5807 H         1 <0>         0.0668
     23 H5          2.2766    5.9839   -0.9031 H         1 <0>         0.0857
     24 H6          2.0404    5.8152    0.8530 H         1 <0>         0.0847
     25 H7          3.2923    3.6355    0.7584 H         1 <0>         0.1312
     26 H8          3.3600    3.7945   -1.0131 H         1 <0>         0.1325
     27 H9         -0.2235    3.5139   -1.5024 H         1 <0>         0.1303
     28 H10         0.9152    4.8674   -1.7014 H         1 <0>         0.1313
     29 H11         2.6173    3.2367   -2.5795 H         1 <0>         0.0836
     30 H12         1.3807    1.9591   -2.4965 H         1 <0>         0.0861
     31 H13         1.5157    2.9201   -4.7783 H         1 <0>         0.0768
     32 H14        -0.0656    3.2591   -4.0349 H         1 <0>         0.0674
     33 H15         1.1710    4.5366   -4.1179 H         1 <0>         0.0665
     34 H16        -0.4655    1.8149   -0.9430 H         1 <0>         0.0950
     35 H17        -0.5119    1.8023    0.8389 H         1 <0>         0.0932
     36 H18        -0.8903   -0.4684    0.0755 H         1 <0>         0.1038
     37 H19         0.5197   -0.3931   -1.0036 H         1 <0>         0.0867
     38 H20         3.3924    0.3846    3.2400 H         1 <0>         0.1339
     39 H21         3.1940   -1.9725    3.9007 H         1 <0>         0.1418
     40 H22         0.3494   -3.1455    0.0292 H         1 <0>         0.3916
     41 H23         2.1368   -4.3061    2.3377 H         1 <0>         0.3954
     42 H24         1.5521    2.3259    2.1260 H         1 <0>         0.0977
     43 H25         3.1210    1.9699    1.3710 H         1 <0>         0.1003
     44 N1          1.4248    3.4843   -0.2006 N.4       1 <0>        -0.3928
     45 H26         0.8464    3.9057    0.5357 H         1 <0>         0.4265
@<TRIPOS>BOND
     1    1    2 1
     2    1   20 1
     3    1   21 1
     4    1   22 1
     5    2    3 1
     6    2   23 1
     7    2   24 1
     8    3   25 1
     9    3   26 1
    10    3   44 1
    11    4    5 1
    12    4   27 1
    13    4   28 1
    14    4   44 1
    15    5    6 1
    16    5   29 1
    17    5   30 1
    18    6   31 1
    19    6   32 1
    20    6   33 1
    21    7    8 1
    22    7   19 1
    23    7    9 1
    24    7   44 1
    25    9   10 1
    26    9   34 1
    27    9   35 1
    28   10   11 1
    29   10   36 1
    30   10   37 1
    31   11   16 ar
    32   11   12 ar
    33   12   13 ar
    34   12   19 1
    35   13   14 ar
    36   13   38 1
    37   14   15 ar
    38   14   39 1
    39   15   16 ar
    40   15   18 1
    41   16   17 1
    42   17   40 1
    43   18   41 1
    44   19   42 1
    45   19   43 1
    46   44   45 1
@<TRIPOS>MOLECULE
ZINC05833076
   45    46     0     0     0
SMALL
USER_CHARGES
6-dipropylaminotetralin-1,2-diol
@<TRIPOS>ATOM
      1 C1         -0.1778    6.7385   -1.2871 C.3       1 <0>        -0.1561
      2 C2          0.7374    5.9534   -0.3453 C.3       1 <0>        -0.1504
      3 C3          0.6496    4.4619   -0.6748 C.3       1 <0>        -0.0141
      4 C4          1.0503    3.7883    1.6161 C.3       1 <0>        -0.0141
      5 C5          2.1955    3.4456    2.5710 C.3       1 <0>        -0.1499
      6 C6          1.7348    3.6532    4.0152 C.3       1 <0>        -0.1558
      7 C7          1.6549    2.3101   -0.2037 C.3       1 <0>         0.0261
      8 H1          2.1625    1.7308    0.5675 H         1 <0>         0.1420
      9 C8          0.2628    1.7208   -0.4599 C.3       1 <0>        -0.1333
     10 C9          0.4086    0.2153   -0.6716 C.3       1 <0>        -0.0702
     11 C10         1.4632   -0.0744   -1.7074 C.ar      1 <0>        -0.0927
     12 C11         2.4072    0.8552   -2.0847 C.ar      1 <0>        -0.0865
     13 C12         3.3585    0.5236   -3.0407 C.ar      1 <0>        -0.1009
     14 C13         3.3670   -0.7278   -3.6222 C.ar      1 <0>        -0.1247
     15 C14         2.4176   -1.6656   -3.2504 C.ar      1 <0>         0.0985
     16 C15         1.4667   -1.3372   -2.2924 C.ar      1 <0>         0.0851
     17 O1          0.5337   -2.2554   -1.9237 O.3       1 <0>        -0.4820
     18 O2          2.4163   -2.9004   -3.8201 O.3       1 <0>        -0.4843
     19 C16         2.4526    2.2448   -1.5044 C.3       1 <0>        -0.0930
     20 H2         -0.1153    7.8011   -1.0523 H         1 <0>         0.0775
     21 H3          0.1357    6.5751   -2.3182 H         1 <0>         0.0669
     22 H4         -1.2058    6.3986   -1.1617 H         1 <0>         0.0667
     23 H5          0.4239    6.1167    0.6858 H         1 <0>         0.0858
     24 H6          1.7654    6.2933   -0.4707 H         1 <0>         0.0856
     25 H7          0.9631    4.2985   -1.7059 H         1 <0>         0.1296
     26 H8         -0.3784    4.1220   -0.5494 H         1 <0>         0.1325
     27 H9          0.6967    4.7989    1.8207 H         1 <0>         0.1328
     28 H10         0.2332    3.0814    1.7602 H         1 <0>         0.1317
     29 H11         2.4880    2.4053    2.4290 H         1 <0>         0.0850
     30 H12         3.0471    4.0940    2.3645 H         1 <0>         0.0849
     31 H13         2.5507    3.4091    4.6955 H         1 <0>         0.0774
     32 H14         1.4423    4.6936    4.1572 H         1 <0>         0.0668
     33 H15         0.8833    3.0049    4.2217 H         1 <0>         0.0671
     34 H16        -0.1707    2.1765   -1.3501 H         1 <0>         0.0924
     35 H17        -0.3799    1.9101    0.4000 H         1 <0>         0.0917
     36 H18         0.6914   -0.2544    0.2704 H         1 <0>         0.0919
     37 H19        -0.5448   -0.1947   -1.0050 H         1 <0>         0.0965
     38 H20         4.1001    1.2528   -3.3316 H         1 <0>         0.1342
     39 H21         4.1109   -0.9750   -4.3650 H         1 <0>         0.1418
     40 H22        -0.2754   -2.2280   -2.4525 H         1 <0>         0.3912
     41 H23         1.8772   -2.9638   -4.6204 H         1 <0>         0.3956
     42 H24         3.4889    2.5171   -1.3044 H         1 <0>         0.1005
     43 H25         2.0289    2.9478   -2.2216 H         1 <0>         0.0975
     44 N1          1.5544    3.7200    0.2284 N.4       1 <0>        -0.3932
     45 H26         2.4871    4.1476    0.1910 H         1 <0>         0.4261
@<TRIPOS>BOND
     1    1    2 1
     2    1   20 1
     3    1   21 1
     4    1   22 1
     5    2    3 1
     6    2   23 1
     7    2   24 1
     8    3   25 1
     9    3   26 1
    10    3   44 1
    11    4    5 1
    12    4   27 1
    13    4   28 1
    14    4   44 1
    15    5    6 1
    16    5   29 1
    17    5   30 1
    18    6   31 1
    19    6   32 1
    20    6   33 1
    21    7    8 1
    22    7   19 1
    23    7    9 1
    24    7   44 1
    25    9   10 1
    26    9   34 1
    27    9   35 1
    28   10   11 1
    29   10   36 1
    30   10   37 1
    31   11   16 ar
    32   11   12 ar
    33   12   13 ar
    34   12   19 1
    35   13   14 ar
    36   13   38 1
    37   14   15 ar
    38   14   39 1
    39   15   16 ar
    40   15   18 1
    41   16   17 1
    42   17   40 1
    43   18   41 1
    44   19   42 1
    45   19   43 1
    46   44   45 1
@<TRIPOS>MOLECULE
ZINC04111883
   19    20     0     0     0
SMALL
USER_CHARGES
isoindoline
@<TRIPOS>ATOM
      1 C1         -1.3395    2.2526   -3.4228 C.ar      1 <0>        -0.0930
      2 C2         -2.6000    2.6299   -2.9983 C.ar      1 <0>        -0.0930
      3 C3         -2.9507    2.4941   -1.6682 C.ar      1 <0>        -0.0752
      4 C4         -2.0419    1.9816   -0.7623 C.ar      1 <0>        -0.1416
      5 C5         -0.7795    1.6043   -1.1873 C.ar      1 <0>        -0.1415
      6 C6         -0.4296    1.7404   -2.5171 C.ar      1 <0>        -0.0752
      7 C7         -0.0127    1.0858    0.0080 C.3       1 <0>         0.0428
      8 C8         -2.1387    1.7213    0.7238 C.3       1 <0>         0.0433
      9 H1         -1.0655    2.3588   -4.4621 H         1 <0>         0.1437
     10 H2         -3.3107    3.0305   -3.7060 H         1 <0>         0.1437
     11 H3         -3.9357    2.7883   -1.3370 H         1 <0>         0.1387
     12 H4          0.5551    1.4461   -2.8490 H         1 <0>         0.1387
     13 H5          0.0021   -0.0041    0.0020 H         1 <0>         0.1460
     14 H6          1.0051    1.4757    0.0004 H         1 <0>         0.1461
     15 H7         -2.6226    2.5611    1.2224 H         1 <0>         0.1461
     16 H8         -2.6948    0.8025    0.9097 H         1 <0>         0.1462
     17 N1         -0.7555    1.5733    1.1623 N.4       1 <0>        -0.5023
     18 H9         -0.3810    2.4784    1.4702 H         1 <0>         0.4402
     19 H10        -0.6971    0.8984    1.9340 H         1 <0>         0.4464
@<TRIPOS>BOND
     1    1    6 ar
     2    1    2 ar
     3    1    9 1
     4    2    3 ar
     5    2   10 1
     6    3    4 ar
     7    3   11 1
     8    4    8 1
     9    4    5 ar
    10    5    6 ar
    11    5    7 1
    12    6   12 1
    13    7   13 1
    14    7   14 1
    15    7   17 1
    16    8   15 1
    17    8   16 1
    18    8   17 1
    19   17   18 1
    20   17   19 1
@<TRIPOS>MOLECULE
ZINC00015515
   43    45     0     0     0
SMALL
USER_CHARGES

@<TRIPOS>ATOM
      1 C1         -0.0178    1.4648    0.0101 C.3       1 <0>        -0.0471
      2 N1          0.0021   -0.0041    0.0020 N.4       1 <0>        -0.3886
      3 C2          0.7126   -0.4907    1.1921 C.3       1 <0>        -0.0527
      4 C3         -1.3761   -0.5125    0.0124 C.3       1 <0>        -0.0087
      5 C4         -1.3584   -2.0365   -0.1216 C.3       1 <0>        -0.0607
      6 C5         -2.7722   -2.5582   -0.1109 C.2       1 <0>        -0.2038
      7 C6         -3.4483   -3.0106    0.9568 C.2       1 <0>         0.0869
      8 N2         -4.7052   -3.4010    0.5822 N.pl3     1 <0>        -0.5871
      9 H1         -5.3778   -3.7624    1.1803 H         1 <0>         0.4240
     10 C7         -4.8728   -3.2042   -0.7702 C.ar      1 <0>         0.0959
     11 C8         -3.6716   -2.6617   -1.2627 C.ar      1 <0>        -0.0955
     12 C9         -3.5517   -2.3510   -2.6183 C.ar      1 <0>        -0.0825
     13 C10        -4.6048   -2.5723   -3.4607 C.ar      1 <0>        -0.0995
     14 C11        -5.7932   -3.1034   -2.9792 C.ar      1 <0>        -0.0885
     15 C12        -5.9299   -3.4260   -1.6465 C.ar      1 <0>        -0.1148
     16 C13        -4.4748   -2.2367   -4.9240 C.3       1 <0>        -0.0841
     17 C14        -3.9414   -3.4545   -5.6812 C.3       1 <0>         0.0969
     18 H2         -4.5631   -4.3296   -5.4923 H         1 <0>         0.1029
     19 C15        -3.8474   -3.1625   -7.1977 C.3       1 <0>         0.0412
     20 O1         -2.6339   -3.8494   -7.5609 O.3       1 <0>        -0.3237
     21 C16        -1.8515   -3.9154   -6.4706 C.2       1 <0>         0.6446
     22 O2         -0.6563   -4.1299   -6.5129 O.2       1 <0>        -0.5150
     23 N3         -2.5346   -3.7218   -5.3222 N.am      1 <0>        -0.7365
     24 H3          1.0047    1.8421    0.0024 H         1 <0>         0.1243
     25 H4         -0.5450    1.8259   -0.8730 H         1 <0>         0.1226
     26 H5         -0.5280    1.8163    0.9069 H         1 <0>         0.1212
     27 H6          0.2024   -0.1392    2.0889 H         1 <0>         0.1217
     28 H7          0.7273   -1.5806    1.1861 H         1 <0>         0.1248
     29 H8          1.7352   -0.1134    1.1844 H         1 <0>         0.1241
     30 H9         -1.8584   -0.2358    0.9500 H         1 <0>         0.1288
     31 H10        -1.9290   -0.0808   -0.8218 H         1 <0>         0.1299
     32 H11        -0.8762   -2.3132   -1.0592 H         1 <0>         0.0914
     33 H12        -0.8055   -2.4683    0.7126 H         1 <0>         0.0919
     34 H13        -3.0579   -3.0597    1.9626 H         1 <0>         0.1733
     35 H14        -2.6302   -1.9368   -2.9999 H         1 <0>         0.1179
     36 H15        -6.6168   -3.2720   -3.6571 H         1 <0>         0.1334
     37 H16        -6.8592   -3.8377   -1.2812 H         1 <0>         0.1276
     38 H17        -5.4514   -1.9607   -5.3217 H         1 <0>         0.0989
     39 H18        -3.7841   -1.4022   -5.0454 H         1 <0>         0.0840
     40 H19        -4.7039   -3.5787   -7.7280 H         1 <0>         0.1254
     41 H20        -3.7591   -2.0920   -7.3832 H         1 <0>         0.0970
     42 H21        -2.1690   -3.7504   -4.4242 H         1 <0>         0.4311
     43 H22         0.4744   -0.3295   -0.8281 H         1 <0>         0.4271
@<TRIPOS>BOND
     1    1    2 1
     2    1   24 1
     3    1   25 1
     4    1   26 1
     5    2    3 1
     6    2    4 1
     7    2   43 1
     8    3   27 1
     9    3   28 1
    10    3   29 1
    11    4    5 1
    12    4   30 1
    13    4   31 1
    14    5    6 1
    15    5   32 1
    16    5   33 1
    17    6   11 1
    18    6    7 2
    19    7    8 1
    20    7   34 1
    21    8    9 1
    22    8   10 1
    23   10   15 ar
    24   10   11 ar
    25   11   12 ar
    26   12   13 ar
    27   12   35 1
    28   13   14 ar
    29   13   16 1
    30   14   15 ar
    31   14   36 1
    32   15   37 1
    33   16   17 1
    34   16   38 1
    35   16   39 1
    36   17   18 1
    37   17   23 1
    38   17   19 1
    39   19   20 1
    40   19   40 1
    41   19   41 1
    42   20   21 1
    43   21   22 2
    44   21   23 am
    45   23   42 1
@<TRIPOS>MOLECULE
ZINC00113355
   26    26     0     0     0
SMALL
USER_CHARGES

@<TRIPOS>ATOM
      1 C1         -0.0178    1.4648    0.0101 C.3       1 <0>        -0.0479
      2 N1          0.0021   -0.0041    0.0020 N.4       1 <0>        -0.5056
      3 C2         -1.3761   -0.5125    0.0124 C.3       1 <0>        -0.0441
      4 C3         -1.3553   -2.0424    0.0040 C.3       1 <0>         0.1349
      5 H1         -0.8281   -2.4035    0.8871 H         1 <0>         0.1326
      6 C4         -2.7691   -2.5640    0.0147 C.ar      1 <0>        -0.1267
      7 C5         -3.4628   -2.7041   -1.1733 C.ar      1 <0>        -0.1176
      8 C6         -4.7599   -3.1823   -1.1669 C.ar      1 <0>        -0.0922
      9 C7         -5.3666   -3.5211    0.0273 C.ar      1 <0>        -0.1270
     10 C8         -4.6729   -3.3815    1.2204 C.ar      1 <0>         0.1181
     11 C9         -3.3690   -2.9071    1.2106 C.ar      1 <0>        -0.1312
     12 O1         -5.2674   -3.7142    2.3963 O.3       1 <0>        -0.4966
     13 O2         -0.6865   -2.5032   -1.1717 O.3       1 <0>        -0.5474
     14 H2          1.0047    1.8421    0.0024 H         1 <0>         0.1288
     15 H3         -0.5450    1.8259   -0.8730 H         1 <0>         0.1235
     16 H4         -0.5280    1.8163    0.9069 H         1 <0>         0.1242
     17 H5          0.4744   -0.3295   -0.8281 H         1 <0>         0.4339
     18 H6         -1.8863   -0.1610    0.9092 H         1 <0>         0.1449
     19 H7         -1.9033   -0.1515   -0.8706 H         1 <0>         0.1373
     20 H8         -2.9906   -2.4391   -2.1078 H         1 <0>         0.1260
     21 H9         -5.2996   -3.2908   -2.0961 H         1 <0>         0.1375
     22 H10        -6.3801   -3.8940    0.0319 H         1 <0>         0.1388
     23 H11        -2.8252   -2.8020    2.1378 H         1 <0>         0.1339
     24 H12        -5.1357   -4.6361    2.6566 H         1 <0>         0.4010
     25 H13        -1.1017   -2.2189   -1.9974 H         1 <0>         0.3891
     26 H14         0.4901   -0.3383    0.8195 H         1 <0>         0.4317
@<TRIPOS>BOND
     1    1    2 1
     2    1   14 1
     3    1   15 1
     4    1   16 1
     5    2    3 1
     6    2   17 1
     7    2   26 1
     8    3    4 1
     9    3   18 1
    10    3   19 1
    11    4    5 1
    12    4    6 1
    13    4   13 1
    14    6   11 ar
    15    6    7 ar
    16    7    8 ar
    17    7   20 1
    18    8    9 ar
    19    8   21 1
    20    9   10 ar
    21    9   22 1
    22   10   11 ar
    23   10   12 1
    24   11   23 1
    25   12   24 1
    26   13   25 1
@<TRIPOS>MOLECULE
ZINC05998832
   51    53     0     0     0
SMALL
USER_CHARGES
4-amino-5-chloro-N-[1-[(4-fluorophenyl)methyl]-4-piperidyl]-2-methoxy-benzamide
@<TRIPOS>ATOM
      1 C1          1.3159   -4.9468   -5.9419 C.3       1 <0>         0.0173
      2 O1          1.1885   -4.1554   -4.7589 O.3       1 <0>        -0.2772
      3 C2          1.1359   -4.8188   -3.5766 C.ar      1 <0>         0.2479
      4 C3          1.2113   -6.2006   -3.5506 C.ar      1 <0>        -0.2977
      5 C4          1.1508   -6.8746   -2.3376 C.ar      1 <0>         0.3045
      6 C5          1.0210   -6.1635   -1.1449 C.ar      1 <0>        -0.1595
      7 C6          0.9519   -4.7999   -1.1592 C.ar      1 <0>         0.0119
      8 C7          1.0112   -4.1070   -2.3735 C.ar      1 <0>        -0.2395
      9 C8          0.9368   -2.6368   -2.3894 C.2       1 <0>         0.5779
     10 O2          0.9885   -2.0367   -3.4461 O.2       1 <0>        -0.5149
     11 N1          0.8115   -1.9558   -1.2331 N.am      1 <0>        -0.7351
     12 C9          0.7375   -0.4928   -1.2489 C.3       1 <0>         0.1401
     13 C10         0.0021   -0.0041    0.0020 C.3       1 <0>        -0.1580
     14 C11        -0.0187    1.5261    0.0104 C.3       1 <0>         0.0041
     15 C12         2.0699    1.6185   -1.2150 C.3       1 <0>        -0.0031
     16 C13         2.1530    0.0910   -1.2600 C.3       1 <0>        -0.1607
     17 C14         1.3803    3.4971    0.1472 C.3       1 <0>         0.0509
     18 C15         2.7964    3.9577    0.3783 C.ar      1 <0>        -0.1775
     19 C16         3.2887    4.0576    1.6662 C.ar      1 <0>        -0.0620
     20 C17         4.5888    4.4752    1.8792 C.ar      1 <0>        -0.1512
     21 C18         5.3949    4.8038    0.8025 C.ar      1 <0>         0.1402
     22 C19         4.8990    4.7085   -0.4868 C.ar      1 <0>        -0.1510
     23 C20         3.6003    4.2855   -0.6975 C.ar      1 <0>        -0.0644
     24 F1          6.6645    5.2167    1.0096 F         1 <0>        -0.1222
     25 Cl1         0.9463   -7.0162    0.3654 Cl        1 <0>        -0.0604
     26 N2          1.2203   -8.2639   -2.3123 N.pl3     1 <0>        -0.8497
     27 H1          0.4628   -5.6206   -6.0218 H         1 <0>         0.0611
     28 H2          1.3463   -4.2941   -6.8142 H         1 <0>         0.1075
     29 H3          2.2357   -5.5295   -5.8919 H         1 <0>         0.0608
     30 H4          1.3122   -6.7541   -4.4724 H         1 <0>         0.1459
     31 H5          0.8511   -4.2553   -0.2320 H         1 <0>         0.1381
     32 H6          0.7703   -2.4345   -0.3904 H         1 <0>         0.4022
     33 H7          0.2008   -0.1639   -2.1388 H         1 <0>         0.1060
     34 H8          0.5174   -0.3659    0.8918 H         1 <0>         0.0939
     35 H9         -1.0203   -0.3818   -0.0060 H         1 <0>         0.1205
     36 H10        -0.5461    1.8871   -0.8725 H         1 <0>         0.1354
     37 H11        -0.5291    1.8775    0.9071 H         1 <0>         0.1349
     38 H12         3.0763    2.0369   -1.2084 H         1 <0>         0.1306
     39 H13         1.5326    1.9790   -2.0923 H         1 <0>         0.1344
     40 H14         2.7021   -0.2693   -0.3901 H         1 <0>         0.0891
     41 H15         2.6673   -0.2188   -2.1698 H         1 <0>         0.1176
     42 H16         0.9913    3.9595   -0.7600 H         1 <0>         0.1397
     43 H17         0.7611    3.7860    0.9965 H         1 <0>         0.1381
     44 H18         2.6585    3.8052    2.5061 H         1 <0>         0.1424
     45 H19         4.9745    4.5492    2.8852 H         1 <0>         0.1495
     46 H20         5.5270    4.9642   -1.3274 H         1 <0>         0.1498
     47 H21         3.2135    4.2107   -1.7031 H         1 <0>         0.1427
     48 H22         1.1784   -8.7362   -1.4661 H         1 <0>         0.4090
     49 H23         1.3105   -8.7601   -3.1408 H         1 <0>         0.4092
     50 N3          1.3729    2.0248    0.0240 N.4       1 <0>        -0.3951
     51 H24         1.8637    1.6203    0.8301 H         1 <0>         0.4262
@<TRIPOS>BOND
     1    1    2 1
     2    1   27 1
     3    1   28 1
     4    1   29 1
     5    2    3 1
     6    3    8 ar
     7    3    4 ar
     8    4    5 ar
     9    4   30 1
    10    5    6 ar
    11    5   26 1
    12    6    7 ar
    13    6   25 1
    14    7    8 ar
    15    7   31 1
    16    8    9 1
    17    9   10 2
    18    9   11 am
    19   11   12 1
    20   11   32 1
    21   12   16 1
    22   12   13 1
    23   12   33 1
    24   13   14 1
    25   13   34 1
    26   13   35 1
    27   14   36 1
    28   14   37 1
    29   14   50 1
    30   15   16 1
    31   15   38 1
    32   15   39 1
    33   15   50 1
    34   16   40 1
    35   16   41 1
    36   17   18 1
    37   17   42 1
    38   17   43 1
    39   17   50 1
    40   18   23 ar
    41   18   19 ar
    42   19   20 ar
    43   19   44 1
    44   20   21 ar
    45   20   45 1
    46   21   22 ar
    47   21   24 1
    48   22   23 ar
    49   22   46 1
    50   23   47 1
    51   26   48 1
    52   26   49 1
    53   50   51 1
@<TRIPOS>MOLECULE
ZINC00113426
   32    34     0     0     0
SMALL
USER_CHARGES

@<TRIPOS>ATOM
      1 C1         -0.0166    1.3751    0.0096 C.ar      1 <0>        -0.0950
      2 C2          1.1740    2.0780    0.0020 C.ar      1 <0>        -0.1119
      3 C3          2.3723    1.3951   -0.0101 C.ar      1 <0>        -0.1263
      4 C4          2.3933    0.0061   -0.0172 C.ar      1 <0>        -0.1079
      5 C5          1.2078   -0.6937   -0.0148 C.ar      1 <0>        -0.0486
      6 C6          0.0021   -0.0041    0.0020 C.ar      1 <0>        -0.1118
      7 C7          1.1549   -2.1988   -0.0383 C.3       1 <0>        -0.0940
      8 C8          2.5009   -2.7904    0.3753 C.3       1 <0>        -0.1183
      9 C9          3.5989   -2.1301   -0.4667 C.3       1 <0>        -0.1228
     10 C10         3.7368   -0.6751   -0.0234 C.3       1 <0>        -0.0242
     11 H1          4.1603   -0.6438    0.9805 H         1 <0>         0.1370
     12 C11         4.6566    0.0487   -0.9727 C.cat     1 <0>         0.5234
     13 N1          4.7460   -0.2654   -2.2438 N.pl3     1 <0>        -0.6270
     14 C12         5.7235    0.6210   -2.8957 C.3       1 <0>         0.0556
     15 C13         6.1977    1.5303   -1.7430 C.3       1 <0>         0.0565
     16 N2          5.4230    1.0430   -0.5904 N.pl3     1 <0>        -0.6351
     17 H2         -0.9580    1.9042    0.0259 H         1 <0>         0.1342
     18 H3          1.1658    3.1579    0.0052 H         1 <0>         0.1312
     19 H4          3.3020    1.9447   -0.0145 H         1 <0>         0.1120
     20 H5         -0.9284   -0.5523    0.0088 H         1 <0>         0.1341
     21 H6          0.3842   -2.5421    0.6519 H         1 <0>         0.0903
     22 H7          0.9093   -2.5341   -1.0459 H         1 <0>         0.0868
     23 H8          2.6797   -2.5923    1.4321 H         1 <0>         0.0787
     24 H9          2.4991   -3.8659    0.1981 H         1 <0>         0.0891
     25 H10         4.5434   -2.6519   -0.3126 H         1 <0>         0.0908
     26 H11         3.3258   -2.1683   -1.5213 H         1 <0>         0.0749
     27 H12         6.5563    0.0450   -3.2990 H         1 <0>         0.1283
     28 H13         5.2464    1.2100   -3.6790 H         1 <0>         0.1271
     29 H14         7.2671    1.4078   -1.5713 H         1 <0>         0.1282
     30 H15         5.9572    2.5728   -1.9513 H         1 <0>         0.1267
     31 H16         5.4723    1.3995    0.3104 H         1 <0>         0.4595
     32 H17         4.2469   -0.9710   -2.6842 H         1 <0>         0.4587
@<TRIPOS>BOND
     1    1    6 ar
     2    1    2 ar
     3    1   17 1
     4    2    3 ar
     5    2   18 1
     6    3    4 ar
     7    3   19 1
     8    4   10 1
     9    4    5 ar
    10    5    6 ar
    11    5    7 1
    12    6   20 1
    13    7    8 1
    14    7   21 1
    15    7   22 1
    16    8    9 1
    17    8   23 1
    18    8   24 1
    19    9   10 1
    20    9   25 1
    21    9   26 1
    22   10   11 1
    23   10   12 1
    24   12   16 1
    25   12   13 2
    26   13   14 1
    27   13   32 1
    28   14   15 1
    29   14   27 1
    30   14   28 1
    31   15   16 1
    32   15   29 1
    33   15   30 1
    34   16   31 1
@<TRIPOS>MOLECULE
ZINC00113428
   32    34     0     0     0
SMALL
USER_CHARGES

@<TRIPOS>ATOM
      1 C1         -0.0166    1.3751    0.0096 C.ar      1 <0>        -0.0952
      2 C2          1.1740    2.0780    0.0020 C.ar      1 <0>        -0.1116
      3 C3          2.3723    1.3951   -0.0161 C.ar      1 <0>        -0.1276
      4 C4          2.3932    0.0062   -0.0252 C.ar      1 <0>        -0.1073
      5 C5          1.2079   -0.6937   -0.0125 C.ar      1 <0>        -0.0485
      6 C6          0.0021   -0.0041    0.0020 C.ar      1 <0>        -0.1115
      7 C7          1.1552   -2.1990   -0.0052 C.3       1 <0>        -0.0940
      8 C8          2.4928   -2.7856   -0.4516 C.3       1 <0>        -0.1180
      9 C9          3.6072   -2.1349    0.3764 C.3       1 <0>        -0.1245
     10 C10         3.7365   -0.6749   -0.0530 C.3       1 <0>        -0.0243
     11 H1          4.1404   -0.6321   -1.0645 H         1 <0>         0.1384
     12 C11         4.6747    0.0381    0.8864 C.cat     1 <0>         0.5237
     13 N1          4.8685   -0.3570    2.1228 N.pl3     1 <0>        -0.6274
     14 C12         5.8352    0.5416    2.7741 C.3       1 <0>         0.0556
     15 C13         6.1765    1.5563    1.6631 C.3       1 <0>         0.0564
     16 N2          5.3622    1.0964    0.5266 N.pl3     1 <0>        -0.6352
     17 H2         -0.9580    1.9042    0.0259 H         1 <0>         0.1343
     18 H3          1.1658    3.1579    0.0099 H         1 <0>         0.1314
     19 H4          3.3019    1.9448   -0.0236 H         1 <0>         0.1117
     20 H5         -0.9284   -0.5523    0.0071 H         1 <0>         0.1342
     21 H6          0.9293   -2.5458    1.0032 H         1 <0>         0.0868
     22 H7          0.3711   -2.5345   -0.6840 H         1 <0>         0.0904
     23 H8          2.4944   -3.8631   -0.2867 H         1 <0>         0.0891
     24 H9          2.6510   -2.5755   -1.5094 H         1 <0>         0.0788
     25 H10         3.3546   -2.1851    1.4355 H         1 <0>         0.0752
     26 H11         4.5484   -2.6548    0.1979 H         1 <0>         0.0911
     27 H12         5.3794    1.0439    3.6273 H         1 <0>         0.1271
     28 H13         6.7255   -0.0078    3.0802 H         1 <0>         0.1283
     29 H14         5.8909    2.5648    1.9621 H         1 <0>         0.1271
     30 H15         7.2370    1.5131    1.4150 H         1 <0>         0.1278
     31 H16         5.3364    1.5114   -0.3498 H         1 <0>         0.4593
     32 H17         4.4414   -1.1206    2.5416 H         1 <0>         0.4587
@<TRIPOS>BOND
     1    1    6 ar
     2    1    2 ar
     3    1   17 1
     4    2    3 ar
     5    2   18 1
     6    3    4 ar
     7    3   19 1
     8    4   10 1
     9    4    5 ar
    10    5    6 ar
    11    5    7 1
    12    6   20 1
    13    7    8 1
    14    7   21 1
    15    7   22 1
    16    8    9 1
    17    8   23 1
    18    8   24 1
    19    9   10 1
    20    9   25 1
    21    9   26 1
    22   10   11 1
    23   10   12 1
    24   12   16 1
    25   12   13 2
    26   13   14 1
    27   13   32 1
    28   14   15 1
    29   14   27 1
    30   14   28 1
    31   15   16 1
    32   15   29 1
    33   15   30 1
    34   16   31 1
@<TRIPOS>MOLECULE
ZINC01745892
   24    25     0     0     0
SMALL
USER_CHARGES
1-naphthylmethanamine
@<TRIPOS>ATOM
      1 C1          1.1545    1.7758    0.0006 C.ar      1 <0>        -0.1173
      2 C2          1.1555    3.1696    0.0071 C.ar      1 <0>        -0.0762
      3 C3         -0.0105    3.8711    0.0211 C.ar      1 <0>        -0.1560
      4 C4         -1.2360    3.1831    0.0296 C.ar      1 <0>        -0.0298
      5 C5         -1.2371    1.7657    0.0175 C.ar      1 <0>        -0.0609
      6 C6         -0.0126    1.0758    0.0080 C.ar      1 <0>        -0.0829
      7 C7         -2.4621    1.0777    0.0322 C.ar      1 <0>        -0.0548
      8 C8         -3.6285    1.7794    0.0471 C.ar      1 <0>        -0.1348
      9 C9         -3.6274    3.1727    0.0528 C.ar      1 <0>        -0.0535
     10 C10        -2.4600    3.8727    0.0446 C.ar      1 <0>        -0.1742
     11 C11        -2.4803    5.3796    0.0520 C.3       1 <0>         0.0520
     12 H1          2.0940    1.2432   -0.0109 H         1 <0>         0.1350
     13 H2          2.0958    3.7008    0.0006 H         1 <0>         0.1330
     14 H3          0.0058    4.9510    0.0253 H         1 <0>         0.1204
     15 H4          0.0021   -0.0041    0.0020 H         1 <0>         0.1384
     16 H5         -2.4783   -0.0022    0.0271 H         1 <0>         0.1406
     17 H6         -4.5687    1.2481    0.0542 H         1 <0>         0.1382
     18 H7         -4.5669    3.7052    0.0644 H         1 <0>         0.1347
     19 H8         -3.4474    5.7281    0.4144 H         1 <0>         0.1437
     20 H9         -1.6918    5.7504    0.7069 H         1 <0>         0.1379
     21 H10        -2.9404    5.4974   -1.9512 H         1 <0>         0.4377
     22 H11        -2.2687    6.8877   -1.3333 H         1 <0>         0.4395
     23 N1         -2.2364    5.8697   -1.3160 N.4       1 <0>        -0.6470
     24 H12        -1.3080    5.5587   -1.6254 H         1 <0>         0.4365
@<TRIPOS>BOND
     1    1    6 ar
     2    1    2 ar
     3    1   12 1
     4    2    3 ar
     5    2   13 1
     6    3    4 ar
     7    3   14 1
     8    4   10 ar
     9    4    5 ar
    10    5    6 ar
    11    5    7 ar
    12    6   15 1
    13    7    8 ar
    14    7   16 1
    15    8    9 ar
    16    8   17 1
    17    9   10 ar
    18    9   18 1
    19   10   11 1
    20   11   19 1
    21   11   20 1
    22   11   23 1
    23   21   23 1
    24   22   23 1
    25   23   24 1
@<TRIPOS>MOLECULE
ZINC13766764
   25    26     0     0     0
SMALL
USER_CHARGES
5-(aminomethyl)naphthalen-2-ol
@<TRIPOS>ATOM
      1 C1          3.5824    1.8760   -0.0216 C.ar      1 <0>        -0.1287
      2 C2          2.4350    1.1435   -0.0146 C.ar      1 <0>        -0.0577
      3 C3          1.1918    1.7986    0.0003 C.ar      1 <0>        -0.0429
      4 C4         -0.0126    1.0758    0.0080 C.ar      1 <0>        -0.1177
      5 C5         -1.2022    1.7464    0.0172 C.ar      1 <0>         0.1160
      6 C6         -1.2378    3.1445    0.0308 C.ar      1 <0>        -0.1031
      7 C7         -0.0897    3.8731    0.0238 C.ar      1 <0>        -0.1357
      8 C8          1.1531    3.2158    0.0084 C.ar      1 <0>        -0.0404
      9 C9          2.3584    3.9374    0.0012 C.ar      1 <0>        -0.1689
     10 C10         3.5442    3.2688   -0.0133 C.ar      1 <0>        -0.0558
     11 C11         2.3389    5.4443    0.0100 C.3       1 <0>         0.0511
     12 O1         -2.3667    1.0461    0.0189 O.3       1 <0>        -0.4942
     13 H1          4.5365    1.3701   -0.0335 H         1 <0>         0.1395
     14 H2          2.4799    0.0644   -0.0205 H         1 <0>         0.1417
     15 H3          0.0021   -0.0041    0.0020 H         1 <0>         0.1447
     16 H4         -2.1907    3.6527    0.0427 H         1 <0>         0.1399
     17 H5         -0.1323    4.9522    0.0296 H         1 <0>         0.1257
     18 H6          4.4691    3.8262   -0.0187 H         1 <0>         0.1358
     19 H7          3.2964    5.8222   -0.3483 H         1 <0>         0.1448
     20 H8          1.5408    5.8011   -0.6411 H         1 <0>         0.1385
     21 H9          2.7955    5.5527    2.0145 H         1 <0>         0.4380
     22 H10         2.0873    6.9313    1.4114 H         1 <0>         0.4400
     23 H11        -2.6996    0.8385    0.9027 H         1 <0>         0.4005
     24 N1          2.0819    5.9131    1.3832 N.4       1 <0>        -0.6471
     25 H12         1.1621    5.5743    1.6889 H         1 <0>         0.4362
@<TRIPOS>BOND
     1    1   10 ar
     2    1    2 ar
     3    1   13 1
     4    2    3 ar
     5    2   14 1
     6    3    8 ar
     7    3    4 ar
     8    4    5 ar
     9    4   15 1
    10    5    6 ar
    11    5   12 1
    12    6    7 ar
    13    6   16 1
    14    7    8 ar
    15    7   17 1
    16    8    9 ar
    17    9   10 ar
    18    9   11 1
    19   10   18 1
    20   11   19 1
    21   11   20 1
    22   11   24 1
    23   12   23 1
    24   21   24 1
    25   22   24 1
    26   24   25 1
@<TRIPOS>MOLECULE
ZINC13766762
   28    29     0     0     0
SMALL
USER_CHARGES
(6-methoxy-1-naphthyl)methanamine
@<TRIPOS>ATOM
      1 C1         -0.0127    1.0858    0.0080 C.3       1 <0>         0.0222
      2 O1         -0.6816    1.5467    1.1837 O.3       1 <0>        -0.3101
      3 C2         -1.9747    1.1631    1.3482 C.ar      1 <0>         0.1344
      4 C3         -2.5840    0.3577    0.3807 C.ar      1 <0>        -0.1556
      5 C4         -3.8746   -0.0472    0.5200 C.ar      1 <0>        -0.1102
      6 C5         -4.6144    0.3566    1.6453 C.ar      1 <0>        -0.0642
      7 C6         -4.0008    1.1778    2.6246 C.ar      1 <0>        -0.0180
      8 C7         -2.6640    1.5737    2.4534 C.ar      1 <0>        -0.1375
      9 C8         -4.7417    1.5801    3.7490 C.ar      1 <0>        -0.0642
     10 C9         -6.0351    1.1772    3.8827 C.ar      1 <0>        -0.1231
     11 C10        -6.6380    0.3702    2.9202 C.ar      1 <0>        -0.0664
     12 C11        -5.9514   -0.0389    1.8182 C.ar      1 <0>        -0.1608
     13 C12        -6.6218   -0.9120    0.7890 C.3       1 <0>         0.0506
     14 H1          0.0021   -0.0041    0.0020 H         1 <0>         0.0590
     15 H2          1.0099    1.4631    0.0003 H         1 <0>         0.1100
     16 H3         -0.5399    1.4469   -0.8751 H         1 <0>         0.0598
     17 H4         -2.0200    0.0492   -0.4872 H         1 <0>         0.1397
     18 H5         -4.3310   -0.6725   -0.2331 H         1 <0>         0.1253
     19 H6         -2.1841    2.1994    3.1913 H         1 <0>         0.1455
     20 H7         -4.2872    2.2054    4.5032 H         1 <0>         0.1415
     21 H8         -6.6022    1.4875    4.7479 H         1 <0>         0.1386
     22 H9         -7.6658    0.0648    3.0502 H         1 <0>         0.1343
     23 H10        -7.7038   -0.8253    0.8884 H         1 <0>         0.1415
     24 H11        -6.3219   -0.5929   -0.2091 H         1 <0>         0.1406
     25 H12        -6.6582   -2.9160    0.3189 H         1 <0>         0.4395
     26 H13        -5.2172   -2.4057    0.9741 H         1 <0>         0.4345
     27 N1         -6.2307   -2.3137    1.0205 N.4       1 <0>        -0.6471
     28 H14        -6.5512   -2.6042    1.9516 H         1 <0>         0.4404
@<TRIPOS>BOND
     1    1    2 1
     2    1   14 1
     3    1   15 1
     4    1   16 1
     5    2    3 1
     6    3    8 ar
     7    3    4 ar
     8    4    5 ar
     9    4   17 1
    10    5    6 ar
    11    5   18 1
    12    6   12 ar
    13    6    7 ar
    14    7    8 ar
    15    7    9 ar
    16    8   19 1
    17    9   10 ar
    18    9   20 1
    19   10   11 ar
    20   10   21 1
    21   11   12 ar
    22   11   22 1
    23   12   13 1
    24   13   23 1
    25   13   24 1
    26   13   27 1
    27   25   27 1
    28   26   27 1
    29   27   28 1
@<TRIPOS>MOLECULE
ZINC13781534
   36    38     0     0     0
SMALL
USER_CHARGES
(4aS,10aS)-6-methoxy-1,2,3,4,4a,5,10,10a-octahydrobenzo[g]quinoline
@<TRIPOS>ATOM
      1 C1          0.0021   -0.0041    0.0020 C.3       1 <0>         0.0237
      2 O1         -0.0173    1.4248    0.0099 O.3       1 <0>        -0.3146
      3 C2          1.1850    2.0582    0.0018 C.ar      1 <0>         0.1361
      4 C3          2.3537    1.3155   -0.0076 C.ar      1 <0>        -0.1986
      5 C4          3.5750    1.9608   -0.0213 C.ar      1 <0>        -0.0701
      6 C5          3.6226    3.3400   -0.0096 C.ar      1 <0>        -0.1500
      7 C6          2.4529    4.0891    0.0097 C.ar      1 <0>        -0.0551
      8 C7          1.2339    3.4510    0.0088 C.ar      1 <0>        -0.1154
      9 C8         -0.0695    4.2007    0.0021 C.3       1 <0>        -0.0629
     10 C9          0.1255    5.6548    0.4403 C.3       1 <0>        -0.0958
     11 H1          0.3627    5.7056    1.5030 H         1 <0>         0.1007
     12 C10        -1.1759    6.4130    0.1570 C.3       1 <0>        -0.1362
     13 C11        -0.9830    7.9031    0.4404 C.3       1 <0>        -0.1461
     14 C12         0.1594    8.4261   -0.4359 C.3       1 <0>        -0.0017
     15 C13         1.2691    6.2599   -0.3816 C.3       1 <0>         0.0385
     16 H2          1.0973    6.1023   -1.4463 H         1 <0>         0.1448
     17 C14         2.5780    5.5873    0.0420 C.3       1 <0>        -0.0966
     18 H3          0.5293   -0.3651    0.8851 H         1 <0>         0.0602
     19 H4         -1.0205   -0.3814    0.0098 H         1 <0>         0.1071
     20 H5          0.5123   -0.3556   -0.8948 H         1 <0>         0.0603
     21 H6          2.3105    0.2364   -0.0088 H         1 <0>         0.1359
     22 H7          4.4901    1.3876   -0.0363 H         1 <0>         0.1334
     23 H8          4.5789    3.8419   -0.0158 H         1 <0>         0.1276
     24 H9         -0.4860    4.1839   -1.0051 H         1 <0>         0.0864
     25 H10        -0.7659    3.7125    0.6838 H         1 <0>         0.0973
     26 H11        -1.9685    6.0227    0.7954 H         1 <0>         0.0960
     27 H12        -1.4543    6.2764   -0.8880 H         1 <0>         0.0834
     28 H13        -0.7323    8.0458    1.4915 H         1 <0>         0.0886
     29 H14        -1.9007    8.4418    0.2047 H         1 <0>         0.1136
     30 H15         0.3040    9.4904   -0.2502 H         1 <0>         0.1325
     31 H16        -0.0827    8.2684   -1.4869 H         1 <0>         0.1304
     32 H17         2.8311    5.9032    1.0541 H         1 <0>         0.0981
     33 H18         3.3737    5.8943   -0.6367 H         1 <0>         0.1015
     34 N1          1.4014    7.7055   -0.0931 N.4       1 <0>        -0.5173
     35 H19         1.5988    7.8322    0.9065 H         1 <0>         0.4302
     36 H20         2.1765    8.0893   -0.6464 H         1 <0>         0.4341
@<TRIPOS>BOND
     1    1    2 1
     2    1   18 1
     3    1   19 1
     4    1   20 1
     5    2    3 1
     6    3    8 ar
     7    3    4 ar
     8    4    5 ar
     9    4   21 1
    10    5    6 ar
    11    5   22 1
    12    6    7 ar
    13    6   23 1
    14    7   17 1
    15    7    8 ar
    16    8    9 1
    17    9   10 1
    18    9   24 1
    19    9   25 1
    20   10   11 1
    21   10   15 1
    22   10   12 1
    23   12   13 1
    24   12   26 1
    25   12   27 1
    26   13   14 1
    27   13   28 1
    28   13   29 1
    29   14   30 1
    30   14   31 1
    31   14   34 1
    32   15   16 1
    33   15   17 1
    34   15   34 1
    35   17   32 1
    36   17   33 1
    37   34   35 1
    38   34   36 1
@<TRIPOS>MOLECULE
ZINC27416688
   36    38     0     0     0
SMALL
USER_CHARGES
(4aR,10aS)-6-methoxy-1,2,3,4,4a,5,10,10a-octahydrobenzo[g]quinoline
@<TRIPOS>ATOM
      1 C1         -3.4240   -0.6921   -1.1138 C.3       1 <0>         0.0194
      2 O1         -2.2627    0.0483   -0.7327 O.3       1 <0>        -0.3143
      3 C2         -1.1628   -0.6676   -0.3798 C.ar      1 <0>         0.1403
      4 C3         -1.2069   -2.0514   -0.4013 C.ar      1 <0>        -0.2000
      5 C4         -0.0887   -2.7781   -0.0411 C.ar      1 <0>        -0.0651
      6 C5          1.0651   -2.1206    0.3344 C.ar      1 <0>        -0.1492
      7 C6          1.1150   -0.7326    0.3538 C.ar      1 <0>        -0.0688
      8 C7          0.0021   -0.0041    0.0020 C.ar      1 <0>        -0.1346
      9 C8         -0.0183    1.5000    0.0103 C.3       1 <0>        -0.0878
     10 C9          1.4018    2.0702   -0.0002 C.3       1 <0>        -0.0973
     11 H1          1.8711    1.9090   -0.9819 H         1 <0>         0.1226
     12 C10         1.3193    3.5676    0.3408 C.3       1 <0>        -0.1337
     13 C11         0.6180    3.7197    1.6939 C.3       1 <0>        -0.1550
     14 C12         1.3867    2.9447    2.7650 C.3       1 <0>         0.0006
     15 N1          1.4857    1.5282    2.3834 N.4       1 <0>        -0.5383
     16 C13         2.2039    1.3837    1.1138 C.3       1 <0>         0.0403
     17 H2          3.1857    1.8575    1.2609 H         1 <0>         0.1361
     18 C14         2.4097   -0.0816    0.7612 C.3       1 <0>        -0.0950
     19 H3         -4.2345    0.0050   -1.3729 H         1 <0>         0.1096
     20 H4         -3.7429   -1.3304   -0.2766 H         1 <0>         0.0616
     21 H5         -3.1884   -1.3207   -1.9852 H         1 <0>         0.0624
     22 H6         -2.1119   -2.5605   -0.6980 H         1 <0>         0.1364
     23 H7         -0.1175   -3.8576   -0.0530 H         1 <0>         0.1341
     24 H8          1.9379   -2.6909    0.6163 H         1 <0>         0.1300
     25 H9         -0.5503    1.8644   -0.8809 H         1 <0>         0.1049
     26 H10        -0.5332    1.8548    0.9153 H         1 <0>         0.0774
     27 H11         2.3344    3.9878    0.3947 H         1 <0>         0.0848
     28 H12         0.7470    4.0904   -0.4396 H         1 <0>         0.0957
     29 H13         0.5815    4.7838    1.9704 H         1 <0>         0.1123
     30 H14        -0.4059    3.3240    1.6228 H         1 <0>         0.0920
     31 H15         2.3983    3.3647    2.8664 H         1 <0>         0.1277
     32 H16         0.8581    3.0254    3.7263 H         1 <0>         0.1316
     33 H17         2.0284    0.9752    3.1642 H         1 <0>         0.4495
     34 H18         2.8194   -0.5992    1.6411 H         1 <0>         0.1004
     35 H19         3.1288   -0.1443   -0.0689 H         1 <0>         0.1243
     36 H20         0.4757    1.1073    2.2708 H         1 <0>         0.4450
@<TRIPOS>BOND
     1    1    2 1
     2    1   19 1
     3    1   20 1
     4    1   21 1
     5    2    3 1
     6    3    8 ar
     7    3    4 ar
     8    4    5 ar
     9    4   22 1
    10    5    6 ar
    11    5   23 1
    12    6    7 ar
    13    6   24 1
    14    7   18 1
    15    7    8 ar
    16    8    9 1
    17    9   10 1
    18    9   25 1
    19    9   26 1
    20   10   11 1
    21   10   16 1
    22   10   12 1
    23   12   13 1
    24   12   27 1
    25   12   28 1
    26   13   14 1
    27   13   29 1
    28   13   30 1
    29   14   15 1
    30   14   31 1
    31   14   32 1
    32   15   16 1
    33   15   33 1
    34   15   36 1
    35   16   17 1
    36   16   18 1
    37   18   34 1
    38   18   35 1
@<TRIPOS>MOLECULE
ZINC27416691
   36    38     0     0     0
SMALL
USER_CHARGES
(4aR,10aR)-6-methoxy-1,2,3,4,4a,5,10,10a-octahydrobenzo[g]quinoline
@<TRIPOS>ATOM
      1 C1          6.5039    5.2643    0.8104 C.3       1 <0>         0.0202
      2 O1          5.2206    4.7039    0.5253 O.3       1 <0>        -0.3143
      3 C2          4.9359    3.4983    1.0842 C.ar      1 <0>         0.1360
      4 C3          5.8747    2.8737    1.8880 C.ar      1 <0>        -0.1990
      5 C4          5.5834    1.6484    2.4551 C.ar      1 <0>        -0.0707
      6 C5          4.3590    1.0568    2.2203 C.ar      1 <0>        -0.1503
      7 C6          3.4127    1.6811    1.4171 C.ar      1 <0>        -0.0544
      8 C7          3.7009    2.8985    0.8447 C.ar      1 <0>        -0.1135
      9 C8          2.7315    3.6180   -0.0517 C.3       1 <0>        -0.0636
     10 C9          1.3093    3.0784    0.1098 C.3       1 <0>        -0.0974
     11 H1          0.8912    3.3646    1.0861 H         1 <0>         0.0988
     12 C10         0.4406    3.6579   -1.0118 C.3       1 <0>        -0.1371
     13 C11        -0.9542    3.0331   -0.9659 C.3       1 <0>        -0.1498
     14 C12        -0.8208    1.5254   -1.0985 C.3       1 <0>         0.0012
     15 N1         -0.0116    1.0048    0.0076 N.4       1 <0>        -0.5365
     16 C13         1.3534    1.5502   -0.0025 C.3       1 <0>         0.0383
     17 H2          1.8262    1.2544   -0.9506 H         1 <0>         0.1380
     18 C14         2.0961    0.9843    1.2113 C.3       1 <0>        -0.0917
     19 H3          6.6025    6.2334    0.2995 H         1 <0>         0.1086
     20 H4          7.2894    4.5810    0.4554 H         1 <0>         0.0611
     21 H5          6.6075    5.4098    1.8958 H         1 <0>         0.0611
     22 H6          6.8302    3.3428    2.0710 H         1 <0>         0.1357
     23 H7          6.3120    1.1546    3.0810 H         1 <0>         0.1331
     24 H8          4.1339    0.0990    2.6657 H         1 <0>         0.1275
     25 H9          2.7271    4.6893    0.1979 H         1 <0>         0.0967
     26 H10         3.0357    3.4872   -1.1007 H         1 <0>         0.0858
     27 H11         0.3545    4.7470   -0.8834 H         1 <0>         0.0955
     28 H12         0.9042    3.4390   -1.9850 H         1 <0>         0.0823
     29 H13        -1.4360    3.2816   -0.0088 H         1 <0>         0.0883
     30 H14        -1.5602    3.4277   -1.7948 H         1 <0>         0.1129
     31 H15        -1.8194    1.0650   -1.0694 H         1 <0>         0.1330
     32 H16        -0.3330    1.2831   -2.0542 H         1 <0>         0.1264
     33 H17        -0.4817    1.2750    0.9647 H         1 <0>         0.4452
     34 H18         2.2712   -0.0891    1.0462 H         1 <0>         0.1020
     35 H19         1.4660    1.1202    2.1027 H         1 <0>         0.0989
     36 H20         0.0561   -0.0903   -0.0713 H         1 <0>         0.4518
@<TRIPOS>BOND
     1    1    2 1
     2    1   19 1
     3    1   20 1
     4    1   21 1
     5    2    3 1
     6    3    8 ar
     7    3    4 ar
     8    4    5 ar
     9    4   22 1
    10    5    6 ar
    11    5   23 1
    12    6    7 ar
    13    6   24 1
    14    7   18 1
    15    7    8 ar
    16    8    9 1
    17    9   10 1
    18    9   25 1
    19    9   26 1
    20   10   11 1
    21   10   16 1
    22   10   12 1
    23   12   13 1
    24   12   27 1
    25   12   28 1
    26   13   14 1
    27   13   29 1
    28   13   30 1
    29   14   15 1
    30   14   31 1
    31   14   32 1
    32   15   16 1
    33   15   33 1
    34   15   36 1
    35   16   17 1
    36   16   18 1
    37   18   34 1
    38   18   35 1
@<TRIPOS>MOLECULE
ZINC27416696
   36    38     0     0     0
SMALL
USER_CHARGES
(4aS,10aR)-6-methoxy-1,2,3,4,4a,5,10,10a-octahydrobenzo[g]quinoline
@<TRIPOS>ATOM
      1 C1          1.9281    1.1515   -3.7200 C.3       1 <0>         0.0194
      2 O1          1.2646    1.1340   -2.4545 O.3       1 <0>        -0.3143
      3 C2         -0.0226    1.5689   -2.4267 C.ar      1 <0>         0.1403
      4 C3         -0.6276    2.0018   -3.5946 C.ar      1 <0>        -0.1999
      5 C4         -1.9364    2.4427   -3.5652 C.ar      1 <0>        -0.0651
      6 C5         -2.6305    2.4525   -2.3725 C.ar      1 <0>        -0.1492
      7 C6         -2.0259    2.0241   -1.1977 C.ar      1 <0>        -0.0691
      8 C7         -0.7250    1.5766   -1.2227 C.ar      1 <0>        -0.1344
      9 C8         -0.0127    1.0858    0.0080 C.3       1 <0>        -0.0876
     10 C9         -0.7132    1.5715    1.2789 C.3       1 <0>        -0.0977
     11 H1         -0.5630    2.6535    1.4081 H         1 <0>         0.1224
     12 C10        -0.1456    0.7799    2.4702 C.3       1 <0>        -0.1336
     13 C11        -0.3520   -0.7139    2.2026 C.3       1 <0>        -0.1550
     14 C12        -1.8399   -1.0020    1.9974 C.3       1 <0>         0.0005
     15 N1         -2.3566   -0.1947    0.8827 N.4       1 <0>        -0.5383
     16 C13        -2.2052    1.2356    1.1659 C.3       1 <0>         0.0405
     17 H2         -2.7368    1.4198    2.1111 H         1 <0>         0.1362
     18 C14        -2.8342    2.0834    0.0708 C.3       1 <0>        -0.0949
     19 H3          2.9555    0.7770   -3.6005 H         1 <0>         0.1096
     20 H4          1.9557    2.1814   -4.1053 H         1 <0>         0.0624
     21 H5          1.3838    0.5095   -4.4282 H         1 <0>         0.0616
     22 H6         -0.0786    1.9945   -4.5246 H         1 <0>         0.1364
     23 H7         -2.4152    2.7783   -4.4732 H         1 <0>         0.1341
     24 H8         -3.6538    2.7972   -2.3522 H         1 <0>         0.1300
     25 H9         -0.0009   -0.0141    0.0107 H         1 <0>         0.0774
     26 H10         1.0204    1.4635    0.0089 H         1 <0>         0.1050
     27 H11         0.9273    0.9977    2.5773 H         1 <0>         0.0957
     28 H12        -0.6729    1.0732    3.3900 H         1 <0>         0.0848
     29 H13         0.2031   -1.0045    1.2985 H         1 <0>         0.0920
     30 H14         0.0161   -1.2945    3.0613 H         1 <0>         0.1122
     31 H15        -1.9785   -2.0688    1.7676 H         1 <0>         0.1316
     32 H16        -2.3922   -0.7497    2.9147 H         1 <0>         0.1277
     33 H17        -1.7994   -0.4367   -0.0344 H         1 <0>         0.4450
     34 H18        -2.8895    3.1244    0.4220 H         1 <0>         0.1244
     35 H19        -3.8496    1.7075   -0.1235 H         1 <0>         0.1004
     36 H20        -3.4235   -0.4167    0.7329 H         1 <0>         0.4495
@<TRIPOS>BOND
     1    1    2 1
     2    1   19 1
     3    1   20 1
     4    1   21 1
     5    2    3 1
     6    3    8 ar
     7    3    4 ar
     8    4    5 ar
     9    4   22 1
    10    5    6 ar
    11    5   23 1
    12    6    7 ar
    13    6   24 1
    14    7   18 1
    15    7    8 ar
    16    8    9 1
    17    9   10 1
    18    9   25 1
    19    9   26 1
    20   10   11 1
    21   10   16 1
    22   10   12 1
    23   12   13 1
    24   12   27 1
    25   12   28 1
    26   13   14 1
    27   13   29 1
    28   13   30 1
    29   14   15 1
    30   14   31 1
    31   14   32 1
    32   15   16 1
    33   15   33 1
    34   15   36 1
    35   16   17 1
    36   16   18 1
    37   18   34 1
    38   18   35 1
@<TRIPOS>MOLECULE
ZINC00896484
   23    24     0     0     0
SMALL
USER_CHARGES

@<TRIPOS>ATOM
      1 C1         -0.0167    1.3793    0.0096 C.ar      1 <0>        -0.1251
      2 C2          1.1680    2.0938    0.0022 C.ar      1 <0>        -0.0904
      3 C3          2.3785    1.4297   -0.0129 C.ar      1 <0>        -0.0648
      4 C4          2.4050    0.0334   -0.0206 C.ar      1 <0>         0.1769
      5 C5          1.2052   -0.6814   -0.0130 C.ar      1 <0>        -0.0649
      6 C6          0.0021   -0.0041    0.0020 C.ar      1 <0>        -0.0904
      7 Cl1         1.2264   -2.4172   -0.0231 Cl        1 <0>        -0.0561
      8 N1          3.6030   -0.6324   -0.0361 N.2       1 <0>        -0.6265
      9 C7          4.1879   -0.9573    1.0933 C.2       1 <0>         0.6631
     10 N2          3.6659   -0.6737    2.3229 N.pl3     1 <0>        -0.7535
     11 C8          4.5775   -1.1780    3.3591 C.3       1 <0>         0.0928
     12 C9          5.7389   -1.8145    2.5745 C.3       1 <0>         0.1005
     13 N3          5.3800   -1.6198    1.1630 N.pl3     1 <0>        -0.7140
     14 Cl2         3.8638    2.3282   -0.0229 Cl        1 <0>        -0.0561
     15 H1         -0.9606    1.9039    0.0260 H         1 <0>         0.1385
     16 H2          1.1460    3.1736    0.0078 H         1 <0>         0.1363
     17 H3         -0.9265   -0.5555    0.0082 H         1 <0>         0.1363
     18 H4          4.9410   -0.3577    3.9780 H         1 <0>         0.0821
     19 H5          4.0780   -1.9269    3.9736 H         1 <0>         0.0822
     20 H6          6.6764   -1.3088    2.8056 H         1 <0>         0.0847
     21 H7          5.8134   -2.8781    2.8012 H         1 <0>         0.0844
     22 H8          5.9064   -1.9129    0.4028 H         1 <0>         0.4371
     23 H9          2.8280   -0.2130    2.4861 H         1 <0>         0.4271
@<TRIPOS>BOND
     1    1    6 ar
     2    1    2 ar
     3    1   15 1
     4    2    3 ar
     5    2   16 1
     6    3    4 ar
     7    3   14 1
     8    4    5 ar
     9    4    8 1
    10    5    6 ar
    11    5    7 1
    12    6   17 1
    13    8    9 2
    14    9   13 1
    15    9   10 1
    16   10   11 1
    17   10   23 1
    18   11   12 1
    19   11   18 1
    20   11   19 1
    21   12   13 1
    22   12   20 1
    23   12   21 1
    24   13   22 1
@<TRIPOS>MOLECULE
ZINC13781523
   32    34     0     0     0
SMALL
USER_CHARGES
(4aR,10bR)-1,2,3,4,4a,5,6,10b-octahydrobenzo[f]quinoline
@<TRIPOS>ATOM
      1 C1          0.5574   -4.7645    1.5598 C.ar      1 <0>        -0.1037
      2 C2          1.4892   -4.0386    2.2785 C.ar      1 <0>        -0.1121
      3 C3          1.5162   -2.6635    2.1700 C.ar      1 <0>        -0.1097
      4 C4          0.6154   -2.0030    1.3464 C.ar      1 <0>        -0.0891
      5 C5         -0.3099   -2.7259    0.6234 C.ar      1 <0>        -0.0831
      6 C6         -0.3355   -4.1104    0.7374 C.ar      1 <0>        -0.1144
      7 C7         -1.3103   -2.0819   -0.2999 C.3       1 <0>        -0.0780
      8 C8         -1.4137   -0.5787   -0.0439 C.3       1 <0>        -0.1353
      9 C9          0.0021   -0.0041    0.0020 C.3       1 <0>         0.0291
     10 H1          0.5635   -0.3541   -0.8642 H         1 <0>         0.1403
     11 C10         0.6794   -0.5043    1.2774 C.3       1 <0>        -0.0528
     12 H2          0.1585   -0.0885    2.1399 H         1 <0>         0.0988
     13 C11         2.1235   -0.0052    1.3017 C.3       1 <0>        -0.1331
     14 C12         2.1086    1.5272    1.2451 C.3       1 <0>        -0.1471
     15 C13         1.3536    1.9932   -0.0002 C.3       1 <0>        -0.0028
     16 H3          0.5287   -5.8409    1.6427 H         1 <0>         0.1307
     17 H4          2.1927   -4.5457    2.9221 H         1 <0>         0.1306
     18 H5          2.2446   -2.0963    2.7305 H         1 <0>         0.1263
     19 H6         -1.0621   -4.6798    0.1767 H         1 <0>         0.1281
     20 H7         -2.2872   -2.5389   -0.1423 H         1 <0>         0.0971
     21 H8         -1.0019   -2.2479   -1.3321 H         1 <0>         0.0884
     22 H9         -1.9136   -0.4013    0.9083 H         1 <0>         0.0921
     23 H10        -1.9764   -0.1063   -0.8490 H         1 <0>         0.0940
     24 H11         2.6090   -0.3332    2.2208 H         1 <0>         0.0982
     25 H12         2.6615   -0.3984    0.4391 H         1 <0>         0.0852
     26 H13         1.6153    1.9178    2.1352 H         1 <0>         0.0890
     27 H14         3.1329    1.8983    1.2077 H         1 <0>         0.1147
     28 H15         1.8720    1.6384   -0.8909 H         1 <0>         0.1293
     29 H16         1.3185    3.0825   -0.0149 H         1 <0>         0.1342
     30 N1         -0.0233    1.4650    0.0102 N.4       1 <0>        -0.5108
     31 H17        -0.5066    1.7920    0.8550 H         1 <0>         0.4304
     32 H18        -0.5227    1.8011   -0.8216 H         1 <0>         0.4354
@<TRIPOS>BOND
     1    1    6 ar
     2    1    2 ar
     3    1   16 1
     4    2    3 ar
     5    2   17 1
     6    3    4 ar
     7    3   18 1
     8    4   11 1
     9    4    5 ar
    10    5    6 ar
    11    5    7 1
    12    6   19 1
    13    7    8 1
    14    7   20 1
    15    7   21 1
    16    8    9 1
    17    8   22 1
    18    8   23 1
    19    9   10 1
    20    9   11 1
    21    9   30 1
    22   11   12 1
    23   11   13 1
    24   13   14 1
    25   13   24 1
    26   13   25 1
    27   14   15 1
    28   14   26 1
    29   14   27 1
    30   15   28 1
    31   15   29 1
    32   15   30 1
    33   30   31 1
    34   30   32 1
@<TRIPOS>MOLECULE
ZINC13781526
   36    38     0     0     0
SMALL
USER_CHARGES
(4aR,10bR)-7-methoxy-1,2,3,4,4a,5,6,10b-octahydrobenzo[f]quinoline
@<TRIPOS>ATOM
      1 C1         -2.3739    0.0730    0.0316 C.3       1 <0>         0.0237
      2 O1         -1.1686   -0.6943    0.0127 O.3       1 <0>        -0.3145
      3 C2          0.0021   -0.0041    0.0020 C.ar      1 <0>         0.1359
      4 C3         -0.0167    1.3802    0.0096 C.ar      1 <0>        -0.1982
      5 C4          1.1728    2.0824    0.0020 C.ar      1 <0>        -0.0704
      6 C5          2.3719    1.3991   -0.0168 C.ar      1 <0>        -0.1490
      7 C6          2.3955    0.0115   -0.0295 C.ar      1 <0>        -0.0517
      8 C7          1.2123   -0.6954   -0.0161 C.ar      1 <0>        -0.1157
      9 C8          1.1581   -2.2003   -0.0107 C.3       1 <0>        -0.0662
     10 C9          2.5077   -2.8056   -0.3957 C.3       1 <0>        -0.1350
     11 C10         3.5929   -2.1167    0.4316 C.3       1 <0>         0.0288
     12 H1          3.2997   -2.1117    1.4814 H         1 <0>         0.1413
     13 C11         3.7297   -0.6775   -0.0644 C.3       1 <0>        -0.0526
     14 H2          4.0839   -0.6909   -1.0951 H         1 <0>         0.1028
     15 C12         4.7513    0.0529    0.8069 C.3       1 <0>        -0.1320
     16 C13         6.0875   -0.6933    0.7108 C.3       1 <0>        -0.1473
     17 C14         5.8996   -2.1505    1.1345 C.3       1 <0>        -0.0029
     18 H3         -2.3936    0.6968    0.9253 H         1 <0>         0.0602
     19 H4         -2.4154    0.7063   -0.8545 H         1 <0>         0.0602
     20 H5         -3.2322   -0.5988    0.0386 H         1 <0>         0.1072
     21 H6         -0.9582    1.9093    0.0170 H         1 <0>         0.1357
     22 H7          1.1646    3.1624    0.0104 H         1 <0>         0.1333
     23 H8          3.3010    1.9497   -0.0213 H         1 <0>         0.1285
     24 H9          0.8843   -2.5441    0.9868 H         1 <0>         0.0860
     25 H10         0.4019   -2.5328   -0.7218 H         1 <0>         0.0979
     26 H11         2.5057   -3.8745   -0.1825 H         1 <0>         0.0942
     27 H12         2.6945   -2.6427   -1.4572 H         1 <0>         0.0919
     28 H13         4.4121    0.0648    1.8428 H         1 <0>         0.0862
     29 H14         4.8763    1.0754    0.4507 H         1 <0>         0.0993
     30 H15         6.8165   -0.2166    1.3662 H         1 <0>         0.1147
     31 H16         6.4475   -0.6585   -0.3174 H         1 <0>         0.0892
     32 H17         5.5792   -2.1857    2.1757 H         1 <0>         0.1295
     33 H18         6.8464   -2.6802    1.0296 H         1 <0>         0.1340
     34 N1          4.8845   -2.8015    0.2854 N.4       1 <0>        -0.5109
     35 H19         5.1833   -2.7579   -0.6959 H         1 <0>         0.4303
     36 H20         4.7829   -3.7831    0.5690 H         1 <0>         0.4355
@<TRIPOS>BOND
     1    1    2 1
     2    1   18 1
     3    1   19 1
     4    1   20 1
     5    2    3 1
     6    3    8 ar
     7    3    4 ar
     8    4    5 ar
     9    4   21 1
    10    5    6 ar
    11    5   22 1
    12    6    7 ar
    13    6   23 1
    14    7   13 1
    15    7    8 ar
    16    8    9 1
    17    9   10 1
    18    9   24 1
    19    9   25 1
    20   10   11 1
    21   10   26 1
    22   10   27 1
    23   11   12 1
    24   11   13 1
    25   11   34 1
    26   13   14 1
    27   13   15 1
    28   15   16 1
    29   15   28 1
    30   15   29 1
    31   16   17 1
    32   16   30 1
    33   16   31 1
    34   17   32 1
    35   17   33 1
    36   17   34 1
    37   34   35 1
    38   34   36 1
@<TRIPOS>MOLECULE
ZINC00001160
   33    35     0     0     0
SMALL
USER_CHARGES

@<TRIPOS>ATOM
      1 C1         -0.0167    1.3782    0.0096 C.ar      1 <0>        -0.1303
      2 C2          1.1700    2.0882    0.0021 C.ar      1 <0>        -0.0821
      3 C3          2.3773    1.4175   -0.0134 C.ar      1 <0>        -0.1978
      4 C4          2.3989    0.0301   -0.0210 C.ar      1 <0>         0.1151
      5 C5          1.2072   -0.6797   -0.0130 C.ar      1 <0>        -0.0640
      6 C6          0.0021   -0.0041    0.0020 C.ar      1 <0>        -0.0823
      7 C7          1.2269   -2.1866   -0.0218 C.3       1 <0>        -0.1188
      8 C8         -0.1076   -2.9094   -0.2158 C.3       1 <0>        -0.1730
      9 C9          0.5695   -2.9085    1.1562 C.3       1 <0>        -0.1668
     10 O1          3.5855   -0.6321   -0.0368 O.3       1 <0>        -0.3151
     11 C10         4.7724    0.1636   -0.0448 C.3       1 <0>         0.0707
     12 C11         5.9807   -0.7369   -0.0620 C.cat     1 <0>         0.5166
     13 N1          5.8839   -2.0456   -0.0736 N.pl3     1 <0>        -0.6140
     14 C12         7.2335   -2.6325   -0.0894 C.3       1 <0>         0.0532
     15 C13         8.1554   -1.3955   -0.0849 C.3       1 <0>         0.0611
     16 N2          7.2071   -0.2699   -0.0721 N.pl3     1 <0>        -0.6312
     17 H1         -0.9596    1.9045    0.0259 H         1 <0>         0.1340
     18 H2          1.1527    3.1681    0.0080 H         1 <0>         0.1339
     19 H3          3.3038    1.9724   -0.0200 H         1 <0>         0.1293
     20 H4         -0.9260   -0.5563    0.0079 H         1 <0>         0.1383
     21 H5          2.1150   -2.6426   -0.4593 H         1 <0>         0.1104
     22 H6         -0.9997   -2.2951   -0.3372 H         1 <0>         0.1017
     23 H7         -0.0976   -3.8412   -0.7813 H         1 <0>         0.1026
     24 H8          1.0249   -3.8397    1.4933 H         1 <0>         0.0999
     25 H9          0.1228   -2.2936    1.9375 H         1 <0>         0.0985
     26 H10         4.7790    0.7974   -0.9315 H         1 <0>         0.1320
     27 H11         4.7973    0.7880    0.8483 H         1 <0>         0.1321
     28 H12         7.3996   -3.2396    0.8005 H         1 <0>         0.1300
     29 H13         7.3858   -3.2227   -0.9931 H         1 <0>         0.1300
     30 H14         8.7815   -1.3854    0.8074 H         1 <0>         0.1299
     31 H15         8.7677   -1.3685   -0.9862 H         1 <0>         0.1294
     32 H16         7.4504    0.6691   -0.0698 H         1 <0>         0.4615
     33 H17         5.0536   -2.5471   -0.0715 H         1 <0>         0.4652
@<TRIPOS>BOND
     1    1    6 ar
     2    1    2 ar
     3    1   17 1
     4    2    3 ar
     5    2   18 1
     6    3    4 ar
     7    3   19 1
     8    4    5 ar
     9    4   10 1
    10    5    6 ar
    11    5    7 1
    12    6   20 1
    13    7    9 1
    14    7    8 1
    15    7   21 1
    16    8    9 1
    17    8   22 1
    18    8   23 1
    19    9   24 1
    20    9   25 1
    21   10   11 1
    22   11   12 1
    23   11   26 1
    24   11   27 1
    25   12   16 1
    26   12   13 2
    27   13   14 1
    28   13   33 1
    29   14   15 1
    30   14   28 1
    31   14   29 1
    32   15   16 1
    33   15   30 1
    34   15   31 1
    35   16   32 1
@<TRIPOS>MOLECULE
ZINC19632696
   57    60     0     0     0
SMALL
USER_CHARGES

@<TRIPOS>ATOM
      1 C1         -0.3571    0.9816   -1.0035 C.3       1 <0>         0.0253
      2 O1         -0.2200   -0.4285   -0.8166 O.3       1 <0>        -0.3059
      3 C2         -1.3612   -1.1682   -0.8397 C.ar      1 <0>         0.1174
      4 C3         -2.5844   -0.5512   -1.0434 C.ar      1 <0>        -0.2068
      5 C4         -3.7439   -1.3044   -1.0662 C.ar      1 <0>        -0.0841
      6 C5         -3.6866   -2.6741   -0.8864 C.ar      1 <0>        -0.1509
      7 C6         -2.4698   -3.2975   -0.6829 C.ar      1 <0>        -0.0868
      8 C7         -1.3020   -2.5490   -0.6642 C.ar      1 <0>         0.1390
      9 N1         -0.0680   -3.1786   -0.4641 N.pl3     1 <0>        -0.6688
     10 C8          0.4707   -3.3704    0.8909 C.3       1 <0>         0.1545
     11 C9          1.9072   -2.8378    0.9236 C.3       1 <0>         0.0403
     12 N2          2.6853   -3.4709   -0.1496 N.3       1 <0>        -0.5218
     13 C10         2.1508   -3.1217   -1.4726 C.3       1 <0>         0.0431
     14 C11         0.7214   -3.6714   -1.6030 C.3       1 <0>         0.1547
     15 C12         4.1077   -3.1186   -0.0467 C.3       1 <0>         0.0270
     16 C13         4.7495   -3.9155    1.0908 C.3       1 <0>         0.1192
     17 H1          4.2176   -3.7142    2.0207 H         1 <0>         0.1076
     18 C14         6.2144   -3.5004    1.2411 C.3       1 <0>         0.0265
     19 O2          6.7818   -4.1578    2.3759 O.3       1 <0>        -0.2971
     20 C15         8.0856   -3.8964    2.6519 C.ar      1 <0>         0.1492
     21 C16         8.7960   -3.0341    1.8647 C.ar      1 <0>        -0.2272
     22 C17        10.1328   -2.7557    2.1343 C.ar      1 <0>        -0.0749
     23 C18        10.7718   -3.3332    3.1891 C.ar      1 <0>        -0.1469
     24 C19        10.0764   -4.2253    4.0228 C.ar      1 <0>        -0.0185
     25 C20         8.7138   -4.5081    3.7555 C.ar      1 <0>        -0.0716
     26 C21         8.0176   -5.3961    4.5912 C.ar      1 <0>        -0.0818
     27 C22         8.6572   -5.9685    5.6479 C.ar      1 <0>        -0.1298
     28 C23         9.9958   -5.6867    5.9144 C.ar      1 <0>        -0.1014
     29 C24        10.7050   -4.8393    5.1198 C.ar      1 <0>        -0.1187
     30 O3          4.6780   -5.3115    0.7939 O.3       1 <0>        -0.5351
     31 H2          0.6260    1.4507   -0.9630 H         1 <0>         0.0966
     32 H3         -0.8131    1.1768   -1.9741 H         1 <0>         0.0539
     33 H4         -0.9886    1.3928   -0.2161 H         1 <0>         0.0540
     34 H5         -2.6327    0.5185   -1.1842 H         1 <0>         0.1266
     35 H6         -4.6968   -0.8215   -1.2245 H         1 <0>         0.1244
     36 H7         -4.5948   -3.2582   -0.9045 H         1 <0>         0.1248
     37 H8         -2.4279   -4.3675   -0.5423 H         1 <0>         0.1293
     38 H9         -0.1395   -2.8221    1.6086 H         1 <0>         0.0687
     39 H10         0.4680   -4.4318    1.1392 H         1 <0>         0.0589
     40 H11         1.8980   -1.7577    0.7776 H         1 <0>         0.0396
     41 H12         2.3598   -3.0712    1.8873 H         1 <0>         0.0771
     42 H13         2.1382   -2.0376   -1.5852 H         1 <0>         0.0394
     43 H14         2.7801   -3.5609   -2.2466 H         1 <0>         0.0763
     44 H15         0.7423   -4.7611   -1.5899 H         1 <0>         0.0585
     45 H16         0.2770   -3.3221   -2.5351 H         1 <0>         0.0688
     46 H17         4.6095   -3.3559   -0.9848 H         1 <0>         0.0796
     47 H18         4.2040   -2.0522    0.1573 H         1 <0>         0.0466
     48 H19         6.7659   -3.7828    0.3443 H         1 <0>         0.0680
     49 H20         6.2738   -2.4208    1.3793 H         1 <0>         0.0711
     50 H21         8.3134   -2.5623    1.0216 H         1 <0>         0.1255
     51 H22        10.6721   -2.0711    1.4964 H         1 <0>         0.1245
     52 H23        11.8096   -3.1065    3.3840 H         1 <0>         0.1282
     53 H24         6.9798   -5.6235    4.3970 H         1 <0>         0.1328
     54 H25         8.1193   -6.6509    6.2893 H         1 <0>         0.1251
     55 H26        10.4798   -6.1539    6.7593 H         1 <0>         0.1248
     56 H27        11.7418   -4.6305    5.3381 H         1 <0>         0.1298
     57 H28         5.1312   -5.5637   -0.0223 H         1 <0>         0.3713
@<TRIPOS>BOND
     1    1    2 1
     2    1   31 1
     3    1   32 1
     4    1   33 1
     5    2    3 1
     6    3    8 ar
     7    3    4 ar
     8    4    5 ar
     9    4   34 1
    10    5    6 ar
    11    5   35 1
    12    6    7 ar
    13    6   36 1
    14    7    8 ar
    15    7   37 1
    16    8    9 1
    17    9   14 1
    18    9   10 1
    19   10   11 1
    20   10   38 1
    21   10   39 1
    22   11   12 1
    23   11   40 1
    24   11   41 1
    25   12   13 1
    26   12   15 1
    27   13   14 1
    28   13   42 1
    29   13   43 1
    30   14   44 1
    31   14   45 1
    32   15   16 1
    33   15   46 1
    34   15   47 1
    35   16   17 1
    36   16   18 1
    37   16   30 1
    38   18   19 1
    39   18   48 1
    40   18   49 1
    41   19   20 1
    42   20   25 ar
    43   20   21 ar
    44   21   22 ar
    45   21   50 1
    46   22   23 ar
    47   22   51 1
    48   23   24 ar
    49   23   52 1
    50   24   29 ar
    51   24   25 ar
    52   25   26 ar
    53   26   27 ar
    54   26   53 1
    55   27   28 ar
    56   27   54 1
    57   28   29 ar
    58   28   55 1
    59   29   56 1
    60   30   57 1
@<TRIPOS>MOLECULE
ZINC19632700
   57    60     0     0     0
SMALL
USER_CHARGES

@<TRIPOS>ATOM
      1 C1         -0.0173    1.4248    0.0099 C.3       1 <0>         0.0253
      2 O1          0.0021   -0.0041    0.0020 O.3       1 <0>        -0.3059
      3 C2         -1.2013   -0.6380    0.0101 C.ar      1 <0>         0.1174
      4 C3         -2.3740    0.0989    0.0195 C.ar      1 <0>        -0.2068
      5 C4         -3.5967   -0.5469    0.0283 C.ar      1 <0>        -0.0841
      6 C5         -3.6532   -1.9283    0.0271 C.ar      1 <0>        -0.1510
      7 C6         -2.4875   -2.6710    0.0173 C.ar      1 <0>        -0.0868
      8 C7         -1.2572   -2.0300    0.0032 C.ar      1 <0>         0.1390
      9 N1         -0.0754   -2.7797   -0.0127 N.pl3     1 <0>        -0.6689
     10 C8          0.5713   -3.1961    1.2410 C.3       1 <0>         0.1546
     11 C9          2.0484   -2.7921    1.1842 C.3       1 <0>         0.0424
     12 N2          2.6549   -3.3362   -0.0381 N.3       1 <0>        -0.5210
     13 C10         2.0305   -2.7691   -1.2408 C.3       1 <0>         0.0390
     14 C11         0.5494   -3.1773   -1.2834 C.3       1 <0>         0.1552
     15 C12         4.1077   -3.1186   -0.0467 C.3       1 <0>         0.0270
     16 C13         4.7347   -3.9076   -1.1979 C.3       1 <0>         0.1164
     17 H1          4.3110   -3.5692   -2.1435 H         1 <0>         0.1081
     18 C14         6.2478   -3.6810   -1.2069 C.3       1 <0>         0.0269
     19 O2          6.8187   -4.3224   -2.3492 O.3       1 <0>        -0.2973
     20 C15         8.1634   -4.2170   -2.5076 C.ar      1 <0>         0.1491
     21 C16         8.9116   -3.5269   -1.5956 C.ar      1 <0>        -0.2270
     22 C17        10.2907   -3.4098   -1.7437 C.ar      1 <0>        -0.0749
     23 C18        10.9346   -3.9790   -2.8000 C.ar      1 <0>        -0.1468
     24 C19        10.2012   -4.6975   -3.7595 C.ar      1 <0>        -0.0186
     25 C20         8.7977   -4.8236   -3.6105 C.ar      1 <0>        -0.0715
     26 C21         8.0654   -5.5453   -4.5669 C.ar      1 <0>        -0.0819
     27 C22         8.7120   -6.1174   -5.6195 C.ar      1 <0>        -0.1298
     28 C23        10.0929   -5.9981   -5.7637 C.ar      1 <0>        -0.1014
     29 C24        10.8335   -5.2973   -4.8622 C.ar      1 <0>        -0.1186
     30 O3          4.4625   -5.2997   -1.0252 O.3       1 <0>        -0.5348
     31 H2          1.0053    1.8021    0.0021 H         1 <0>         0.0966
     32 H3         -0.5445    1.7859   -0.8732 H         1 <0>         0.0540
     33 H4         -0.5275    1.7763    0.9067 H         1 <0>         0.0539
     34 H5         -2.3335    1.1781    0.0204 H         1 <0>         0.1266
     35 H6         -4.5101    0.0293    0.0363 H         1 <0>         0.1243
     36 H7         -4.6104   -2.4284    0.0343 H         1 <0>         0.1248
     37 H8         -2.5344   -3.7500    0.0168 H         1 <0>         0.1293
     38 H9          0.0885   -2.7015    2.0838 H         1 <0>         0.0688
     39 H10         0.4914   -4.2774    1.3526 H         1 <0>         0.0578
     40 H11         2.1282   -1.7051    1.1771 H         1 <0>         0.0392
     41 H12         2.5679   -3.1896    2.0561 H         1 <0>         0.0765
     42 H13         2.1105   -1.6824   -1.2141 H         1 <0>         0.0391
     43 H14         2.5371   -3.1499   -2.1276 H         1 <0>         0.0790
     44 H15         0.4674   -4.2569   -1.4097 H         1 <0>         0.0594
     45 H16         0.0521   -2.6703   -2.1103 H         1 <0>         0.0684
     46 H17         4.3153   -2.0567   -0.1785 H         1 <0>         0.0442
     47 H18         4.5314   -3.4570    0.8988 H         1 <0>         0.0810
     48 H19         6.4548   -2.6117   -1.2494 H         1 <0>         0.0712
     49 H20         6.6833   -4.0996   -0.2996 H         1 <0>         0.0686
     50 H21         8.4261   -3.0656   -0.7484 H         1 <0>         0.1256
     51 H22        10.8590   -2.8584   -1.0094 H         1 <0>         0.1246
     52 H23        12.0052   -3.8784   -2.9002 H         1 <0>         0.1283
     53 H24         6.9947   -5.6464   -4.4677 H         1 <0>         0.1327
     54 H25         8.1464   -6.6723   -6.3534 H         1 <0>         0.1251
     55 H26        10.5817   -6.4619   -6.6078 H         1 <0>         0.1248
     56 H27        11.9030   -5.2127   -4.9868 H         1 <0>         0.1298
     57 H28         4.8113   -5.6695   -0.2026 H         1 <0>         0.3727
@<TRIPOS>BOND
     1    1    2 1
     2    1   31 1
     3    1   32 1
     4    1   33 1
     5    2    3 1
     6    3    8 ar
     7    3    4 ar
     8    4    5 ar
     9    4   34 1
    10    5    6 ar
    11    5   35 1
    12    6    7 ar
    13    6   36 1
    14    7    8 ar
    15    7   37 1
    16    8    9 1
    17    9   14 1
    18    9   10 1
    19   10   11 1
    20   10   38 1
    21   10   39 1
    22   11   12 1
    23   11   40 1
    24   11   41 1
    25   12   13 1
    26   12   15 1
    27   13   14 1
    28   13   42 1
    29   13   43 1
    30   14   44 1
    31   14   45 1
    32   15   16 1
    33   15   46 1
    34   15   47 1
    35   16   17 1
    36   16   18 1
    37   16   30 1
    38   18   19 1
    39   18   48 1
    40   18   49 1
    41   19   20 1
    42   20   25 ar
    43   20   21 ar
    44   21   22 ar
    45   21   50 1
    46   22   23 ar
    47   22   51 1
    48   23   24 ar
    49   23   52 1
    50   24   29 ar
    51   24   25 ar
    52   25   26 ar
    53   26   27 ar
    54   26   53 1
    55   27   28 ar
    56   27   54 1
    57   28   29 ar
    58   28   55 1
    59   29   56 1
    60   30   57 1
@<TRIPOS>MOLECULE
ZINC19230109
   20    21     0     0     0
SMALL
USER_CHARGES

@<TRIPOS>ATOM
      1 C1         -0.0166    1.3749    0.0096 C.ar      1 <0>        -0.1507
      2 C2          1.1734    2.0789    0.0020 C.ar      1 <0>        -0.1416
      3 C3          2.3718    1.3959   -0.0189 C.ar      1 <0>        -0.1404
      4 C4          2.3918    0.0077   -0.0285 C.ar      1 <0>        -0.0683
      5 C5          1.2080   -0.6948   -0.0112 C.ar      1 <0>        -0.0565
      6 C6          0.0021   -0.0041    0.0020 C.ar      1 <0>        -0.1384
      7 C7          1.1511   -2.1995    0.0103 C.3       1 <0>        -0.0997
      8 C8          2.4654   -2.8008   -0.4851 C.3       1 <0>         0.1078
      9 N1          3.5680   -2.1086    0.2022 N.2       1 <0>        -0.9306
     10 C9          3.7354   -0.6763   -0.0660 C.3       1 <0>         0.1384
     11 H1         -0.9583    1.9035    0.0259 H         1 <0>         0.1053
     12 H2          1.1647    3.1588    0.0128 H         1 <0>         0.1053
     13 H3          3.3016    1.9453   -0.0281 H         1 <0>         0.1074
     14 H4         -0.9286   -0.5520    0.0067 H         1 <0>         0.1048
     15 H5          0.9645   -2.5367    1.0299 H         1 <0>         0.0535
     16 H6          0.3379   -2.5367   -0.6324 H         1 <0>         0.0266
     17 H7          2.4953   -3.8650   -0.2511 H         1 <0>         0.0223
     18 H8          2.5539   -2.6568   -1.5619 H         1 <0>        -0.0437
     19 H9          4.1837   -0.5415   -1.0504 H         1 <0>        -0.0302
     20 H10         4.3862   -0.2391    0.6912 H         1 <0>         0.0286
@<TRIPOS>BOND
     1    1    6 ar
     2    1    2 ar
     3    1   11 1
     4    2    3 ar
     5    2   12 1
     6    3    4 ar
     7    3   13 1
     8    4   10 1
     9    4    5 ar
    10    5    6 ar
    11    5    7 1
    12    6   14 1
    13    7    8 1
    14    7   15 1
    15    7   16 1
    16    8    9 1
    17    8   17 1
    18    8   18 1
    19    9   10 1
    20   10   19 1
    21   10   20 1
@<TRIPOS>MOLECULE
ZINC00057624
   24    24     0     0     0
SMALL
USER_CHARGES

@<TRIPOS>ATOM
      1 C1         -0.0167    1.3779    0.0096 C.ar      1 <0>        -0.0981
      2 C2          1.1696    2.0886    0.0021 C.ar      1 <0>        -0.1236
      3 C3          2.3802    1.4154   -0.0130 C.ar      1 <0>         0.1055
      4 C4          2.3990    0.0236   -0.0206 C.ar      1 <0>         0.0900
      5 C5          1.2071   -0.6822   -0.0130 C.ar      1 <0>        -0.1137
      6 C6          0.0021   -0.0041    0.0020 C.ar      1 <0>        -0.1399
      7 C7         -1.2936   -0.7736    0.0102 C.3       1 <0>         0.1354
      8 H1         -1.1263   -1.7622    0.4376 H         1 <0>         0.1339
      9 C8         -1.8100   -0.9182   -1.4228 C.3       1 <0>        -0.0430
     10 N1         -3.0730   -1.6683   -1.4148 N.4       1 <0>        -0.6330
     11 O1         -2.2593   -0.0721    0.7960 O.3       1 <0>        -0.5475
     12 O2          3.5850   -0.6417   -0.0359 O.3       1 <0>        -0.4846
     13 O3          3.5476    2.1129   -0.0209 O.3       1 <0>        -0.4848
     14 H2         -0.9598    1.9038    0.0259 H         1 <0>         0.1309
     15 H3          1.1522    3.1684    0.0077 H         1 <0>         0.1437
     16 H4          1.2190   -1.7621   -0.0189 H         1 <0>         0.1389
     17 H5         -1.9772    0.0704   -1.8502 H         1 <0>         0.1398
     18 H6         -1.0734   -1.4533   -2.0221 H         1 <0>         0.1477
     19 H7         -2.9181   -2.5835   -1.0191 H         1 <0>         0.4371
     20 H8         -3.7548   -1.1730   -0.8600 H         1 <0>         0.4387
     21 H9         -2.4578    0.8175    0.4731 H         1 <0>         0.3897
     22 H10         3.9367   -0.8389    0.8430 H         1 <0>         0.3974
     23 H11         3.8938    2.3101    0.8602 H         1 <0>         0.3992
     24 H12        -3.4135   -1.7637   -2.3598 H         1 <0>         0.4402
@<TRIPOS>BOND
     1    1    6 ar
     2    1    2 ar
     3    1   14 1
     4    2    3 ar
     5    2   15 1
     6    3    4 ar
     7    3   13 1
     8    4    5 ar
     9    4   12 1
    10    5    6 ar
    11    5   16 1
    12    6    7 1
    13    7    8 1
    14    7    9 1
    15    7   11 1
    16    9   10 1
    17    9   17 1
    18    9   18 1
    19   10   19 1
    20   10   20 1
    21   10   24 1
    22   11   21 1
    23   12   22 1
    24   13   23 1
@<TRIPOS>MOLECULE
ZINC13802755
   30    31     0     0     0
SMALL
USER_CHARGES
2,4-diethyl-5-(1H-imidazol-4-ylmethyl)thiazole
@<TRIPOS>ATOM
      1 C1         -0.7527    1.5927   -1.2315 C.3       1 <0>        -0.1444
      2 C2         -0.0127    1.0858    0.0080 C.3       1 <0>        -0.0524
      3 C3         -0.7181    1.5718    1.2479 C.2       1 <0>         0.0757
      4 C4         -1.7036    0.8351    1.8211 C.2       1 <0>        -0.1639
      5 S1         -2.1387    1.8851    3.2000 S.3       1 <0>         0.0184
      6 C5         -0.9998    3.1568    2.8817 C.2       1 <0>         0.0917
      7 N1         -0.3898    2.7188    1.8047 N.2       1 <0>        -0.5028
      8 C6         -0.7670    4.4330    3.6487 C.3       1 <0>        -0.0328
      9 C7         -1.6669    5.5362    3.0883 C.3       1 <0>        -0.1469
     10 C8         -2.2727   -0.4981    1.4089 C.3       1 <0>         0.0565
     11 C9         -1.4985   -1.6037    2.0792 C.2       1 <0>         0.0014
     12 C10        -2.0182   -2.5826    2.8442 C.2       1 <0>        -0.0465
     13 N2         -0.9718   -3.3672    3.2482 N.pl3     1 <0>        -0.5725
     14 H1         -1.0287   -4.1791    3.8292 H         1 <0>         0.4276
     15 C11         0.1516   -2.8401    2.7156 C.2       1 <0>         0.1867
     16 N3         -0.1716   -1.7885    2.0136 N.2       1 <0>        -0.4804
     17 H2         -0.7675    2.6825   -1.2255 H         1 <0>         0.0544
     18 H3         -0.2425    1.2411   -2.1283 H         1 <0>         0.0604
     19 H4         -1.7753    1.2154   -1.2238 H         1 <0>         0.0521
     20 H5          0.0021   -0.0041    0.0020 H         1 <0>         0.0891
     21 H6          1.0099    1.4631    0.0003 H         1 <0>         0.0749
     22 H7         -1.0014    4.2724    4.7010 H         1 <0>         0.0893
     23 H8          0.2769    4.7307    3.5503 H         1 <0>         0.0976
     24 H9         -1.4985    6.4593    3.6430 H         1 <0>         0.0703
     25 H10        -1.4325    5.6968    2.0359 H         1 <0>         0.0621
     26 H11        -2.7108    5.2385    3.1866 H         1 <0>         0.0581
     27 H12        -3.3194   -0.5545    1.7081 H         1 <0>         0.0915
     28 H13        -2.1978   -0.6063    0.3269 H         1 <0>         0.1006
     29 H14        -3.0602   -2.7216    3.0918 H         1 <0>         0.1766
     30 H15         1.1515   -3.2271    2.8457 H         1 <0>         0.2074
@<TRIPOS>BOND
     1    1    2 1
     2    1   17 1
     3    1   18 1
     4    1   19 1
     5    2    3 1
     6    2   20 1
     7    2   21 1
     8    3    7 1
     9    3    4 2
    10    4    5 1
    11    4   10 1
    12    5    6 1
    13    6    7 2
    14    6    8 1
    15    8    9 1
    16    8   22 1
    17    8   23 1
    18    9   24 1
    19    9   25 1
    20    9   26 1
    21   10   11 1
    22   10   27 1
    23   10   28 1
    24   11   16 1
    25   11   12 2
    26   12   13 1
    27   12   29 1
    28   13   14 1
    29   13   15 1
    30   15   16 2
    31   15   30 1
@<TRIPOS>MOLECULE
ZINC13802755
   31    32     0     0     0
SMALL
USER_CHARGES
2,4-diethyl-5-(1H-imidazol-4-ylmethyl)thiazole
@<TRIPOS>ATOM
      1 C1         -0.7527    1.5927   -1.2315 C.3       1 <0>        -0.1495
      2 C2         -0.0127    1.0858    0.0080 C.3       1 <0>        -0.0567
      3 C3         -0.7181    1.5718    1.2479 C.2       1 <0>         0.0885
      4 C4         -1.7036    0.8351    1.8211 C.2       1 <0>        -0.2441
      5 S1         -2.1387    1.8851    3.2000 S.3       1 <0>         0.0666
      6 C5         -0.9998    3.1568    2.8817 C.2       1 <0>         0.1277
      7 N1         -0.3898    2.7188    1.8047 N.2       1 <0>        -0.5098
      8 C6         -0.7670    4.4330    3.6487 C.3       1 <0>        -0.0429
      9 C7         -1.6669    5.5362    3.0883 C.3       1 <0>        -0.1500
     10 C8         -2.2727   -0.4981    1.4089 C.3       1 <0>         0.0383
     11 C9         -1.4985   -1.6037    2.0792 C.2       1 <0>         0.0354
     12 C10        -2.0182   -2.5826    2.8442 C.2       1 <0>         0.0390
     13 N2         -0.9718   -3.3672    3.2482 N.pl3     1 <0>        -0.5134
     14 H1         -1.0287   -4.1791    3.8292 H         1 <0>         0.4764
     15 C11         0.1516   -2.8401    2.7156 C.cat     1 <0>         0.3062
     16 H2         -0.7675    2.6825   -1.2255 H         1 <0>         0.0659
     17 H3         -0.2425    1.2411   -2.1283 H         1 <0>         0.0698
     18 H4         -1.7753    1.2154   -1.2238 H         1 <0>         0.0574
     19 H5          0.0021   -0.0041    0.0020 H         1 <0>         0.0594
     20 H6          1.0099    1.4631    0.0003 H         1 <0>         0.0903
     21 H7         -1.0014    4.2724    4.7010 H         1 <0>         0.0971
     22 H8          0.2769    4.7307    3.5503 H         1 <0>         0.1060
     23 H9         -1.4985    6.4593    3.6430 H         1 <0>         0.0789
     24 H10        -1.4325    5.6968    2.0359 H         1 <0>         0.0648
     25 H11        -2.7108    5.2385    3.1866 H         1 <0>         0.0604
     26 H12        -3.3194   -0.5545    1.7081 H         1 <0>         0.1275
     27 H13        -2.1978   -0.6063    0.3269 H         1 <0>         0.1238
     28 H14        -3.0602   -2.7216    3.0918 H         1 <0>         0.2276
     29 H15         1.1515   -3.2271    2.8457 H         1 <0>         0.2655
     30 N3         -0.1725   -1.7893    2.0143 N.pl3     1 <0>        -0.4823
     31 H16         0.4851   -1.1969    1.4939 H         1 <0>         0.4761
@<TRIPOS>BOND
     1    1    2 1
     2    1   16 1
     3    1   17 1
     4    1   18 1
     5    2    3 1
     6    2   19 1
     7    2   20 1
     8    3    7 1
     9    3    4 2
    10    4    5 1
    11    4   10 1
    12    5    6 1
    13    6    7 2
    14    6    8 1
    15    8    9 1
    16    8   21 1
    17    8   22 1
    18    9   23 1
    19    9   24 1
    20    9   25 1
    21   10   11 1
    22   10   26 1
    23   10   27 1
    24   11   12 2
    25   11   30 1
    26   12   13 1
    27   12   28 1
    28   13   14 1
    29   13   15 1
    30   15   29 1
    31   15   30 2
    32   30   31 1
@<TRIPOS>MOLECULE
ZINC05689242
   33    34     0     0     0
SMALL
USER_CHARGES
6-dimethylaminotetralin-1,2-diol
@<TRIPOS>ATOM
      1 C1          1.3463    2.0098   -0.0000 C.3       1 <0>        -0.0465
      2 C2         -0.8017    1.9868   -1.1173 C.3       1 <0>        -0.0478
      3 C3          0.0021   -0.0041    0.0020 C.3       1 <0>         0.0287
      4 H1          0.5197   -0.3592   -0.8891 H         1 <0>         0.1431
      5 C4         -1.4344   -0.5400    0.0129 C.3       1 <0>        -0.1414
      6 C5         -1.3885   -2.0459   -0.2380 C.3       1 <0>        -0.0734
      7 C6         -0.4151   -2.7099    0.7005 C.ar      1 <0>        -0.0939
      8 C7          0.5571   -2.0083    1.3788 C.ar      1 <0>        -0.0880
      9 C8          1.4299   -2.6807    2.2245 C.ar      1 <0>        -0.1012
     10 C9          1.3318   -4.0462    2.3977 C.ar      1 <0>        -0.1246
     11 C10         0.3534   -4.7568    1.7219 C.ar      1 <0>         0.0985
     12 C11        -0.5190   -4.0870    0.8733 C.ar      1 <0>         0.0853
     13 O1         -1.4806   -4.7810    0.2077 O.3       1 <0>        -0.4823
     14 O2          0.2472   -6.1023    1.8885 O.3       1 <0>        -0.4840
     15 C12         0.7166   -0.5157    1.2511 C.3       1 <0>        -0.0921
     16 H2          1.8658    1.6723   -0.8968 H         1 <0>         0.1237
     17 H3          1.3024    3.0989    0.0063 H         1 <0>         0.1244
     18 H4          1.8828    1.6627    0.8830 H         1 <0>         0.1221
     19 H5         -1.8268    1.6230   -1.0465 H         1 <0>         0.1244
     20 H6         -0.8000    3.0764   -1.0873 H         1 <0>         0.1246
     21 H7         -0.3600    1.6485   -2.0545 H         1 <0>         0.1238
     22 H8         -1.8924   -0.3431    0.9822 H         1 <0>         0.0931
     23 H9         -2.0133   -0.0545   -0.7727 H         1 <0>         0.0965
     24 H10        -2.3818   -2.4667   -0.0822 H         1 <0>         0.1038
     25 H11        -1.0782   -2.2296   -1.2666 H         1 <0>         0.0874
     26 H12         2.1939   -2.1289    2.7519 H         1 <0>         0.1341
     27 H13         2.0157   -4.5591    3.0577 H         1 <0>         0.1420
     28 H14        -1.2013   -5.1083   -0.6582 H         1 <0>         0.3919
     29 H15         0.7739   -6.6188    1.2632 H         1 <0>         0.3956
     30 H16         1.7769   -0.2721    1.1838 H         1 <0>         0.1009
     31 H17         0.2925   -0.0322    2.1312 H         1 <0>         0.0977
     32 N1         -0.0305    1.4733    0.0344 N.4       1 <0>        -0.3960
     33 H18        -0.4856    1.7779    0.9029 H         1 <0>         0.4297
@<TRIPOS>BOND
     1    1   16 1
     2    1   17 1
     3    1   18 1
     4    1   32 1
     5    2   19 1
     6    2   20 1
     7    2   21 1
     8    2   32 1
     9    3    4 1
    10    3   15 1
    11    3    5 1
    12    3   32 1
    13    5    6 1
    14    5   22 1
    15    5   23 1
    16    6    7 1
    17    6   24 1
    18    6   25 1
    19    7   12 ar
    20    7    8 ar
    21    8    9 ar
    22    8   15 1
    23    9   10 ar
    24    9   26 1
    25   10   11 ar
    26   10   27 1
    27   11   12 ar
    28   11   14 1
    29   12   13 1
    30   13   28 1
    31   14   29 1
    32   15   30 1
    33   15   31 1
    34   32   33 1
@<TRIPOS>MOLECULE
ZINC05689279
   33    34     0     0     0
SMALL
USER_CHARGES
6-dimethylaminotetralin-1,2-diol
@<TRIPOS>ATOM
      1 C1         -0.0127    1.0858    0.0080 C.3       1 <0>        -0.0461
      2 C2         -0.0162    1.0911    2.4293 C.3       1 <0>        -0.0534
      3 C3         -0.8223    3.0235    1.2133 C.3       1 <0>         0.0273
      4 H1         -1.3071    3.3493    0.2930 H         1 <0>         0.1414
      5 C4         -1.6510    3.4754    2.4215 C.3       1 <0>        -0.1389
      6 C5         -1.9634    4.9619    2.2627 C.3       1 <0>        -0.0703
      7 C6         -0.7055    5.7406    1.9791 C.ar      1 <0>        -0.0944
      8 C7          0.4536    5.1417    1.5372 C.ar      1 <0>        -0.0882
      9 C8          1.5782    5.9169    1.2854 C.ar      1 <0>        -0.1015
     10 C9          1.5499    7.2832    1.4773 C.ar      1 <0>        -0.1252
     11 C10         0.3887    7.8908    1.9262 C.ar      1 <0>         0.0994
     12 C11        -0.7381    7.1179    2.1765 C.ar      1 <0>         0.0863
     13 O1         -1.8803    7.7107    2.6162 O.3       1 <0>        -0.4872
     14 O2          0.3522    9.2362    2.1212 O.3       1 <0>        -0.4893
     15 C12         0.5642    3.6555    1.3167 C.3       1 <0>        -0.0899
     16 H2          0.0021   -0.0041    0.0020 H         1 <0>         0.1244
     17 H3          1.0099    1.4631    0.0003 H         1 <0>         0.1230
     18 H4         -0.5399    1.4469   -0.8751 H         1 <0>         0.1224
     19 H5          0.9826    1.5252    2.4736 H         1 <0>         0.1252
     20 H6         -0.5844    1.3965    3.3079 H         1 <0>         0.1232
     21 H7          0.0607    0.0041    2.4061 H         1 <0>         0.1251
     22 H8         -2.5804    2.9073    2.4624 H         1 <0>         0.0939
     23 H9         -1.0822    3.3151    3.3374 H         1 <0>         0.0927
     24 H10        -2.6629    5.0960    1.4376 H         1 <0>         0.0921
     25 H11        -2.4169    5.3340    3.1815 H         1 <0>         0.0968
     26 H12         2.4845    5.4454    0.9352 H         1 <0>         0.1336
     27 H13         2.4300    7.8766    1.2786 H         1 <0>         0.1419
     28 H14        -1.9479    7.7686    3.5791 H         1 <0>         0.3971
     29 H15         0.0783    9.7393    1.3421 H         1 <0>         0.4012
     30 H16         1.1022    3.2072    2.1521 H         1 <0>         0.0991
     31 H17         1.1141    3.4689    0.3943 H         1 <0>         0.0994
     32 N1         -0.7268    1.5485    1.2166 N.4       1 <0>        -0.3943
     33 H18        -1.6743    1.1530    1.2161 H         1 <0>         0.4331
@<TRIPOS>BOND
     1    1   16 1
     2    1   17 1
     3    1   18 1
     4    1   32 1
     5    2   19 1
     6    2   20 1
     7    2   21 1
     8    2   32 1
     9    3    4 1
    10    3   15 1
    11    3    5 1
    12    3   32 1
    13    5    6 1
    14    5   22 1
    15    5   23 1
    16    6    7 1
    17    6   24 1
    18    6   25 1
    19    7   12 ar
    20    7    8 ar
    21    8    9 ar
    22    8   15 1
    23    9   10 ar
    24    9   26 1
    25   10   11 ar
    26   10   27 1
    27   11   12 ar
    28   11   14 1
    29   12   13 1
    30   13   28 1
    31   14   29 1
    32   15   30 1
    33   15   31 1
    34   32   33 1
@<TRIPOS>MOLECULE
ZINC13802715
   30    31     0     0     0
SMALL
USER_CHARGES
2,5-diethyl-4-(1H-imidazol-4-ylmethyl)oxazole
@<TRIPOS>ATOM
      1 C1          2.8095   -0.4917   -3.4571 C.3       1 <0>        -0.1497
      2 C2          4.2112   -0.2156   -2.9097 C.3       1 <0>        -0.0342
      3 C3          4.2906    1.2103   -2.4282 C.2       1 <0>        -0.0503
      4 C4          4.0106    1.6513   -1.1906 C.2       1 <0>         0.0099
      5 N1          4.2123    2.9808   -1.1758 N.2       1 <0>        -0.4609
      6 C5          4.5983    3.3579   -2.3613 C.2       1 <0>         0.1861
      7 O1          4.6524    2.2830   -3.1590 O.3       1 <0>        -0.2021
      8 C6          4.9301    4.7705   -2.7682 C.3       1 <0>        -0.0249
      9 C7          6.4175    5.0349   -2.5262 C.3       1 <0>        -0.1497
     10 C8          3.5584    0.8074   -0.0268 C.3       1 <0>         0.0452
     11 C9          2.0532    0.7352   -0.0136 C.2       1 <0>         0.0092
     12 C10         1.3150   -0.3911   -0.0126 C.2       1 <0>        -0.0526
     13 N2          0.0021   -0.0041    0.0020 N.pl3     1 <0>        -0.5737
     14 H1         -0.7947   -0.6084    0.0064 H         1 <0>         0.4263
     15 C11        -0.0162    1.3462    0.0094 C.2       1 <0>         0.1829
     16 N3          1.2140    1.7814    0.0000 N.2       1 <0>        -0.4758
     17 H2          2.7521   -1.5230   -3.8054 H         1 <0>         0.0663
     18 H3          2.0737   -0.3330   -2.6687 H         1 <0>         0.0607
     19 H4          2.6040    0.1841   -4.2873 H         1 <0>         0.0555
     20 H5          4.9470   -0.3743   -3.6980 H         1 <0>         0.0813
     21 H6          4.4167   -0.8914   -2.0795 H         1 <0>         0.0949
     22 H7          4.7043    4.9064   -3.8259 H         1 <0>         0.0903
     23 H8          4.3363    5.4678   -2.1773 H         1 <0>         0.1054
     24 H9          7.0114    4.3375   -3.1171 H         1 <0>         0.0583
     25 H10         6.6575    6.0566   -2.8205 H         1 <0>         0.0725
     26 H11         6.6433    4.8989   -1.4685 H         1 <0>         0.0638
     27 H12         3.9090    1.2539    0.9037 H         1 <0>         0.0924
     28 H13         3.9695   -0.1973   -0.1252 H         1 <0>         0.0908
     29 H14         1.6872   -1.4049   -0.0211 H         1 <0>         0.1759
     30 H15        -0.9023    1.9637    0.0171 H         1 <0>         0.2061
@<TRIPOS>BOND
     1    1    2 1
     2    1   17 1
     3    1   18 1
     4    1   19 1
     5    2    3 1
     6    2   20 1
     7    2   21 1
     8    3    7 1
     9    3    4 2
    10    4    5 1
    11    4   10 1
    12    5    6 2
    13    6    7 1
    14    6    8 1
    15    8    9 1
    16    8   22 1
    17    8   23 1
    18    9   24 1
    19    9   25 1
    20    9   26 1
    21   10   11 1
    22   10   27 1
    23   10   28 1
    24   11   16 1
    25   11   12 2
    26   12   13 1
    27   12   29 1
    28   13   14 1
    29   13   15 1
    30   15   16 2
    31   15   30 1
@<TRIPOS>MOLECULE
ZINC13802715
   31    32     0     0     0
SMALL
USER_CHARGES

@<TRIPOS>ATOM
      1 C1         -0.0187    1.5258    0.0104 C.3       1 <0>        -0.1567
      2 C2          0.0021   -0.0041    0.0020 C.3       1 <0>        -0.0440
      3 C3          0.7309   -0.5033    1.2229 C.2       1 <0>        -0.0159
      4 C4          0.1855   -0.7883    2.4169 C.2       1 <0>        -0.0396
      5 N1          1.1743   -1.2018    3.2291 N.2       1 <0>        -0.4805
      6 C5          2.2962   -1.1763    2.5678 C.2       1 <0>         0.2144
      7 O1          2.0515   -0.7532    1.3204 O.3       1 <0>        -0.1895
      8 C6          3.6461   -1.5644    3.1139 C.3       1 <0>        -0.0343
      9 C7          3.8834   -3.0567    2.8740 C.3       1 <0>        -0.1500
     10 C8         -1.2719   -0.6667    2.7807 C.3       1 <0>         0.0254
     11 C9         -1.9741   -1.9665    2.4831 C.2       1 <0>         0.0720
     12 C10        -2.4815   -2.3515    1.2966 C.2       1 <0>         0.0000
     13 N2         -3.0212   -3.5695    1.4516 N.pl3     1 <0>        -0.4722
     14 C11        -2.8676   -3.9540    2.6892 C.cat     1 <0>         0.3066
     15 N3         -2.2135   -2.9852    3.3655 N.pl3     1 <0>        -0.5046
     16 H1         -1.9621   -3.0064    4.3021 H         1 <0>         0.4670
     17 H2          1.0039    1.9031    0.0027 H         1 <0>         0.0652
     18 H3         -0.5459    1.8868   -0.8726 H         1 <0>         0.0768
     19 H4         -0.5289    1.8773    0.9072 H         1 <0>         0.0624
     20 H5         -1.0205   -0.3814    0.0098 H         1 <0>         0.0899
     21 H6          0.5123   -0.3556   -0.8948 H         1 <0>         0.0925
     22 H7          4.4215   -0.9875    2.6100 H         1 <0>         0.1000
     23 H8          3.6778   -1.3589    4.1839 H         1 <0>         0.1114
     24 H9          4.8598   -3.3374    3.2690 H         1 <0>         0.0802
     25 H10         3.1080   -3.6336    3.3780 H         1 <0>         0.0600
     26 H11         3.8516   -3.2622    1.8040 H         1 <0>         0.0600
     27 H12        -1.3635   -0.4391    3.8427 H         1 <0>         0.1166
     28 H13        -1.7265    0.1337    2.1970 H         1 <0>         0.1292
     29 H14        -2.4579   -1.7796    0.3807 H         1 <0>         0.2226
     30 H15        -3.2041   -4.8931    3.1030 H         1 <0>         0.2675
     31 H16        -3.4573   -4.0834    0.7540 H         1 <0>         0.4677
@<TRIPOS>BOND
     1    1    2 1
     2    1   17 1
     3    1   18 1
     4    1   19 1
     5    2    3 1
     6    2   20 1
     7    2   21 1
     8    3    7 1
     9    3    4 2
    10    4    5 1
    11    4   10 1
    12    5    6 2
    13    6    7 1
    14    6    8 1
    15    8    9 1
    16    8   22 1
    17    8   23 1
    18    9   24 1
    19    9   25 1
    20    9   26 1
    21   10   11 1
    22   10   27 1
    23   10   28 1
    24   11   15 1
    25   11   12 2
    26   12   13 1
    27   12   29 1
    28   13   14 2
    29   13   31 1
    30   14   15 1
    31   14   30 1
    32   15   16 1
@<TRIPOS>MOLECULE
ZINC00601265
   64    66     0     0     0
SMALL
USER_CHARGES

@<TRIPOS>ATOM
      1 C1         -0.0215    0.6123    0.1122 C.3       1 <0>        -0.1028
      2 C2         -0.3328   -0.8583    0.2189 C.2       1 <0>         0.3018
      3 C3         -1.6378   -1.2584    0.1811 C.2       1 <0>        -0.3963
      4 C4         -1.9198   -2.7457    0.2903 C.3       1 <0>         0.1349
      5 H1         -2.5640   -2.9077    1.1544 H         1 <0>         0.0448
      6 C5         -0.7020   -3.6417    0.4318 C.2       1 <0>        -0.3929
      7 C6         -0.8244   -5.0097    0.5393 C.2       1 <0>         0.4764
      8 O1         -2.0446   -5.5700    0.6539 O.3       1 <0>        -0.6396
      9 O2          0.2760   -5.7875    0.5297 O.3       1 <0>        -0.3314
     10 C7          0.0749   -7.1976    0.6450 C.3       1 <0>         0.0366
     11 C8          0.5471   -3.0185    0.4479 C.2       1 <0>         0.3009
     12 N1          0.6696   -1.7151    0.3403 N.2       1 <0>        -0.6384
     13 C9          1.7873   -3.8634    0.5863 C.3       1 <0>        -0.1107
     14 C10        -2.6737   -3.1738   -0.9424 C.ar      1 <0>        -0.0312
     15 C11        -2.1014   -3.0188   -2.1913 C.ar      1 <0>        -0.0531
     16 C12        -2.7929   -3.4114   -3.3218 C.ar      1 <0>        -0.1220
     17 C13        -4.0567   -3.9594   -3.2037 C.ar      1 <0>        -0.0746
     18 C14        -4.6284   -4.1152   -1.9550 C.ar      1 <0>        -0.0609
     19 C15        -3.9350   -3.7264   -0.8239 C.ar      1 <0>        -0.0265
     20 N2         -5.9817   -4.7014   -1.8286 N.pl3     1 <0>         0.0436
     21 O3         -6.5868   -5.0441   -2.8175 O.2       1 <0>        -0.1681
     22 O4         -6.4818   -4.8377   -0.7363 O.3       1 <0>        -0.1847
     23 C16        -2.6820   -0.3267    0.0465 C.2       1 <0>         0.5291
     24 O5         -2.4304    0.8619   -0.0389 O.2       1 <0>        -0.5459
     25 O6         -3.9642   -0.7498    0.0119 O.3       1 <0>        -0.3748
     26 C17        -4.9743    0.2516   -0.1266 C.3       1 <0>         0.0360
     27 C18        -6.3522   -0.4132   -0.1463 C.3       1 <0>        -0.0015
     28 N3         -6.5959   -1.0731    1.1433 N.4       1 <0>        -0.3855
     29 C19        -7.8507   -1.8339    1.0746 C.3       1 <0>        -0.0535
     30 C20        -6.6954   -0.0589    2.2013 C.3       1 <0>         0.0378
     31 C21        -6.8226   -0.7399    3.5396 C.ar      1 <0>        -0.1561
     32 C22        -8.0724   -1.0566    4.0380 C.ar      1 <0>        -0.0972
     33 C23        -8.1890   -1.6813    5.2657 C.ar      1 <0>        -0.1170
     34 C24        -7.0557   -1.9897    5.9947 C.ar      1 <0>        -0.0868
     35 C25        -5.8058   -1.6739    5.4958 C.ar      1 <0>        -0.1114
     36 C26        -5.6890   -1.0530    4.2663 C.ar      1 <0>        -0.0880
     37 H2          1.0578    0.7592    0.1541 H         1 <0>         0.0608
     38 H3         -0.4041    0.9971   -0.8331 H         1 <0>         0.0790
     39 H4         -0.4928    1.1444    0.9385 H         1 <0>         0.0783
     40 H5          1.0393   -7.7051    0.6239 H         1 <0>         0.0906
     41 H6         -0.4306   -7.4168    1.5855 H         1 <0>         0.0542
     42 H7         -0.5375   -7.5464   -0.1865 H         1 <0>         0.0522
     43 H8          1.8838   -4.5125   -0.2840 H         1 <0>         0.0828
     44 H9          2.6618   -3.2164    0.6558 H         1 <0>         0.0686
     45 H10         1.7134   -4.4724    1.4873 H         1 <0>         0.0808
     46 H11        -1.1142   -2.5907   -2.2836 H         1 <0>         0.1321
     47 H12        -2.3461   -3.2897   -4.2976 H         1 <0>         0.1399
     48 H13        -4.5973   -4.2655   -4.0871 H         1 <0>         0.1441
     49 H14        -4.3802   -3.8516    0.1521 H         1 <0>         0.1359
     50 H15        -4.9169    0.9441    0.7131 H         1 <0>         0.0840
     51 H16        -4.8204    0.7964   -1.0581 H         1 <0>         0.1046
     52 H17        -7.1181    0.3432   -0.3179 H         1 <0>         0.1451
     53 H18        -6.3871   -1.1534   -0.9456 H         1 <0>         0.1335
     54 H19        -8.6655   -1.1662    0.7945 H         1 <0>         0.1201
     55 H20        -7.7562   -2.6241    0.3298 H         1 <0>         0.1277
     56 H21        -8.0615   -2.2757    2.0485 H         1 <0>         0.1261
     57 H22        -5.8004    0.5631    2.1937 H         1 <0>         0.1352
     58 H23        -7.5724    0.5642    2.0260 H         1 <0>         0.1352
     59 H24        -8.9578   -0.8157    3.4685 H         1 <0>         0.1301
     60 H25        -9.1656   -1.9281    5.6554 H         1 <0>         0.1335
     61 H26        -7.1469   -2.4772    6.9541 H         1 <0>         0.1332
     62 H27        -4.9204   -1.9145    6.0655 H         1 <0>         0.1352
     63 H28        -4.7123   -0.8096    3.8748 H         1 <0>         0.1327
     64 H29        -5.8331   -1.7005    1.3495 H         1 <0>         0.4337
@<TRIPOS>BOND
     1    1    2 1
     2    1   37 1
     3    1   38 1
     4    1   39 1
     5    2   12 1
     6    2    3 2
     7    3    4 1
     8    3   23 1
     9    4    5 1
    10    4    6 1
    11    4   14 1
    12    6    7 2
    13    6   11 1
    14    7    8 1
    15    7    9 1
    16    9   10 1
    17   10   40 1
    18   10   41 1
    19   10   42 1
    20   11   12 2
    21   11   13 1
    22   13   43 1
    23   13   44 1
    24   13   45 1
    25   14   19 ar
    26   14   15 ar
    27   15   16 ar
    28   15   46 1
    29   16   17 ar
    30   16   47 1
    31   17   18 ar
    32   17   48 1
    33   18   19 ar
    34   18   20 1
    35   19   49 1
    36   20   21 2
    37   20   22 1
    38   23   24 2
    39   23   25 1
    40   25   26 1
    41   26   27 1
    42   26   50 1
    43   26   51 1
    44   27   28 1
    45   27   52 1
    46   27   53 1
    47   28   29 1
    48   28   30 1
    49   28   64 1
    50   29   54 1
    51   29   55 1
    52   29   56 1
    53   30   31 1
    54   30   57 1
    55   30   58 1
    56   31   36 ar
    57   31   32 ar
    58   32   33 ar
    59   32   59 1
    60   33   34 ar
    61   33   60 1
    62   34   35 ar
    63   34   61 1
    64   35   36 ar
    65   35   62 1
    66   36   63 1
@<TRIPOS>MOLECULE
ZINC00601265
   63    65     0     0     0
SMALL
USER_CHARGES

@<TRIPOS>ATOM
      1 C1          0.3477    0.3184   -0.5725 C.3       1 <0>        -0.0952
      2 C2          0.1335   -1.1442   -0.2795 C.2       1 <0>         0.2774
      3 C3         -1.1446   -1.6156   -0.1863 C.2       1 <0>        -0.3695
      4 C4         -1.3284   -3.0930    0.1092 C.3       1 <0>         0.1300
      5 H1         -1.9098   -3.1871    1.0264 H         1 <0>         0.0509
      6 C5         -0.0520   -3.8994    0.2716 C.2       1 <0>        -0.3955
      7 C6         -0.0842   -5.2500    0.5414 C.2       1 <0>         0.4702
      8 O1         -1.2599   -5.8592    0.7916 O.3       1 <0>        -0.6399
      9 O2          1.0600   -5.9618    0.5551 O.3       1 <0>        -0.3356
     10 C7          0.9523   -7.3575    0.8421 C.3       1 <0>         0.0382
     11 C8          1.1555   -3.2122    0.1352 C.2       1 <0>         0.2937
     12 N1          1.1917   -1.9257   -0.1273 N.2       1 <0>        -0.6436
     13 C9          2.4510   -3.9671    0.2873 C.3       1 <0>        -0.1041
     14 C10        -2.1258   -3.7024   -1.0150 C.ar      1 <0>        -0.0275
     15 C11        -1.6384   -3.6641   -2.3082 C.ar      1 <0>        -0.0603
     16 C12        -2.3697   -4.2230   -3.3393 C.ar      1 <0>        -0.1314
     17 C13        -3.5886   -4.8207   -3.0773 C.ar      1 <0>        -0.0813
     18 C14        -4.0755   -4.8597   -1.7844 C.ar      1 <0>        -0.0577
     19 C15        -3.3419   -4.3045   -0.7524 C.ar      1 <0>        -0.0011
     20 N2         -5.3807   -5.4991   -1.5041 N.pl3     1 <0>         0.0447
     21 O3         -6.0208   -5.9873   -2.4061 O.2       1 <0>        -0.1905
     22 O4         -5.8066   -5.5333   -0.3731 O.3       1 <0>        -0.1619
     23 C16        -2.2498   -0.7637   -0.3572 C.2       1 <0>         0.5224
     24 O5         -2.0766    0.4185   -0.5932 O.2       1 <0>        -0.5614
     25 O6         -3.5037   -1.2563   -0.2597 O.3       1 <0>        -0.3367
     26 C17        -4.5793   -0.3339   -0.4448 C.3       1 <0>         0.0766
     27 C18        -5.9129   -1.0696   -0.2988 C.3       1 <0>         0.0591
     28 N3         -6.0415   -1.5829    1.0716 N.3       1 <0>        -0.5218
     29 C19        -7.0931   -2.6053    1.1543 C.3       1 <0>         0.0213
     30 C20        -6.2931   -0.4908    2.0214 C.3       1 <0>         0.0901
     31 C21        -6.1754   -1.0131    3.4300 C.ar      1 <0>        -0.0729
     32 C22        -7.2871   -1.5253    4.0724 C.ar      1 <0>        -0.1145
     33 C23        -7.1792   -2.0044    5.3646 C.ar      1 <0>        -0.1243
     34 C24        -5.9594   -1.9717    6.0142 C.ar      1 <0>        -0.1221
     35 C25        -4.8475   -1.4604    5.3715 C.ar      1 <0>        -0.1196
     36 C26        -4.9545   -0.9852    4.0778 C.ar      1 <0>        -0.0918
     37 H2          1.4166    0.5270   -0.6182 H         1 <0>         0.0535
     38 H3         -0.1125    0.5687   -1.5284 H         1 <0>         0.0754
     39 H4         -0.1059    0.9174    0.2171 H         1 <0>         0.0758
     40 H5          0.3195   -7.8346    0.0937 H         1 <0>         0.0497
     41 H6          1.9436   -7.8102    0.8217 H         1 <0>         0.0850
     42 H7          0.5116   -7.4924    1.8299 H         1 <0>         0.0518
     43 H8          2.5271   -4.7200   -0.4972 H         1 <0>         0.0784
     44 H9          3.2875   -3.2730    0.2072 H         1 <0>         0.0632
     45 H10         2.4752   -4.4544    1.2621 H         1 <0>         0.0765
     46 H11        -0.6862   -3.1972   -2.5128 H         1 <0>         0.1274
     47 H12        -1.9893   -4.1925   -4.3496 H         1 <0>         0.1333
     48 H13        -4.1604   -5.2567   -3.8831 H         1 <0>         0.1382
     49 H14        -3.7206   -4.3382    0.2585 H         1 <0>         0.1450
     50 H15        -4.5151    0.4542    0.3054 H         1 <0>         0.0587
     51 H16        -4.5139    0.1056   -1.4401 H         1 <0>         0.0592
     52 H17        -6.7321   -0.3816   -0.5074 H         1 <0>         0.0507
     53 H18        -5.9482   -1.9009   -1.0029 H         1 <0>         0.0787
     54 H19        -6.8349   -3.4450    0.5091 H         1 <0>         0.0773
     55 H20        -7.1825   -2.9521    2.1837 H         1 <0>         0.0740
     56 H21        -8.0421   -2.1773    0.8314 H         1 <0>         0.0179
     57 H22        -5.5616    0.3020    1.8655 H         1 <0>         0.0819
     58 H23        -7.2965   -0.0956    1.8630 H         1 <0>         0.0391
     59 H24        -8.2401   -1.5509    3.5649 H         1 <0>         0.1162
     60 H25        -8.0479   -2.4039    5.8668 H         1 <0>         0.1180
     61 H26        -5.8752   -2.3454    7.0240 H         1 <0>         0.1178
     62 H27        -3.8946   -1.4345    5.8792 H         1 <0>         0.1204
     63 H28        -4.0850   -0.5892    3.5743 H         1 <0>         0.1223
@<TRIPOS>BOND
     1    1    2 1
     2    1   37 1
     3    1   38 1
     4    1   39 1
     5    2   12 1
     6    2    3 2
     7    3    4 1
     8    3   23 1
     9    4    5 1
    10    4    6 1
    11    4   14 1
    12    6    7 2
    13    6   11 1
    14    7    8 1
    15    7    9 1
    16    9   10 1
    17   10   40 1
    18   10   41 1
    19   10   42 1
    20   11   12 2
    21   11   13 1
    22   13   43 1
    23   13   44 1
    24   13   45 1
    25   14   19 ar
    26   14   15 ar
    27   15   16 ar
    28   15   46 1
    29   16   17 ar
    30   16   47 1
    31   17   18 ar
    32   17   48 1
    33   18   19 ar
    34   18   20 1
    35   19   49 1
    36   20   21 2
    37   20   22 1
    38   23   24 2
    39   23   25 1
    40   25   26 1
    41   26   27 1
    42   26   50 1
    43   26   51 1
    44   27   28 1
    45   27   52 1
    46   27   53 1
    47   28   29 1
    48   28   30 1
    49   29   54 1
    50   29   55 1
    51   29   56 1
    52   30   31 1
    53   30   57 1
    54   30   58 1
    55   31   36 ar
    56   31   32 ar
    57   32   33 ar
    58   32   59 1
    59   33   34 ar
    60   33   60 1
    61   34   35 ar
    62   34   61 1
    63   35   36 ar
    64   35   62 1
    65   36   63 1
@<TRIPOS>MOLECULE
ZINC00601265
   63    65     0     0     0
SMALL
USER_CHARGES

@<TRIPOS>ATOM
      1 C1         -0.1447    1.4930    0.1304 C.3       1 <0>        -0.0959
      2 C2         -0.0591   -0.0099    0.0595 C.2       1 <0>         0.2818
      3 C3         -1.2163   -0.7321   -0.0018 C.2       1 <0>        -0.3765
      4 C4         -1.0979   -2.2435   -0.0729 C.3       1 <0>         0.1154
      5 H1         -1.6327   -2.6674    0.7770 H         1 <0>         0.0503
      6 C5          0.3158   -2.7977   -0.0682 C.2       1 <0>        -0.3978
      7 C6          0.5572   -4.1527   -0.1294 C.2       1 <0>         0.4742
      8 O1          1.8205   -4.6076   -0.2441 O.3       1 <0>        -0.6458
      9 O2         -0.4701   -5.0232   -0.0744 O.3       1 <0>        -0.3361
     10 C7         -0.1467   -6.4134   -0.1432 C.3       1 <0>         0.0434
     11 C8          1.3603   -1.8740    0.0004 C.2       1 <0>         0.3161
     12 N1          1.1357   -0.5809    0.0534 N.2       1 <0>        -0.6451
     13 C9          2.7823   -2.3730    0.0080 C.3       1 <0>        -0.0919
     14 C10        -1.7783   -2.7103   -1.3340 C.ar      1 <0>        -0.0335
     15 C11        -1.3310   -2.2679   -2.5651 C.ar      1 <0>        -0.0540
     16 C12        -1.9550   -2.6960   -3.7217 C.ar      1 <0>        -0.1278
     17 C13        -3.0261   -3.5670   -3.6476 C.ar      1 <0>        -0.0789
     18 C14        -3.4727   -4.0100   -2.4168 C.ar      1 <0>        -0.0571
     19 C15        -2.8458   -3.5851   -1.2601 C.ar      1 <0>        -0.0180
     20 N2         -4.6198   -4.9421   -2.3374 N.pl3     1 <0>         0.0451
     21 O3         -5.1661   -5.3159   -3.3491 O.2       1 <0>        -0.1871
     22 O4         -5.0104   -5.3296   -1.2609 O.3       1 <0>        -0.1641
     23 C16        -2.4715   -0.0988    0.0013 C.2       1 <0>         0.5223
     24 O5         -2.5407    1.1158    0.0595 O.2       1 <0>        -0.5622
     25 O6         -3.6007   -0.8374   -0.0601 O.3       1 <0>        -0.3389
     26 C17        -4.8411   -0.1280   -0.0529 C.3       1 <0>         0.0759
     27 C18        -5.9993   -1.1249   -0.1277 C.3       1 <0>         0.0599
     28 N3         -6.0156   -1.9487    1.0885 N.3       1 <0>        -0.5221
     29 C19        -6.3302   -1.1356    2.2708 C.3       1 <0>         0.0183
     30 C20        -6.9574   -3.0680    0.9536 C.3       1 <0>         0.0949
     31 C21        -6.7714   -4.0224    2.1049 C.ar      1 <0>        -0.0741
     32 C22        -5.8690   -5.0643    2.0001 C.ar      1 <0>        -0.0860
     33 C23        -5.6984   -5.9399    3.0561 C.ar      1 <0>        -0.1208
     34 C24        -6.4299   -5.7732    4.2172 C.ar      1 <0>        -0.1230
     35 C25        -7.3317   -4.7308    4.3223 C.ar      1 <0>        -0.1286
     36 C26        -7.4991   -3.8527    3.2679 C.ar      1 <0>        -0.1172
     37 H2          0.8605    1.9128    0.1687 H         1 <0>         0.0540
     38 H3         -0.6623    1.8695   -0.7519 H         1 <0>         0.0755
     39 H4         -0.6942    1.7838    1.0257 H         1 <0>         0.0760
     40 H5          0.5050   -6.6765    0.6899 H         1 <0>         0.0524
     41 H6         -1.0622   -7.0025   -0.0885 H         1 <0>         0.0837
     42 H7          0.3636   -6.6217   -1.0836 H         1 <0>         0.0491
     43 H8          2.9907   -2.8906   -0.9284 H         1 <0>         0.0816
     44 H9          3.4631   -1.5287    0.1158 H         1 <0>         0.0493
     45 H10         2.9215   -3.0608    0.8421 H         1 <0>         0.0790
     46 H11        -0.4943   -1.5875   -2.6231 H         1 <0>         0.1294
     47 H12        -1.6061   -2.3498   -4.6834 H         1 <0>         0.1350
     48 H13        -3.5141   -3.9010   -4.5513 H         1 <0>         0.1397
     49 H14        -3.1923   -3.9342   -0.2986 H         1 <0>         0.1456
     50 H15        -4.9215    0.4541    0.8652 H         1 <0>         0.0605
     51 H16        -4.8819    0.5414   -0.9122 H         1 <0>         0.0590
     52 H17        -6.9409   -0.5823   -0.2117 H         1 <0>         0.0491
     53 H18        -5.8706   -1.7666   -0.9994 H         1 <0>         0.0778
     54 H19        -7.3112   -0.6772    2.1460 H         1 <0>         0.0209
     55 H20        -6.3358   -1.7701    3.1571 H         1 <0>         0.0737
     56 H21        -5.5771   -0.3562    2.3867 H         1 <0>         0.0689
     57 H22        -7.9784   -2.6865    0.9592 H         1 <0>         0.0369
     58 H23        -6.7696   -3.5897    0.0152 H         1 <0>         0.0861
     59 H24        -5.2975   -5.1945    1.0930 H         1 <0>         0.1362
     60 H25        -4.9939   -6.7543    2.9740 H         1 <0>         0.1204
     61 H26        -6.2972   -6.4577    5.0420 H         1 <0>         0.1161
     62 H27        -7.9035   -4.6008    5.2293 H         1 <0>         0.1156
     63 H28        -8.2009   -3.0361    3.3514 H         1 <0>         0.1134
@<TRIPOS>BOND
     1    1    2 1
     2    1   37 1
     3    1   38 1
     4    1   39 1
     5    2   12 1
     6    2    3 2
     7    3    4 1
     8    3   23 1
     9    4    5 1
    10    4    6 1
    11    4   14 1
    12    6    7 2
    13    6   11 1
    14    7    8 1
    15    7    9 1
    16    9   10 1
    17   10   40 1
    18   10   41 1
    19   10   42 1
    20   11   12 2
    21   11   13 1
    22   13   43 1
    23   13   44 1
    24   13   45 1
    25   14   19 ar
    26   14   15 ar
    27   15   16 ar
    28   15   46 1
    29   16   17 ar
    30   16   47 1
    31   17   18 ar
    32   17   48 1
    33   18   19 ar
    34   18   20 1
    35   19   49 1
    36   20   21 2
    37   20   22 1
    38   23   24 2
    39   23   25 1
    40   25   26 1
    41   26   27 1
    42   26   50 1
    43   26   51 1
    44   27   28 1
    45   27   52 1
    46   27   53 1
    47   28   29 1
    48   28   30 1
    49   29   54 1
    50   29   55 1
    51   29   56 1
    52   30   31 1
    53   30   57 1
    54   30   58 1
    55   31   36 ar
    56   31   32 ar
    57   32   33 ar
    58   32   59 1
    59   33   34 ar
    60   33   60 1
    61   34   35 ar
    62   34   61 1
    63   35   36 ar
    64   35   62 1
    65   36   63 1
@<TRIPOS>MOLECULE
ZINC00601265
   63    65     0     0     0
SMALL
USER_CHARGES

@<TRIPOS>ATOM
      1 C1          2.1844    2.5720   -0.5351 C.3       1 <0>        -0.0963
      2 C2          1.8111    1.1121   -0.5586 C.2       1 <0>         0.2822
      3 C3          0.5003    0.7714   -0.7317 C.2       1 <0>        -0.3777
      4 C4          0.1555   -0.7065   -0.7514 C.3       1 <0>         0.1288
      5 H1         -0.3264   -0.9311   -1.7030 H         1 <0>         0.0459
      6 C5          1.3231   -1.6611   -0.5740 C.2       1 <0>        -0.3946
      7 C6          1.1417   -3.0267   -0.5739 C.2       1 <0>         0.4728
      8 O1         -0.1032   -3.5411   -0.6154 O.3       1 <0>        -0.6448
      9 O2          2.2091   -3.8482   -0.5325 O.3       1 <0>        -0.3142
     10 C7          1.9543   -5.2495   -0.6494 C.3       1 <0>         0.0740
     11 C8          3.2618   -6.0226   -0.4659 C.3       1 <0>         0.0568
     12 N1          4.1676   -5.7250   -1.5834 N.3       1 <0>        -0.5256
     13 C9          3.7300   -6.4030   -2.8108 C.3       1 <0>         0.0173
     14 C10         5.5522   -6.0840   -1.2487 C.3       1 <0>         0.0938
     15 C11         6.4806   -5.5452   -2.3064 C.ar      1 <0>        -0.0753
     16 C12         6.7875   -6.3141   -3.4134 C.ar      1 <0>        -0.1161
     17 C13         7.6391   -5.8198   -4.3837 C.ar      1 <0>        -0.1247
     18 C14         8.1834   -4.5565   -4.2471 C.ar      1 <0>        -0.1224
     19 C15         7.8757   -3.7872   -3.1406 C.ar      1 <0>        -0.1199
     20 C16         7.0208   -4.2798   -2.1725 C.ar      1 <0>        -0.0931
     21 C17         2.5884   -1.0942   -0.4114 C.2       1 <0>         0.2970
     22 N2          2.7674    0.2071   -0.4161 N.2       1 <0>        -0.6442
     23 C18         3.7804   -1.9985   -0.2315 C.3       1 <0>        -0.1018
     24 C19        -0.8373   -0.9732    0.3505 C.ar      1 <0>        -0.0218
     25 C20        -0.5016   -0.7021    1.6640 C.ar      1 <0>        -0.0597
     26 C21        -1.4122   -0.9467    2.6746 C.ar      1 <0>        -0.1294
     27 C22        -2.6589   -1.4620    2.3720 C.ar      1 <0>        -0.0809
     28 C23        -2.9949   -1.7322    1.0588 C.ar      1 <0>        -0.0554
     29 C24        -2.0855   -1.4835    0.0474 C.ar      1 <0>        -0.0069
     30 N3         -4.3294   -2.2845    0.7349 N.pl3     1 <0>         0.0445
     31 O3         -5.1256   -2.4992    1.6190 O.2       1 <0>        -0.1855
     32 O4         -4.6233   -2.5208   -0.4138 O.3       1 <0>        -0.1687
     33 C25        -0.4937    1.7537   -0.8854 C.2       1 <0>         0.5216
     34 O5         -0.1922    2.9335   -0.8656 O.2       1 <0>        -0.5579
     35 O6         -1.7831    1.3889   -1.0551 O.3       1 <0>        -0.3600
     36 C26        -2.7402    2.4394   -1.2050 C.3       1 <0>         0.0413
     37 H2          3.2609    2.6695   -0.3945 H         1 <0>         0.0545
     38 H3          1.8978    3.0355   -1.4791 H         1 <0>         0.0763
     39 H4          1.6644    3.0668    0.2852 H         1 <0>         0.0753
     40 H5          1.2414   -5.5543    0.1167 H         1 <0>         0.0643
     41 H6          1.5414   -5.4626   -1.6354 H         1 <0>         0.0590
     42 H7          3.7313   -5.7251    0.4717 H         1 <0>         0.0834
     43 H8          3.0515   -7.0919   -0.4436 H         1 <0>         0.0518
     44 H9          2.7493   -6.0278   -3.1033 H         1 <0>         0.0702
     45 H10         4.4464   -6.2080   -3.6088 H         1 <0>         0.0728
     46 H11         3.6695   -7.4764   -2.6311 H         1 <0>         0.0227
     47 H12         5.8152   -5.6551   -0.2817 H         1 <0>         0.0845
     48 H13         5.6451   -7.1690   -1.2022 H         1 <0>         0.0392
     49 H14         6.3623   -7.3011   -3.5201 H         1 <0>         0.1159
     50 H15         7.8795   -6.4208   -5.2482 H         1 <0>         0.1178
     51 H16         8.8493   -4.1706   -5.0048 H         1 <0>         0.1181
     52 H17         8.3012   -2.8003   -3.0338 H         1 <0>         0.1216
     53 H18         6.7774   -3.6773   -1.3098 H         1 <0>         0.1257
     54 H19         3.9161   -2.6034   -1.1280 H         1 <0>         0.0892
     55 H20         4.6721   -1.3950   -0.0620 H         1 <0>         0.0588
     56 H21         3.6152   -2.6513    0.6256 H         1 <0>         0.0734
     57 H22         0.4722   -0.2995    1.9004 H         1 <0>         0.1272
     58 H23        -1.1497   -0.7355    3.7007 H         1 <0>         0.1337
     59 H24        -3.3702   -1.6538    3.1617 H         1 <0>         0.1390
     60 H25        -2.3494   -1.6912   -0.9791 H         1 <0>         0.1407
     61 H26        -3.7338    2.0101   -1.3331 H         1 <0>         0.0861
     62 H27        -2.7289    3.0708   -0.3165 H         1 <0>         0.0486
     63 H28        -2.4878    3.0387   -2.0798 H         1 <0>         0.0509
@<TRIPOS>BOND
     1    1    2 1
     2    1   37 1
     3    1   38 1
     4    1   39 1
     5    2   22 1
     6    2    3 2
     7    3    4 1
     8    3   33 1
     9    4    5 1
    10    4    6 1
    11    4   24 1
    12    6    7 2
    13    6   21 1
    14    7    8 1
    15    7    9 1
    16    9   10 1
    17   10   11 1
    18   10   40 1
    19   10   41 1
    20   11   12 1
    21   11   42 1
    22   11   43 1
    23   12   13 1
    24   12   14 1
    25   13   44 1
    26   13   45 1
    27   13   46 1
    28   14   15 1
    29   14   47 1
    30   14   48 1
    31   15   20 ar
    32   15   16 ar
    33   16   17 ar
    34   16   49 1
    35   17   18 ar
    36   17   50 1
    37   18   19 ar
    38   18   51 1
    39   19   20 ar
    40   19   52 1
    41   20   53 1
    42   21   22 2
    43   21   23 1
    44   23   54 1
    45   23   55 1
    46   23   56 1
    47   24   29 ar
    48   24   25 ar
    49   25   26 ar
    50   25   57 1
    51   26   27 ar
    52   26   58 1
    53   27   28 ar
    54   27   59 1
    55   28   29 ar
    56   28   30 1
    57   29   60 1
    58   30   31 2
    59   30   32 1
    60   33   34 2
    61   33   35 1
    62   35   36 1
    63   36   61 1
    64   36   62 1
    65   36   63 1
@<TRIPOS>MOLECULE
ZINC19796087
   65    67     0     0     0
SMALL
USER_CHARGES

@<TRIPOS>ATOM
      1 C1          0.7782    1.5823    1.6623 C.3       1 <0>        -0.1212
      2 C2          0.7333    0.1247    1.2822 C.2       1 <0>         0.2410
      3 C3         -0.4478   -0.4515    0.9991 C.2       1 <0>        -0.2540
      4 C4         -0.5393   -1.8991    0.6077 C.3       1 <0>         0.0879
      5 H1         -1.3770   -2.3601    1.1311 H         1 <0>         0.1033
      6 C5          0.7263   -2.6270    0.9620 C.2       1 <0>        -0.2441
      7 C6          1.8602   -1.9635    1.2466 C.2       1 <0>         0.2018
      8 N1          1.8957   -0.5946    1.2241 N.pl3     1 <0>        -0.6286
      9 C7          3.1084   -2.7355    1.5887 C.3       1 <0>        -0.1352
     10 C8          0.7246   -4.0407    0.9973 C.2       1 <0>         0.5449
     11 O1          0.1953   -4.6255    1.9239 O.2       1 <0>        -0.4703
     12 O2          1.3099   -4.7412    0.0034 O.3       1 <0>        -0.3657
     13 C9          1.3697   -6.1605    0.1581 C.3       1 <0>         0.0268
     14 C10         2.1674   -6.7665   -0.9984 C.3       1 <0>        -0.0026
     15 N2          3.5533   -6.2825   -0.9440 N.4       1 <0>        -0.3868
     16 C11         4.2074   -6.8053    0.2630 C.3       1 <0>        -0.0595
     17 C12         4.2803   -6.7442   -2.1340 C.3       1 <0>         0.0430
     18 C13         5.6576   -6.1328   -2.1499 C.ar      1 <0>        -0.1619
     19 C14         5.8461   -4.8675   -2.6738 C.ar      1 <0>        -0.0964
     20 C15         7.1095   -4.3067   -2.6884 C.ar      1 <0>        -0.1131
     21 C16         8.1843   -5.0109   -2.1786 C.ar      1 <0>        -0.0834
     22 C17         7.9956   -6.2758   -1.6538 C.ar      1 <0>        -0.1132
     23 C18         6.7315   -6.8349   -1.6353 C.ar      1 <0>        -0.0931
     24 C19        -0.7680   -1.9978   -0.8785 C.ar      1 <0>        -0.0751
     25 C20         0.1118   -1.3903   -1.7552 C.ar      1 <0>        -0.0538
     26 C21        -0.0980   -1.4808   -3.1183 C.ar      1 <0>        -0.1162
     27 C22        -1.1873   -2.1792   -3.6052 C.ar      1 <0>        -0.0554
     28 C23        -2.0663   -2.7872   -2.7289 C.ar      1 <0>        -0.0434
     29 C24        -1.8541   -2.7003   -1.3655 C.ar      1 <0>        -0.0412
     30 N3         -3.2328   -3.5345   -3.2502 N.pl3     1 <0>         0.0293
     31 O3         -3.3658   -3.6934   -4.4413 O.2       1 <0>        -0.1536
     32 O4         -4.0526   -3.9860   -2.4849 O.3       1 <0>        -0.1516
     33 C25        -1.6297    0.3216    1.0717 C.2       1 <0>         0.5149
     34 O5         -1.5706    1.4952    1.3877 O.2       1 <0>        -0.5108
     35 O6         -2.8231   -0.2423    0.7905 O.3       1 <0>        -0.3516
     36 C26        -3.9755    0.5975    0.8839 C.3       1 <0>         0.0353
     37 H2          1.8105    1.8770    1.8509 H         1 <0>         0.0676
     38 H3          0.3719    2.1827    0.8483 H         1 <0>         0.1065
     39 H4          0.1846    1.7415    2.5625 H         1 <0>         0.1091
     40 H5          2.7471   -0.1328    1.1708 H         1 <0>         0.4275
     41 H6          3.7035   -2.8821    0.6873 H         1 <0>         0.0911
     42 H7          3.6910   -2.1779    2.3220 H         1 <0>         0.0956
     43 H8          2.8336   -3.7050    2.0043 H         1 <0>         0.0811
     44 H9          1.8576   -6.4028    1.1022 H         1 <0>         0.0947
     45 H10         0.3592   -6.5692    0.1560 H         1 <0>         0.1179
     46 H11         2.1585   -7.8533   -0.9158 H         1 <0>         0.1538
     47 H12         1.7161   -6.4704   -1.9454 H         1 <0>         0.1435
     48 H13         3.6679   -6.4627    1.1460 H         1 <0>         0.1210
     49 H14         4.2039   -7.8949    0.2351 H         1 <0>         0.1279
     50 H15         5.2358   -6.4462    0.3034 H         1 <0>         0.1275
     51 H16         4.3653   -7.8306   -2.1090 H         1 <0>         0.1383
     52 H17         3.7386   -6.4427   -3.0305 H         1 <0>         0.1383
     53 H18         5.0064   -4.3174   -3.0721 H         1 <0>         0.1300
     54 H19         7.2569   -3.3185   -3.0983 H         1 <0>         0.1357
     55 H20         9.1714   -4.5730   -2.1906 H         1 <0>         0.1360
     56 H21         8.8353   -6.8261   -1.2558 H         1 <0>         0.1366
     57 H22         6.5834   -7.8216   -1.2220 H         1 <0>         0.1320
     58 H23         0.9627   -0.8448   -1.3748 H         1 <0>         0.1320
     59 H24         0.5889   -1.0057   -3.8031 H         1 <0>         0.1474
     60 H25        -1.3516   -2.2493   -4.6704 H         1 <0>         0.1544
     61 H26        -2.5389   -3.1786   -0.6808 H         1 <0>         0.1527
     62 H27        -4.8662    0.0214    0.6331 H         1 <0>         0.1038
     63 H28        -4.0647    0.9802    1.9006 H         1 <0>         0.0637
     64 H29        -3.8747    1.4314    0.1893 H         1 <0>         0.0611
     65 H30         3.5565   -5.2738   -0.9182 H         1 <0>         0.4270
@<TRIPOS>BOND
     1    1    2 1
     2    1   37 1
     3    1   38 1
     4    1   39 1
     5    2    8 1
     6    2    3 2
     7    3    4 1
     8    3   33 1
     9    4    5 1
    10    4    6 1
    11    4   24 1
    12    6    7 2
    13    6   10 1
    14    7    8 1
    15    7    9 1
    16    8   40 1
    17    9   41 1
    18    9   42 1
    19    9   43 1
    20   10   11 2
    21   10   12 1
    22   12   13 1
    23   13   14 1
    24   13   44 1
    25   13   45 1
    26   14   15 1
    27   14   46 1
    28   14   47 1
    29   15   16 1
    30   15   17 1
    31   15   65 1
    32   16   48 1
    33   16   49 1
    34   16   50 1
    35   17   18 1
    36   17   51 1
    37   17   52 1
    38   18   23 ar
    39   18   19 ar
    40   19   20 ar
    41   19   53 1
    42   20   21 ar
    43   20   54 1
    44   21   22 ar
    45   21   55 1
    46   22   23 ar
    47   22   56 1
    48   23   57 1
    49   24   29 ar
    50   24   25 ar
    51   25   26 ar
    52   25   58 1
    53   26   27 ar
    54   26   59 1
    55   27   28 ar
    56   27   60 1
    57   28   29 ar
    58   28   30 1
    59   29   61 1
    60   30   31 2
    61   30   32 1
    62   33   34 2
    63   33   35 1
    64   35   36 1
    65   36   62 1
    66   36   63 1
    67   36   64 1
@<TRIPOS>MOLECULE
ZINC19796087
   63    65     0     0     0
SMALL
USER_CHARGES

@<TRIPOS>ATOM
      1 C1          0.2573    1.4152   -0.0519 C.3       1 <0>        -0.0967
      2 C2         -0.2176    0.0503   -0.4791 C.2       1 <0>         0.2779
      3 C3         -1.5528   -0.1459   -0.6868 C.2       1 <0>        -0.3722
      4 C4         -2.0005   -1.5309   -1.1169 C.3       1 <0>         0.1293
      5 H1         -2.5192   -1.4401   -2.0713 H         1 <0>         0.0469
      6 C5         -0.8987   -2.5643   -1.2722 C.2       1 <0>        -0.3956
      7 C6         -1.1751   -3.8576   -1.6580 C.2       1 <0>         0.4704
      8 O1         -2.4249   -4.1970   -2.0308 O.3       1 <0>        -0.6403
      9 O2         -0.1958   -4.7833   -1.6627 O.3       1 <0>        -0.3354
     10 C7         -0.5536   -6.1042   -2.0741 C.3       1 <0>         0.0383
     11 C8          0.4067   -2.1462   -1.0074 C.2       1 <0>         0.2947
     12 N1          0.6761   -0.9128   -0.6445 N.2       1 <0>        -0.6433
     13 C9          1.5364   -3.1338   -1.1470 C.3       1 <0>        -0.1042
     14 C10        -2.9833   -2.0459   -0.0972 C.ar      1 <0>        -0.0269
     15 C11        -2.6681   -2.0061    1.2484 C.ar      1 <0>        -0.0551
     16 C12        -3.5695   -2.4784    2.1836 C.ar      1 <0>        -0.1253
     17 C13        -4.7867   -2.9903    1.7736 C.ar      1 <0>        -0.0781
     18 C14        -5.1021   -3.0293    0.4285 C.ar      1 <0>        -0.0522
     19 C15        -4.2022   -2.5529   -0.5067 C.ar      1 <0>        -0.0028
     20 N2         -6.4050   -3.5778   -0.0105 N.pl3     1 <0>         0.0445
     21 O3         -7.2078   -3.9583    0.8094 O.2       1 <0>        -0.1831
     22 O4         -6.6662   -3.6454   -1.1890 O.3       1 <0>        -0.1704
     23 C16        -2.4790    0.8965   -0.5082 C.2       1 <0>         0.5253
     24 O5         -2.0869    2.0281   -0.2864 O.2       1 <0>        -0.5595
     25 O6         -3.8036    0.6432   -0.5826 O.3       1 <0>        -0.3439
     26 C17        -4.6838    1.7670   -0.5165 C.3       1 <0>         0.0756
     27 C18        -6.1340    1.2794   -0.5129 C.3       1 <0>         0.0550
     28 N3         -6.4989    0.8385    0.8401 N.3       1 <0>        -0.5271
     29 C19        -6.5712    1.9785    1.7637 C.3       1 <0>         0.0190
     30 C20        -7.7632    0.0906    0.8269 C.3       1 <0>         0.0962
     31 C21        -8.0622   -0.4152    2.2147 C.ar      1 <0>        -0.0800
     32 C22        -7.4894   -1.5919    2.6597 C.ar      1 <0>        -0.0918
     33 C23        -7.7636   -2.0558    3.9327 C.ar      1 <0>        -0.1178
     34 C24        -8.6102   -1.3428    4.7608 C.ar      1 <0>        -0.1208
     35 C25        -9.1823   -0.1656    4.3160 C.ar      1 <0>        -0.1273
     36 C26        -8.9047    0.3006    3.0446 C.ar      1 <0>        -0.1152
     37 H2          1.3410    1.4028    0.0648 H         1 <0>         0.0543
     38 H3         -0.0183    2.1493   -0.8090 H         1 <0>         0.0801
     39 H4         -0.2073    1.6808    0.8977 H         1 <0>         0.0718
     40 H5         -0.9348   -6.0760   -3.0949 H         1 <0>         0.0520
     41 H6          0.3248   -6.7483   -2.0319 H         1 <0>         0.0850
     42 H7         -1.3235   -6.4957   -1.4093 H         1 <0>         0.0499
     43 H8          1.5221   -3.5628   -2.1489 H         1 <0>         0.0772
     44 H9          2.4862   -2.6248   -0.9832 H         1 <0>         0.0634
     45 H10         1.4178   -3.9280   -0.4100 H         1 <0>         0.0782
     46 H11        -1.7174   -1.6062    1.5687 H         1 <0>         0.1253
     47 H12        -3.3230   -2.4479    3.2346 H         1 <0>         0.1313
     48 H13        -5.4907   -3.3600    2.5043 H         1 <0>         0.1365
     49 H14        -4.4502   -2.5799   -1.5575 H         1 <0>         0.1417
     50 H15        -4.4872    2.3293    0.3963 H         1 <0>         0.0653
     51 H16        -4.5186    2.4092   -1.3816 H         1 <0>         0.0596
     52 H17        -6.7916    2.0928   -0.8196 H         1 <0>         0.0512
     53 H18        -6.2389    0.4459   -1.2073 H         1 <0>         0.0865
     54 H19        -7.3233    2.6844    1.4115 H         1 <0>         0.0227
     55 H20        -6.8431    1.6239    2.7579 H         1 <0>         0.0724
     56 H21        -5.6008    2.4730    1.8072 H         1 <0>         0.0694
     57 H22        -8.5696    0.7459    0.4975 H         1 <0>         0.0405
     58 H23        -7.6788   -0.7538    0.1428 H         1 <0>         0.0767
     59 H24        -6.8280   -2.1490    2.0128 H         1 <0>         0.1305
     60 H25        -7.3167   -2.9756    4.2802 H         1 <0>         0.1204
     61 H26        -8.8250   -1.7056    5.7551 H         1 <0>         0.1179
     62 H27        -9.8440    0.3913    4.9629 H         1 <0>         0.1173
     63 H28        -9.3487    1.2223    2.6985 H         1 <0>         0.1146
@<TRIPOS>BOND
     1    1    2 1
     2    1   37 1
     3    1   38 1
     4    1   39 1
     5    2   12 1
     6    2    3 2
     7    3    4 1
     8    3   23 1
     9    4    5 1
    10    4    6 1
    11    4   14 1
    12    6    7 2
    13    6   11 1
    14    7    8 1
    15    7    9 1
    16    9   10 1
    17   10   40 1
    18   10   41 1
    19   10   42 1
    20   11   12 2
    21   11   13 1
    22   13   43 1
    23   13   44 1
    24   13   45 1
    25   14   19 ar
    26   14   15 ar
    27   15   16 ar
    28   15   46 1
    29   16   17 ar
    30   16   47 1
    31   17   18 ar
    32   17   48 1
    33   18   19 ar
    34   18   20 1
    35   19   49 1
    36   20   21 2
    37   20   22 1
    38   23   24 2
    39   23   25 1
    40   25   26 1
    41   26   27 1
    42   26   50 1
    43   26   51 1
    44   27   28 1
    45   27   52 1
    46   27   53 1
    47   28   29 1
    48   28   30 1
    49   29   54 1
    50   29   55 1
    51   29   56 1
    52   30   31 1
    53   30   57 1
    54   30   58 1
    55   31   36 ar
    56   31   32 ar
    57   32   33 ar
    58   32   59 1
    59   33   34 ar
    60   33   60 1
    61   34   35 ar
    62   34   61 1
    63   35   36 ar
    64   35   62 1
    65   36   63 1
@<TRIPOS>MOLECULE
ZINC19796087
   63    65     0     0     0
SMALL
USER_CHARGES

@<TRIPOS>ATOM
      1 C1          1.3947   -0.2351    1.5837 C.3       1 <0>        -0.0963
      2 C2          1.2348   -1.7274    1.7190 C.2       1 <0>         0.2813
      3 C3         -0.0098   -2.2708    1.5772 C.2       1 <0>        -0.3767
      4 C4         -0.1389   -3.7765    1.7183 C.3       1 <0>         0.1156
      5 H1         -0.5632   -4.1700    0.7946 H         1 <0>         0.0509
      6 C5          1.1491   -4.5272    2.0064 C.2       1 <0>        -0.3974
      7 C6          1.1651   -5.8967    2.1559 C.2       1 <0>         0.4735
      8 O1          2.3097   -6.5247    2.4900 O.3       1 <0>        -0.6459
      9 O2          0.0362   -6.6082    1.9680 O.3       1 <0>        -0.3360
     10 C7          0.1256   -8.0241    2.1395 C.3       1 <0>         0.0433
     11 C8          2.3165   -3.7691    2.1128 C.2       1 <0>         0.3164
     12 N1          2.3075   -2.4638    1.9658 N.2       1 <0>        -0.6451
     13 C9          3.6215   -4.4667    2.3979 C.3       1 <0>        -0.0918
     14 C10        -1.1068   -4.0632    2.8373 C.ar      1 <0>        -0.0333
     15 C11        -0.8840   -3.5364    4.0960 C.ar      1 <0>        -0.0545
     16 C12        -1.7717   -3.7994    5.1222 C.ar      1 <0>        -0.1270
     17 C13        -2.8828   -4.5887    4.8899 C.ar      1 <0>        -0.0788
     18 C14        -3.1060   -5.1146    3.6314 C.ar      1 <0>        -0.0570
     19 C15        -2.2203   -4.8480    2.6038 C.ar      1 <0>        -0.0205
     20 N2         -4.2952   -5.9601    3.3828 N.pl3     1 <0>         0.0438
     21 O3         -5.1137   -6.1242    4.2574 O.2       1 <0>        -0.1858
     22 O4         -4.4480   -6.4866    2.3053 O.3       1 <0>        -0.1636
     23 C16        -1.1306   -1.4651    1.3105 C.2       1 <0>         0.5231
     24 O5         -1.0153   -0.2531    1.2774 O.2       1 <0>        -0.5621
     25 O6         -2.3353   -2.0352    1.0911 O.3       1 <0>        -0.3397
     26 C17        -3.4202   -1.1592    0.7785 C.3       1 <0>         0.0787
     27 C18        -4.6950   -1.9797    0.5726 C.3       1 <0>         0.0587
     28 N3         -4.5394   -2.8381   -0.6093 N.3       1 <0>        -0.5241
     29 C19        -4.6425   -2.0536   -1.8470 C.3       1 <0>         0.0209
     30 C20        -5.5183   -3.9333   -0.5972 C.3       1 <0>         0.0954
     31 C21        -5.1018   -4.9903   -1.5873 C.ar      1 <0>        -0.0743
     32 C22        -5.6112   -4.9727   -2.8723 C.ar      1 <0>        -0.1177
     33 C23        -5.2292   -5.9422   -3.7806 C.ar      1 <0>        -0.1283
     34 C24        -4.3375   -6.9291   -3.4040 C.ar      1 <0>        -0.1228
     35 C25        -3.8274   -6.9462   -2.1193 C.ar      1 <0>        -0.1188
     36 C26        -4.2061   -5.9742   -1.2123 C.ar      1 <0>        -0.0816
     37 H2          2.4428    0.0318    1.7188 H         1 <0>         0.0542
     38 H3          1.0651    0.0773    0.5928 H         1 <0>         0.0740
     39 H4          0.7917    0.2652    2.3416 H         1 <0>         0.0776
     40 H5          0.4465   -8.2472    3.1570 H         1 <0>         0.0487
     41 H6         -0.8506   -8.4742    1.9595 H         1 <0>         0.0842
     42 H7          0.8492   -8.4307    1.4329 H         1 <0>         0.0524
     43 H8          3.7980   -5.2308    1.6409 H         1 <0>         0.0815
     44 H9          4.4339   -3.7403    2.3773 H         1 <0>         0.0491
     45 H10         3.5765   -4.9336    3.3818 H         1 <0>         0.0795
     46 H11        -0.0161   -2.9198    4.2775 H         1 <0>         0.1299
     47 H12        -1.5973   -3.3885    6.1057 H         1 <0>         0.1354
     48 H13        -3.5760   -4.7948    5.6920 H         1 <0>         0.1399
     49 H14        -2.3967   -5.2558    1.6194 H         1 <0>         0.1443
     50 H15        -3.5684   -0.4573    1.5991 H         1 <0>         0.0589
     51 H16        -3.1912   -0.6085   -0.1339 H         1 <0>         0.0588
     52 H17        -4.8738   -2.5999    1.4510 H         1 <0>         0.0775
     53 H18        -5.5400   -1.3073    0.4245 H         1 <0>         0.0517
     54 H19        -3.8118   -1.3500   -1.9015 H         1 <0>         0.0679
     55 H20        -4.6081   -2.7237   -2.7059 H         1 <0>         0.0720
     56 H21        -5.5843   -1.5048   -1.8519 H         1 <0>         0.0222
     57 H22        -5.5641   -4.3686    0.4011 H         1 <0>         0.0830
     58 H23        -6.5000   -3.5463   -0.8703 H         1 <0>         0.0388
     59 H24        -6.3078   -4.2017   -3.1665 H         1 <0>         0.1132
     60 H25        -5.6277   -5.9289   -4.7843 H         1 <0>         0.1156
     61 H26        -4.0396   -7.6870   -4.1134 H         1 <0>         0.1163
     62 H27        -3.1310   -7.7175   -1.8250 H         1 <0>         0.1210
     63 H28        -3.8048   -5.9854   -0.2097 H         1 <0>         0.1299
@<TRIPOS>BOND
     1    1    2 1
     2    1   37 1
     3    1   38 1
     4    1   39 1
     5    2   12 1
     6    2    3 2
     7    3    4 1
     8    3   23 1
     9    4    5 1
    10    4    6 1
    11    4   14 1
    12    6    7 2
    13    6   11 1
    14    7    8 1
    15    7    9 1
    16    9   10 1
    17   10   40 1
    18   10   41 1
    19   10   42 1
    20   11   12 2
    21   11   13 1
    22   13   43 1
    23   13   44 1
    24   13   45 1
    25   14   19 ar
    26   14   15 ar
    27   15   16 ar
    28   15   46 1
    29   16   17 ar
    30   16   47 1
    31   17   18 ar
    32   17   48 1
    33   18   19 ar
    34   18   20 1
    35   19   49 1
    36   20   21 2
    37   20   22 1
    38   23   24 2
    39   23   25 1
    40   25   26 1
    41   26   27 1
    42   26   50 1
    43   26   51 1
    44   27   28 1
    45   27   52 1
    46   27   53 1
    47   28   29 1
    48   28   30 1
    49   29   54 1
    50   29   55 1
    51   29   56 1
    52   30   31 1
    53   30   57 1
    54   30   58 1
    55   31   36 ar
    56   31   32 ar
    57   32   33 ar
    58   32   59 1
    59   33   34 ar
    60   33   60 1
    61   34   35 ar
    62   34   61 1
    63   35   36 ar
    64   35   62 1
    65   36   63 1
@<TRIPOS>MOLECULE
ZINC19796087
   63    65     0     0     0
SMALL
USER_CHARGES

@<TRIPOS>ATOM
      1 C1          1.9250    2.2404   -0.3129 C.3       1 <0>        -0.0962
      2 C2          1.5956    0.7700   -0.3363 C.2       1 <0>         0.2823
      3 C3          0.2875    0.3908   -0.4338 C.2       1 <0>        -0.3776
      4 C4         -0.0127   -1.0968   -0.4556 C.3       1 <0>         0.1287
      5 H1         -0.6768   -1.3224    0.3787 H         1 <0>         0.0479
      6 C5          1.1921   -2.0166   -0.3653 C.2       1 <0>        -0.3943
      7 C6          1.0526   -3.3872   -0.3756 C.2       1 <0>         0.4729
      8 O1         -0.1764   -3.9396   -0.3555 O.3       1 <0>        -0.6452
      9 O2          2.1452   -4.1754   -0.4057 O.3       1 <0>        -0.3140
     10 C7          1.9270   -5.5825   -0.5258 C.3       1 <0>         0.0738
     11 C8          3.2661   -6.3163   -0.4304 C.3       1 <0>         0.0567
     12 N1          4.0962   -5.9737   -1.5929 N.3       1 <0>        -0.5254
     13 C9          3.6078   -6.6452   -2.8047 C.3       1 <0>         0.0178
     14 C10         5.5078   -6.2958   -1.3451 C.3       1 <0>         0.0937
     15 C11         6.3568   -5.7125   -2.4451 C.ar      1 <0>        -0.0752
     16 C12         6.6211   -6.4541   -3.5814 C.ar      1 <0>        -0.1161
     17 C13         7.3999   -5.9190   -4.5904 C.ar      1 <0>        -0.1247
     18 C14         7.9139   -4.6420   -4.4634 C.ar      1 <0>        -0.1225
     19 C15         7.6488   -3.9001   -3.3275 C.ar      1 <0>        -0.1199
     20 C16         6.8665   -4.4336   -2.3204 C.ar      1 <0>        -0.0931
     21 C17         2.4472   -1.4127   -0.2718 C.2       1 <0>         0.2969
     22 N2          2.5859   -0.1065   -0.2671 N.2       1 <0>        -0.6443
     23 C18         3.6750   -2.2817   -0.1798 C.3       1 <0>        -0.1018
     24 C19        -0.7450   -1.4107   -1.7348 C.ar      1 <0>        -0.0273
     25 C20        -0.1448   -1.1589   -2.9546 C.ar      1 <0>        -0.0575
     26 C21        -0.8164   -1.4467   -4.1278 C.ar      1 <0>        -0.1295
     27 C22        -2.0883   -1.9869   -4.0815 C.ar      1 <0>        -0.0800
     28 C23        -2.6879   -2.2394   -2.8621 C.ar      1 <0>        -0.0565
     29 C24        -2.0144   -1.9555   -1.6886 C.ar      1 <0>        -0.0107
     30 N3         -4.0498   -2.8172   -2.8127 N.pl3     1 <0>         0.0440
     31 O3         -4.6376   -3.0683   -3.8389 O.2       1 <0>        -0.1849
     32 O4         -4.5743   -3.0382   -1.7460 O.3       1 <0>        -0.1675
     33 C25        -0.7435    1.3435   -0.5108 C.2       1 <0>         0.5215
     34 O5         -0.4773    2.5318   -0.4910 O.2       1 <0>        -0.5581
     35 O6         -2.0292    0.9409   -0.6066 O.3       1 <0>        -0.3599
     36 C26        -3.0252    1.9629   -0.6810 C.3       1 <0>         0.0413
     37 H2          3.0047    2.3696   -0.2371 H         1 <0>         0.0545
     38 H3          1.5666    2.7077   -1.2301 H         1 <0>         0.0756
     39 H4          1.4421    2.7072    0.5455 H         1 <0>         0.0759
     40 H5          1.2707   -5.9182    0.2771 H         1 <0>         0.0656
     41 H6          1.4627   -5.7974   -1.4883 H         1 <0>         0.0572
     42 H7          3.7797   -6.0177    0.4835 H         1 <0>         0.0841
     43 H8          3.0906   -7.3920   -0.4136 H         1 <0>         0.0519
     44 H9          2.5954   -6.3066   -3.0248 H         1 <0>         0.0693
     45 H10         4.2619   -6.4037   -3.6426 H         1 <0>         0.0727
     46 H11         3.6038   -7.7236   -2.6460 H         1 <0>         0.0228
     47 H12         5.8140   -5.8745   -0.3876 H         1 <0>         0.0848
     48 H13         5.6351   -7.3782   -1.3232 H         1 <0>         0.0392
     49 H14         6.2196   -7.4517   -3.6806 H         1 <0>         0.1158
     50 H15         7.6070   -6.4987   -5.4778 H         1 <0>         0.1178
     51 H16         8.5228   -4.2242   -5.2514 H         1 <0>         0.1180
     52 H17         8.0506   -2.9025   -3.2282 H         1 <0>         0.1216
     53 H18         6.6563   -3.8525   -1.4347 H         1 <0>         0.1258
     54 H19         3.7730   -2.8699   -1.0922 H         1 <0>         0.0884
     55 H20         4.5567   -1.6529   -0.0563 H         1 <0>         0.0588
     56 H21         3.5832   -2.9508    0.6758 H         1 <0>         0.0743
     57 H22         0.8487   -0.7369   -2.9907 H         1 <0>         0.1285
     58 H23        -0.3479   -1.2494   -5.0806 H         1 <0>         0.1344
     59 H24        -2.6134   -2.2112   -4.9983 H         1 <0>         0.1396
     60 H25        -2.4815   -2.1563   -0.7357 H         1 <0>         0.1428
     61 H26        -4.0114    1.5045   -0.7545 H         1 <0>         0.0861
     62 H27        -2.9782    2.5820    0.2150 H         1 <0>         0.0509
     63 H28        -2.8458    2.5819   -1.5601 H         1 <0>         0.0485
@<TRIPOS>BOND
     1    1    2 1
     2    1   37 1
     3    1   38 1
     4    1   39 1
     5    2   22 1
     6    2    3 2
     7    3    4 1
     8    3   33 1
     9    4    5 1
    10    4    6 1
    11    4   24 1
    12    6    7 2
    13    6   21 1
    14    7    8 1
    15    7    9 1
    16    9   10 1
    17   10   11 1
    18   10   40 1
    19   10   41 1
    20   11   12 1
    21   11   42 1
    22   11   43 1
    23   12   13 1
    24   12   14 1
    25   13   44 1
    26   13   45 1
    27   13   46 1
    28   14   15 1
    29   14   47 1
    30   14   48 1
    31   15   20 ar
    32   15   16 ar
    33   16   17 ar
    34   16   49 1
    35   17   18 ar
    36   17   50 1
    37   18   19 ar
    38   18   51 1
    39   19   20 ar
    40   19   52 1
    41   20   53 1
    42   21   22 2
    43   21   23 1
    44   23   54 1
    45   23   55 1
    46   23   56 1
    47   24   29 ar
    48   24   25 ar
    49   25   26 ar
    50   25   57 1
    51   26   27 ar
    52   26   58 1
    53   27   28 ar
    54   27   59 1
    55   28   29 ar
    56   28   30 1
    57   29   60 1
    58   30   31 2
    59   30   32 1
    60   33   34 2
    61   33   35 1
    62   35   36 1
    63   36   61 1
    64   36   62 1
    65   36   63 1
@<TRIPOS>MOLECULE
ZINC13802764
   27    28     0     0     0
SMALL
USER_CHARGES
5-ethyl-2-(1H-imidazol-4-ylmethyl)-4-methyl-thiazole
@<TRIPOS>ATOM
      1 C1         -2.7595    5.8536    4.9236 C.3       1 <0>        -0.1485
      2 C2         -1.4314    5.0986    4.8399 C.3       1 <0>        -0.0325
      3 C3         -1.2651    4.5265    3.4557 C.2       1 <0>        -0.1812
      4 C4         -0.6908    5.0740    2.3543 C.2       1 <0>         0.0565
      5 N1         -0.6618    4.3646    1.2455 N.2       1 <0>        -0.4899
      6 C5         -1.1822    3.1605    1.1889 C.2       1 <0>         0.1106
      7 S1         -1.7694    2.9391    2.8082 S.3       1 <0>         0.0187
      8 C6         -1.2474    2.2114    0.0202 C.3       1 <0>         0.0564
      9 C7         -0.0162    1.3425    0.0094 C.2       1 <0>        -0.0017
     10 C8          0.0021   -0.0041    0.0020 C.2       1 <0>        -0.0416
     11 N2          1.3175   -0.3822   -0.0126 N.pl3     1 <0>        -0.5723
     12 H1          1.6653   -1.3197   -0.0210 H         1 <0>         0.4282
     13 C9          2.0579    0.7472   -0.0136 C.2       1 <0>         0.1863
     14 N3          1.2535    1.7747   -0.0004 N.2       1 <0>        -0.4754
     15 C10        -0.0950    6.4574    2.4014 C.3       1 <0>        -0.0810
     16 H2         -2.7641    6.6627    4.1932 H         1 <0>         0.0591
     17 H3         -3.5807    5.1687    4.7125 H         1 <0>         0.0568
     18 H4         -2.8797    6.2673    5.9249 H         1 <0>         0.0651
     19 H5         -1.4268    4.2895    5.5704 H         1 <0>         0.0784
     20 H6         -0.6102    5.7834    5.0511 H         1 <0>         0.0883
     21 H7         -1.2984    2.7808   -0.9079 H         1 <0>         0.1103
     22 H8         -2.1341    1.5840    0.1107 H         1 <0>         0.1038
     23 H9         -0.8562   -0.6596    0.0070 H         1 <0>         0.1793
     24 H10         3.1369    0.7926   -0.0236 H         1 <0>         0.2082
     25 H11         0.9549    6.3913    2.6867 H         1 <0>         0.0724
     26 H12        -0.1758    6.9215    1.4184 H         1 <0>         0.0740
     27 H13        -0.6331    7.0601    3.1331 H         1 <0>         0.0719
@<TRIPOS>BOND
     1    1    2 1
     2    1   16 1
     3    1   17 1
     4    1   18 1
     5    2    3 1
     6    2   19 1
     7    2   20 1
     8    3    7 1
     9    3    4 2
    10    4    5 1
    11    4   15 1
    12    5    6 2
    13    6    7 1
    14    6    8 1
    15    8    9 1
    16    8   21 1
    17    8   22 1
    18    9   14 1
    19    9   10 2
    20   10   11 1
    21   10   23 1
    22   11   12 1
    23   11   13 1
    24   13   14 2
    25   13   24 1
    26   15   25 1
    27   15   26 1
    28   15   27 1
@<TRIPOS>MOLECULE
ZINC13802764
   28    29     0     0     0
SMALL
USER_CHARGES
5-ethyl-2-(1H-imidazol-4-ylmethyl)-4-methyl-thiazole
@<TRIPOS>ATOM
      1 C1         -2.7595    5.8536    4.9236 C.3       1 <0>        -0.1516
      2 C2         -1.4314    5.0986    4.8399 C.3       1 <0>        -0.0431
      3 C3         -1.2651    4.5265    3.4557 C.2       1 <0>        -0.1442
      4 C4         -0.6908    5.0740    2.3543 C.2       1 <0>         0.0441
      5 N1         -0.6618    4.3646    1.2455 N.2       1 <0>        -0.4873
      6 C5         -1.1822    3.1605    1.1889 C.2       1 <0>         0.0258
      7 S1         -1.7694    2.9391    2.8082 S.3       1 <0>         0.0747
      8 C6         -1.2474    2.2114    0.0202 C.3       1 <0>         0.0399
      9 C7         -0.0162    1.3425    0.0094 C.2       1 <0>         0.0329
     10 C8          0.0021   -0.0041    0.0020 C.2       1 <0>         0.0432
     11 N2          1.3175   -0.3822   -0.0126 N.pl3     1 <0>        -0.5147
     12 H1          1.6653   -1.3197   -0.0210 H         1 <0>         0.4767
     13 C9          2.0579    0.7472   -0.0136 C.cat     1 <0>         0.3082
     14 C10        -0.0950    6.4574    2.4014 C.3       1 <0>        -0.0860
     15 H2         -2.7641    6.6627    4.1932 H         1 <0>         0.0617
     16 H3         -3.5807    5.1687    4.7125 H         1 <0>         0.0591
     17 H4         -2.8797    6.2673    5.9249 H         1 <0>         0.0737
     18 H5         -1.4268    4.2895    5.5704 H         1 <0>         0.0859
     19 H6         -0.6102    5.7834    5.0511 H         1 <0>         0.0967
     20 H7         -1.2984    2.7808   -0.9079 H         1 <0>         0.1337
     21 H8         -2.1341    1.5840    0.1107 H         1 <0>         0.1372
     22 H9         -0.8562   -0.6596    0.0070 H         1 <0>         0.2291
     23 H10         3.1369    0.7926   -0.0236 H         1 <0>         0.2656
     24 H11         0.9549    6.3913    2.6867 H         1 <0>         0.0761
     25 H12        -0.1758    6.9215    1.4184 H         1 <0>         0.0782
     26 H13        -0.6331    7.0601    3.1331 H         1 <0>         0.0797
     27 N3          1.2531    1.7734   -0.0004 N.pl3     1 <0>        -0.4781
     28 H14         1.5460    2.7575    0.0021 H         1 <0>         0.4827
@<TRIPOS>BOND
     1    1    2 1
     2    1   15 1
     3    1   16 1
     4    1   17 1
     5    2    3 1
     6    2   18 1
     7    2   19 1
     8    3    7 1
     9    3    4 2
    10    4    5 1
    11    4   14 1
    12    5    6 2
    13    6    7 1
    14    6    8 1
    15    8    9 1
    16    8   20 1
    17    8   21 1
    18    9   10 2
    19    9   27 1
    20   10   11 1
    21   10   22 1
    22   11   12 1
    23   11   13 1
    24   13   23 1
    25   13   27 2
    26   14   24 1
    27   14   25 1
    28   14   26 1
    29   27   28 1
@<TRIPOS>MOLECULE
ZINC13802774
   24    26     0     0     0
SMALL
USER_CHARGES
2-(1H-imidazol-4-ylmethyl)-1,3-benzothiazole
@<TRIPOS>ATOM
      1 C1         -0.2623    7.0171    3.7654 C.ar      1 <0>        -0.1120
      2 C2         -0.8664    6.3883    4.8454 C.ar      1 <0>        -0.0969
      3 C3         -1.3806    5.1150    4.6891 C.ar      1 <0>        -0.0678
      4 C4         -1.2843    4.4947    3.4672 C.ar      1 <0>        -0.1514
      5 C5         -0.6744    5.1103    2.3504 C.ar      1 <0>         0.0802
      6 C6         -0.1617    6.4111    2.5516 C.ar      1 <0>        -0.0595
      7 N1         -0.6673    4.3570    1.2309 N.2       1 <0>        -0.4929
      8 C7         -1.1822    3.1605    1.1889 C.2       1 <0>         0.1597
      9 S1         -1.7818    2.9262    2.8015 S.3       1 <0>         0.0121
     10 C8         -1.2474    2.2114    0.0202 C.3       1 <0>         0.0516
     11 C9         -0.0162    1.3425    0.0094 C.2       1 <0>        -0.0042
     12 C10         0.0021   -0.0041    0.0020 C.2       1 <0>        -0.0382
     13 N2          1.3175   -0.3822   -0.0126 N.pl3     1 <0>        -0.5718
     14 H1          1.6653   -1.3197   -0.0210 H         1 <0>         0.4288
     15 C11         2.0579    0.7472   -0.0136 C.2       1 <0>         0.1878
     16 N3          1.2535    1.7747   -0.0004 N.2       1 <0>        -0.4763
     17 H2          0.1381    8.0121    3.8920 H         1 <0>         0.1343
     18 H3         -0.9344    6.8899    5.7995 H         1 <0>         0.1386
     19 H4         -1.8533    4.6122    5.5199 H         1 <0>         0.1332
     20 H5          0.3148    6.9301    1.7332 H         1 <0>         0.1330
     21 H6         -1.2984    2.7808   -0.9079 H         1 <0>         0.1140
     22 H7         -2.1341    1.5840    0.1107 H         1 <0>         0.1087
     23 H8         -0.8562   -0.6596    0.0070 H         1 <0>         0.1804
     24 H9          3.1369    0.7926   -0.0236 H         1 <0>         0.2087
@<TRIPOS>BOND
     1    1    6 ar
     2    1    2 ar
     3    1   17 1
     4    2    3 ar
     5    2   18 1
     6    3    4 ar
     7    3   19 1
     8    4    9 1
     9    4    5 ar
    10    5    6 ar
    11    5    7 1
    12    6   20 1
    13    7    8 2
    14    8    9 1
    15    8   10 1
    16   10   11 1
    17   10   21 1
    18   10   22 1
    19   11   16 1
    20   11   12 2
    21   12   13 1
    22   12   23 1
    23   13   14 1
    24   13   15 1
    25   15   16 2
    26   15   24 1
@<TRIPOS>MOLECULE
ZINC13802774
   25    27     0     0     0
SMALL
USER_CHARGES
2-(1H-imidazol-4-ylmethyl)-1,3-benzothiazole
@<TRIPOS>ATOM
      1 C1         -0.2623    7.0171    3.7654 C.ar      1 <0>        -0.1077
      2 C2         -0.8664    6.3883    4.8454 C.ar      1 <0>        -0.0727
      3 C3         -1.3806    5.1150    4.6891 C.ar      1 <0>        -0.0720
      4 C4         -1.2843    4.4947    3.4672 C.ar      1 <0>        -0.1391
      5 C5         -0.6744    5.1103    2.3504 C.ar      1 <0>         0.0593
      6 C6         -0.1617    6.4111    2.5516 C.ar      1 <0>        -0.0506
      7 N1         -0.6673    4.3570    1.2309 N.2       1 <0>        -0.4884
      8 C7         -1.1822    3.1605    1.1889 C.2       1 <0>         0.0800
      9 S1         -1.7818    2.9262    2.8015 S.3       1 <0>         0.0596
     10 C8         -1.2474    2.2114    0.0202 C.3       1 <0>         0.0345
     11 C9         -0.0162    1.3425    0.0094 C.2       1 <0>         0.0306
     12 C10         0.0021   -0.0041    0.0020 C.2       1 <0>         0.0469
     13 N2          1.3175   -0.3822   -0.0126 N.pl3     1 <0>        -0.5146
     14 H1          1.6653   -1.3197   -0.0210 H         1 <0>         0.4772
     15 C11         2.0579    0.7472   -0.0136 C.cat     1 <0>         0.3100
     16 H2          0.1381    8.0121    3.8920 H         1 <0>         0.1426
     17 H3         -0.9344    6.8899    5.7995 H         1 <0>         0.1475
     18 H4         -1.8533    4.6122    5.5199 H         1 <0>         0.1409
     19 H5          0.3148    6.9301    1.7332 H         1 <0>         0.1374
     20 H6         -1.2984    2.7808   -0.9079 H         1 <0>         0.1368
     21 H7         -2.1341    1.5840    0.1107 H         1 <0>         0.1419
     22 H8         -0.8562   -0.6596    0.0070 H         1 <0>         0.2301
     23 H9          3.1369    0.7926   -0.0236 H         1 <0>         0.2660
     24 N3          1.2531    1.7734   -0.0004 N.pl3     1 <0>        -0.4788
     25 H10         1.5460    2.7575    0.0021 H         1 <0>         0.4827
@<TRIPOS>BOND
     1    1    6 ar
     2    1    2 ar
     3    1   16 1
     4    2    3 ar
     5    2   17 1
     6    3    4 ar
     7    3   18 1
     8    4    9 1
     9    4    5 ar
    10    5    6 ar
    11    5    7 1
    12    6   19 1
    13    7    8 2
    14    8    9 1
    15    8   10 1
    16   10   11 1
    17   10   20 1
    18   10   21 1
    19   11   12 2
    20   11   24 1
    21   12   13 1
    22   12   22 1
    23   13   14 1
    24   13   15 1
    25   15   23 1
    26   15   24 2
    27   24   25 1
@<TRIPOS>MOLECULE
ZINC03860825
   53    57     0     0     0
SMALL
USER_CHARGES

@<TRIPOS>ATOM
      1 C1         -0.0173    1.4248    0.0099 C.3       1 <0>         0.0327
      2 O1          0.0021   -0.0041    0.0020 O.3       1 <0>        -0.3479
      3 C2          0.5984   -0.5997   -1.0427 C.2       1 <0>         0.4737
      4 O2          1.0877    0.0699   -1.9214 O.2       1 <0>        -0.5039
      5 C3          0.6575   -2.1036   -1.1196 C.3       1 <0>        -0.0650
      6 H1          1.1947   -2.4917   -0.2542 H         1 <0>         0.1260
      7 C4         -0.7643   -2.6714   -1.1364 C.3       1 <0>         0.1104
      8 H2         -1.2823   -2.3789   -0.2230 H         1 <0>         0.0803
      9 C5         -0.7098   -4.1973   -1.2238 C.3       1 <0>        -0.1531
     10 C6          0.0283   -4.6160   -2.4980 C.3       1 <0>        -0.1090
     11 C7          1.4478   -4.0496   -2.4652 C.3       1 <0>        -0.1066
     12 H3          1.9678   -4.4265   -1.5844 H         1 <0>         0.0984
     13 C8          1.3811   -2.5214   -2.3995 C.3       1 <0>        -0.0762
     14 H4          0.8340   -2.1460   -3.2643 H         1 <0>         0.1112
     15 C9          2.8021   -1.9525   -2.4146 C.3       1 <0>        -0.1520
     16 C10         3.5142   -2.4494   -3.6743 C.3       1 <0>         0.1158
     17 H5          2.9655   -2.1183   -4.5560 H         1 <0>         0.1480
     18 C11         4.9207   -1.9091   -3.7260 C.2       1 <0>         0.0226
     19 C12         5.9775   -2.6629   -4.1115 C.2       1 <0>        -0.1599
     20 C13         7.1508   -1.8219   -4.0411 C.ar      1 <0>        -0.1001
     21 C14         8.5026   -2.0504   -4.3178 C.ar      1 <0>        -0.0652
     22 C15         9.3608   -0.9941   -4.1376 C.ar      1 <0>        -0.1357
     23 C16         8.9212    0.2451   -3.7015 C.ar      1 <0>        -0.0818
     24 C17         7.5903    0.4991   -3.4190 C.ar      1 <0>        -0.1277
     25 C18         6.6952   -0.5542   -3.5938 C.ar      1 <0>         0.1109
     26 N1          5.3444   -0.6471   -3.4127 N.pl3     1 <0>        -0.5612
     27 H6          4.7717    0.0739   -3.1078 H         1 <0>         0.4234
     28 C19         5.8580   -4.1083   -4.5249 C.3       1 <0>        -0.0677
     29 C20         4.3745   -4.4075   -4.7852 C.3       1 <0>        -0.0061
     30 N2          3.5745   -3.9171   -3.6582 N.4       1 <0>        -0.3774
     31 C21         2.2119   -4.4657   -3.7230 C.3       1 <0>         0.0006
     32 O3         -1.4686   -2.1563   -2.2680 O.3       1 <0>        -0.5638
     33 H7          1.0053    1.8021    0.0021 H         1 <0>         0.0628
     34 H8         -0.5445    1.7859   -0.8732 H         1 <0>         0.0656
     35 H9         -0.5275    1.7763    0.9067 H         1 <0>         0.1087
     36 H10        -0.1842   -4.5917   -0.3542 H         1 <0>         0.0829
     37 H11        -1.7242   -4.5957   -1.2448 H         1 <0>         0.0871
     38 H12         0.0713   -5.7038   -2.5532 H         1 <0>         0.0818
     39 H13        -0.4991   -4.2269   -3.3690 H         1 <0>         0.0847
     40 H14         2.7600   -0.8634   -2.4237 H         1 <0>         0.1318
     41 H15         3.3419   -2.2929   -1.5309 H         1 <0>         0.0903
     42 H16         8.8550   -3.0132   -4.6571 H         1 <0>         0.1348
     43 H17        10.4120   -1.1338   -4.3420 H         1 <0>         0.1279
     44 H18         9.6417    1.0401   -3.5774 H         1 <0>         0.1311
     45 H19         7.2605    1.4697   -3.0791 H         1 <0>         0.1352
     46 H20         6.4334   -4.2800   -5.4346 H         1 <0>         0.1209
     47 H21         6.2289   -4.7515   -3.7269 H         1 <0>         0.0998
     48 H22         4.0584   -3.9085   -5.7013 H         1 <0>         0.1319
     49 H23         4.2337   -5.4833   -4.8902 H         1 <0>         0.1399
     50 H24         2.2638   -5.5532   -3.7749 H         1 <0>         0.1399
     51 H25         1.6991   -4.0815   -4.6048 H         1 <0>         0.1347
     52 H26        -2.3787   -2.4743   -2.3430 H         1 <0>         0.3915
     53 H27         4.0031   -4.2176   -2.7956 H         1 <0>         0.4231
@<TRIPOS>BOND
     1    1    2 1
     2    1   33 1
     3    1   34 1
     4    1   35 1
     5    2    3 1
     6    3    4 2
     7    3    5 1
     8    5    6 1
     9    5   13 1
    10    5    7 1
    11    7    8 1
    12    7    9 1
    13    7   32 1
    14    9   10 1
    15    9   36 1
    16    9   37 1
    17   10   11 1
    18   10   38 1
    19   10   39 1
    20   11   12 1
    21   11   31 1
    22   11   13 1
    23   13   14 1
    24   13   15 1
    25   15   16 1
    26   15   40 1
    27   15   41 1
    28   16   17 1
    29   16   30 1
    30   16   18 1
    31   18   26 1
    32   18   19 2
    33   19   20 1
    34   19   28 1
    35   20   25 ar
    36   20   21 ar
    37   21   22 ar
    38   21   42 1
    39   22   23 ar
    40   22   43 1
    41   23   24 ar
    42   23   44 1
    43   24   25 ar
    44   24   45 1
    45   25   26 1
    46   26   27 1
    47   28   29 1
    48   28   46 1
    49   28   47 1
    50   29   30 1
    51   29   48 1
    52   29   49 1
    53   30   31 1
    54   30   53 1
    55   31   50 1
    56   31   51 1
    57   32   52 1
@<TRIPOS>MOLECULE
ZINC00004855
   30    32     0     0     0
SMALL
USER_CHARGES

@<TRIPOS>ATOM
      1 C1         -0.0167    1.3781    0.0096 C.ar      1 <0>        -0.1446
      2 C2          1.1736    2.0824    0.0020 C.ar      1 <0>        -0.0761
      3 C3          2.3771    1.4109   -0.0131 C.ar      1 <0>        -0.1648
      4 C4          2.4045    0.0144   -0.0213 C.ar      1 <0>         0.1661
      5 C5          1.2061   -0.6818   -0.0136 C.ar      1 <0>        -0.1443
      6 C6          0.0021   -0.0041    0.0020 C.ar      1 <0>        -0.0585
      7 C7          1.5104   -2.1630   -0.0250 C.3       1 <0>        -0.0839
      8 C8          3.0458   -2.2414   -0.0404 C.3       1 <0>         0.1307
      9 N1          3.5013   -0.8486   -0.0369 N.pl3     1 <0>        -0.4503
     10 N2          4.8421   -0.4426   -0.0484 N.pl3     1 <0>        -0.4586
     11 C9          5.4296    0.0511    1.1126 C.ar      1 <0>         0.3116
     12 C10         4.7021    0.1441    2.2990 C.ar      1 <0>        -0.1937
     13 C11         5.3211    0.6389    3.4275 C.ar      1 <0>         0.1657
     14 N3          6.5839    1.0217    3.3939 N.ar      1 <0>        -0.4904
     15 C12         7.3056    0.9498    2.2910 C.ar      1 <0>         0.1706
     16 C13         6.7630    0.4604    1.1216 C.ar      1 <0>        -0.2013
     17 H1         -0.9584    1.9067    0.0260 H         1 <0>         0.1327
     18 H2          1.1599    3.1623    0.0076 H         1 <0>         0.1302
     19 H3          3.3030    1.9669   -0.0189 H         1 <0>         0.1120
     20 H4         -0.9265   -0.5555    0.0079 H         1 <0>         0.1323
     21 H5          1.1142   -2.6396    0.8717 H         1 <0>         0.0980
     22 H6          1.0968   -2.6294   -0.9191 H         1 <0>         0.0996
     23 H7          3.4070   -2.7596    0.8479 H         1 <0>         0.0765
     24 H8          3.3895   -2.7494   -0.9414 H         1 <0>         0.0809
     25 H9          5.3610   -0.5055   -0.8655 H         1 <0>         0.4381
     26 H10         3.6684   -0.1667    2.3332 H         1 <0>         0.1755
     27 H11         4.7655    0.7145    4.3505 H         1 <0>         0.2060
     28 H12         8.3357    1.2742    2.3059 H         1 <0>         0.2088
     29 H13         7.3605    0.3997    0.2240 H         1 <0>         0.1817
     30 H14         6.9933    1.3661    4.2030 H         1 <0>         0.4492
@<TRIPOS>BOND
     1    1    6 ar
     2    1    2 ar
     3    1   17 1
     4    2    3 ar
     5    2   18 1
     6    3    4 ar
     7    3   19 1
     8    4    9 1
     9    4    5 ar
    10    5    6 ar
    11    5    7 1
    12    6   20 1
    13    7    8 1
    14    7   21 1
    15    7   22 1
    16    8    9 1
    17    8   23 1
    18    8   24 1
    19    9   10 1
    20   10   11 1
    21   10   25 1
    22   11   16 ar
    23   11   12 ar
    24   12   13 ar
    25   12   26 1
    26   13   14 ar
    27   13   27 1
    28   14   15 ar
    29   14   30 1
    30   15   16 ar
    31   15   28 1
    32   16   29 1
@<TRIPOS>MOLECULE
ZINC00896218
   45    47     0     0     0
SMALL
USER_CHARGES
1-[(3-hydroxy-4-methoxy-phenyl)methyl]-6-methoxy-1,2,3,4-tetrahydroisoquinolin-7-ol
@<TRIPOS>ATOM
      1 C1          2.2215    5.3022    0.0079 C.3       1 <0>         0.0203
      2 O1          2.3211    3.8766   -0.0002 O.3       1 <0>        -0.3013
      3 C2          1.1554    3.1762    0.0076 C.ar      1 <0>         0.1211
      4 C3         -0.0572    3.8465    0.0223 C.ar      1 <0>        -0.1861
      5 C4         -1.2413    3.1330    0.0298 C.ar      1 <0>        -0.0688
      6 C5         -1.2190    1.7507    0.0173 C.ar      1 <0>        -0.1524
      7 C6         -0.0126    1.0758    0.0080 C.ar      1 <0>        -0.1272
      8 C7          1.1779    1.7849    0.0004 C.ar      1 <0>         0.0868
      9 O2          2.3655    1.1226   -0.0136 O.3       1 <0>        -0.4855
     10 C8         -2.5128    0.9779    0.0198 C.3       1 <0>        -0.0922
     11 C9         -2.9435    0.7090    1.4630 C.3       1 <0>         0.0966
     12 H1         -2.9983    1.6537    2.0040 H         1 <0>         0.1463
     13 C10        -4.3013    0.0564    1.4633 C.ar      1 <0>        -0.1517
     14 C11        -5.2657    0.5429    0.5919 C.ar      1 <0>        -0.0839
     15 C12        -6.5279   -0.0217    0.5585 C.ar      1 <0>         0.0935
     16 C13        -6.8311   -1.0842    1.4051 C.ar      1 <0>         0.1337
     17 C14        -5.8674   -1.5653    2.2708 C.ar      1 <0>        -0.1884
     18 C15        -4.6020   -0.9972    2.2992 C.ar      1 <0>        -0.0529
     19 C16        -3.5842   -1.5621    3.2570 C.3       1 <0>        -0.1073
     20 C17        -2.4327   -0.5729    3.4388 C.3       1 <0>         0.0007
     21 O3         -8.0698   -1.6450    1.3812 O.3       1 <0>        -0.2971
     22 C18        -8.3074   -2.7315    2.2785 C.3       1 <0>         0.0196
     23 O4         -7.4685    0.4589   -0.2981 O.3       1 <0>        -0.4794
     24 H2          1.6750    5.6332   -0.8752 H         1 <0>         0.0617
     25 H3          1.6923    5.6243    0.9047 H         1 <0>         0.0610
     26 H4          3.2213    5.7363    0.0004 H         1 <0>         0.1105
     27 H5         -0.0774    4.9263    0.0283 H         1 <0>         0.1423
     28 H6         -2.1858    3.6566    0.0409 H         1 <0>         0.1361
     29 H7          0.0021   -0.0041    0.0020 H         1 <0>         0.1348
     30 H8          2.7009    0.9351   -0.9010 H         1 <0>         0.3979
     31 H9         -3.2836    1.5582   -0.4873 H         1 <0>         0.1222
     32 H10        -2.3709    0.0301   -0.4996 H         1 <0>         0.1006
     33 H11        -5.0293    1.3677   -0.0639 H         1 <0>         0.1487
     34 H12        -6.1006   -2.3897    2.9284 H         1 <0>         0.1445
     35 H13        -3.1960   -2.5003    2.8605 H         1 <0>         0.1067
     36 H14        -4.0580   -1.7469    4.2210 H         1 <0>         0.1242
     37 H15        -1.6213   -1.0520    3.9866 H         1 <0>         0.1414
     38 H16        -2.7804    0.3011    3.9895 H         1 <0>         0.1346
     39 H17        -7.6141   -3.5432    2.0580 H         1 <0>         0.0612
     40 H18        -8.1581   -2.3948    3.3044 H         1 <0>         0.0618
     41 H19        -9.3313   -3.0853    2.1576 H         1 <0>         0.1122
     42 H20        -7.4692    0.0278   -1.1637 H         1 <0>         0.3981
     43 N1         -1.9514   -0.1631    2.1065 N.4       1 <0>        -0.5135
     44 H21        -1.0649    0.3452    2.2062 H         1 <0>         0.4375
     45 H22        -1.8042   -0.9974    1.5262 H         1 <0>         0.4310
@<TRIPOS>BOND
     1    1    2 1
     2    1   24 1
     3    1   25 1
     4    1   26 1
     5    2    3 1
     6    3    8 ar
     7    3    4 ar
     8    4    5 ar
     9    4   27 1
    10    5    6 ar
    11    5   28 1
    12    6    7 ar
    13    6   10 1
    14    7    8 ar
    15    7   29 1
    16    8    9 1
    17    9   30 1
    18   10   11 1
    19   10   31 1
    20   10   32 1
    21   11   12 1
    22   11   13 1
    23   11   43 1
    24   13   18 ar
    25   13   14 ar
    26   14   15 ar
    27   14   33 1
    28   15   16 ar
    29   15   23 1
    30   16   17 ar
    31   16   21 1
    32   17   18 ar
    33   17   34 1
    34   18   19 1
    35   19   20 1
    36   19   35 1
    37   19   36 1
    38   20   37 1
    39   20   38 1
    40   20   43 1
    41   21   22 1
    42   22   39 1
    43   22   40 1
    44   22   41 1
    45   23   42 1
    46   43   44 1
    47   43   45 1
@<TRIPOS>MOLECULE
ZINC00896220
   45    47     0     0     0
SMALL
USER_CHARGES
1-[(3-hydroxy-4-methoxy-phenyl)methyl]-6-methoxy-1,2,3,4-tetrahydroisoquinolin-7-ol
@<TRIPOS>ATOM
      1 C1          1.6300   -5.2215    1.9842 C.3       1 <0>         0.0210
      2 O1          2.6828   -4.4648    1.3833 O.3       1 <0>        -0.3005
      3 C2          2.5352   -3.1132    1.3586 C.ar      1 <0>         0.1202
      4 C3          1.4023   -2.5283    1.9012 C.ar      1 <0>        -0.1882
      5 C4          1.2567   -1.1537    1.8808 C.ar      1 <0>        -0.1048
      6 C5          2.2344   -0.3604    1.3096 C.ar      1 <0>        -0.1507
      7 C6          3.3671   -0.9375    0.7665 C.ar      1 <0>        -0.0925
      8 C7          3.5219   -2.3143    0.7888 C.ar      1 <0>         0.0900
      9 O2          4.6358   -2.8836    0.2553 O.3       1 <0>        -0.4838
     10 C8          2.0677    1.1371    1.2844 C.3       1 <0>        -0.0933
     11 C9          1.3499    1.5489   -0.0025 C.3       1 <0>         0.0968
     12 H1          1.8909    1.1485   -0.8599 H         1 <0>         0.1468
     13 C10         1.3169    3.0522   -0.0933 C.ar      1 <0>        -0.1519
     14 C11         2.4607    3.7581    0.2524 C.ar      1 <0>        -0.0838
     15 C12         2.4794    5.1393    0.1817 C.ar      1 <0>         0.0936
     16 C13         1.3430    5.8239   -0.2398 C.ar      1 <0>         0.1339
     17 C14         0.2049    5.1163   -0.5823 C.ar      1 <0>        -0.1884
     18 C15         0.1909    3.7311   -0.5077 C.ar      1 <0>        -0.0532
     19 C16        -1.0765    3.0060   -0.8823 C.3       1 <0>        -0.1074
     20 C17        -0.7775    1.5282   -1.1348 C.3       1 <0>         0.0009
     21 O3          1.3516    7.1818   -0.3140 O.3       1 <0>        -0.2970
     22 C18         0.1488    7.8150   -0.7549 C.3       1 <0>         0.0197
     23 O4          3.6029    5.8254    0.5227 O.3       1 <0>        -0.4798
     24 H2          1.5147   -4.9204    3.0254 H         1 <0>         0.0609
     25 H3          0.6989   -5.0383    1.4478 H         1 <0>         0.0596
     26 H4          1.8732   -6.2830    1.9377 H         1 <0>         0.1103
     27 H5          0.6350   -3.1461    2.3441 H         1 <0>         0.1414
     28 H6          0.3754   -0.6988    2.3083 H         1 <0>         0.1276
     29 H7          4.1312   -0.3153    0.3245 H         1 <0>         0.1431
     30 H8          5.3627   -2.9900    0.8841 H         1 <0>         0.3981
     31 H9          3.0479    1.6125    1.3218 H         1 <0>         0.1219
     32 H10         1.4783    1.4516    2.1457 H         1 <0>         0.1015
     33 H11         3.3417    3.2256    0.5792 H         1 <0>         0.1488
     34 H12        -0.6779    5.6452   -0.9098 H         1 <0>         0.1445
     35 H13        -1.7982    3.0955   -0.0703 H         1 <0>         0.1066
     36 H14        -1.4939    3.4503   -1.7860 H         1 <0>         0.1241
     37 H15        -0.1909    1.4241   -2.0476 H         1 <0>         0.1348
     38 H16        -1.7127    0.9767   -1.2322 H         1 <0>         0.1410
     39 H17        -0.0974    7.4684   -1.7585 H         1 <0>         0.0614
     40 H18        -0.6645    7.5641   -0.0740 H         1 <0>         0.0615
     41 H19         0.2910    8.8956   -0.7683 H         1 <0>         0.1121
     42 H20         4.2101    5.9772   -0.2144 H         1 <0>         0.3987
     43 N1         -0.0135    1.0014    0.0113 N.4       1 <0>        -0.5133
     44 H21        -0.4802    1.2720    0.8849 H         1 <0>         0.4310
     45 H22         0.0302   -0.0226   -0.0504 H         1 <0>         0.4366
@<TRIPOS>BOND
     1    1    2 1
     2    1   24 1
     3    1   25 1
     4    1   26 1
     5    2    3 1
     6    3    8 ar
     7    3    4 ar
     8    4    5 ar
     9    4   27 1
    10    5    6 ar
    11    5   28 1
    12    6    7 ar
    13    6   10 1
    14    7    8 ar
    15    7   29 1
    16    8    9 1
    17    9   30 1
    18   10   11 1
    19   10   31 1
    20   10   32 1
    21   11   12 1
    22   11   13 1
    23   11   43 1
    24   13   18 ar
    25   13   14 ar
    26   14   15 ar
    27   14   33 1
    28   15   16 ar
    29   15   23 1
    30   16   17 ar
    31   16   21 1
    32   17   18 ar
    33   17   34 1
    34   18   19 1
    35   19   20 1
    36   19   35 1
    37   19   36 1
    38   20   37 1
    39   20   38 1
    40   20   43 1
    41   21   22 1
    42   22   39 1
    43   22   40 1
    44   22   41 1
    45   23   42 1
    46   43   44 1
    47   43   45 1
@<TRIPOS>MOLECULE
ZINC00057530
   51    53     0     0     0
SMALL
USER_CHARGES

@<TRIPOS>ATOM
      1 C1         -0.0173    1.4248    0.0099 C.3       1 <0>         0.0222
      2 O1          0.0021   -0.0041    0.0020 O.3       1 <0>        -0.2995
      3 C2         -1.2011   -0.6379    0.0101 C.ar      1 <0>         0.1179
      4 C3         -2.3743    0.0994    0.0195 C.ar      1 <0>        -0.1669
      5 C4         -3.5965   -0.5465    0.0272 C.ar      1 <0>        -0.1337
      6 C5         -3.6519   -1.9279    0.0261 C.ar      1 <0>        -0.1264
      7 C6         -2.4852   -2.6694    0.0172 C.ar      1 <0>        -0.1629
      8 C7         -1.2569   -2.0283    0.0032 C.ar      1 <0>         0.1148
      9 O2         -0.1083   -2.7563   -0.0116 O.3       1 <0>        -0.2988
     10 C8         -0.2420   -4.1790   -0.0180 C.3       1 <0>         0.0230
     11 C9         -4.9869   -2.6268    0.0350 C.3       1 <0>        -0.0932
     12 C10        -5.4493   -2.8618   -1.4044 C.3       1 <0>         0.0933
     13 H1         -4.6753   -3.4054   -1.9462 H         1 <0>         0.1461
     14 C11        -6.7144   -3.6791   -1.3925 C.ar      1 <0>        -0.1270
     15 C12        -6.8113   -4.7344   -0.4968 C.ar      1 <0>        -0.1550
     16 C13        -7.9537   -5.5131   -0.4540 C.ar      1 <0>         0.1184
     17 C14        -9.0115   -5.2352   -1.3152 C.ar      1 <0>         0.1331
     18 C15        -8.9110   -4.1810   -2.2056 C.ar      1 <0>        -0.1671
     19 C16        -7.7636   -3.4032   -2.2436 C.ar      1 <0>        -0.0820
     20 C17        -7.6999   -2.2599   -3.2244 C.3       1 <0>        -0.1029
     21 C18        -6.2510   -1.7999   -3.3901 C.3       1 <0>        -0.0028
     22 N1         -5.6774   -1.5688   -2.0557 N.4       1 <0>        -0.5039
     23 O3        -10.1379   -5.9963   -1.2817 O.3       1 <0>        -0.2959
     24 C19       -11.1815   -5.6512   -2.1949 C.3       1 <0>         0.0209
     25 O4         -8.0433   -6.5459    0.4262 O.3       1 <0>        -0.2957
     26 C20        -6.9189   -6.7710    1.2788 C.3       1 <0>         0.0210
     27 H2          1.0053    1.8021    0.0021 H         1 <0>         0.1093
     28 H3         -0.5445    1.7859   -0.8732 H         1 <0>         0.0584
     29 H4         -0.5275    1.7763    0.9067 H         1 <0>         0.0601
     30 H5         -2.3338    1.1787    0.0211 H         1 <0>         0.1441
     31 H6         -4.5102    0.0294    0.0345 H         1 <0>         0.1266
     32 H7         -2.5312   -3.7485    0.0167 H         1 <0>         0.1412
     33 H8          0.7471   -4.6369   -0.0298 H         1 <0>         0.1091
     34 H9         -0.7791   -4.4975    0.8754 H         1 <0>         0.0588
     35 H10        -0.7960   -4.4879   -0.9044 H         1 <0>         0.0565
     36 H11        -4.8923   -3.5844    0.5471 H         1 <0>         0.1179
     37 H12        -5.7178   -2.0075    0.5549 H         1 <0>         0.1023
     38 H13        -5.9898   -4.9493    0.1705 H         1 <0>         0.1465
     39 H14        -9.7299   -3.9635   -2.8752 H         1 <0>         0.1474
     40 H15        -8.0886   -2.5875   -4.1886 H         1 <0>         0.1230
     41 H16        -8.3032   -1.4310   -2.8543 H         1 <0>         0.1046
     42 H17        -5.6789   -2.5711   -3.9059 H         1 <0>         0.1348
     43 H18        -6.2244   -0.8745   -3.9654 H         1 <0>         0.1412
     44 H19        -6.3186   -1.0204   -1.5024 H         1 <0>         0.4277
     45 H20       -12.0198   -6.3355   -2.0641 H         1 <0>         0.1112
     46 H21       -11.5116   -4.6308   -2.0006 H         1 <0>         0.0605
     47 H22       -10.8090   -5.7242   -3.2167 H         1 <0>         0.0607
     48 H23        -6.0382   -6.9796    0.6713 H         1 <0>         0.0588
     49 H24        -6.7397   -5.8836    1.8858 H         1 <0>         0.0588
     50 H25        -7.1210   -7.6217    1.9297 H         1 <0>         0.1110
     51 H26        -4.8011   -1.0769   -2.1461 H         1 <0>         0.4326
@<TRIPOS>BOND
     1    1    2 1
     2    1   27 1
     3    1   28 1
     4    1   29 1
     5    2    3 1
     6    3    8 ar
     7    3    4 ar
     8    4    5 ar
     9    4   30 1
    10    5    6 ar
    11    5   31 1
    12    6    7 ar
    13    6   11 1
    14    7    8 ar
    15    7   32 1
    16    8    9 1
    17    9   10 1
    18   10   33 1
    19   10   34 1
    20   10   35 1
    21   11   12 1
    22   11   36 1
    23   11   37 1
    24   12   13 1
    25   12   22 1
    26   12   14 1
    27   14   19 ar
    28   14   15 ar
    29   15   16 ar
    30   15   38 1
    31   16   17 ar
    32   16   25 1
    33   17   18 ar
    34   17   23 1
    35   18   19 ar
    36   18   39 1
    37   19   20 1
    38   20   21 1
    39   20   40 1
    40   20   41 1
    41   21   22 1
    42   21   42 1
    43   21   43 1
    44   22   44 1
    45   22   51 1
    46   23   24 1
    47   24   45 1
    48   24   46 1
    49   24   47 1
    50   25   26 1
    51   26   48 1
    52   26   49 1
    53   26   50 1
@<TRIPOS>MOLECULE
ZINC00057530
   50    52     0     0     0
SMALL
USER_CHARGES

@<TRIPOS>ATOM
      1 C1         -0.0173    1.4248    0.0099 C.3       1 <0>         0.0268
      2 O1          0.0021   -0.0041    0.0020 O.3       1 <0>        -0.3088
      3 C2          0.6262   -0.6188    1.0422 C.ar      1 <0>         0.0952
      4 C3          1.2021    0.1367    2.0510 C.ar      1 <0>        -0.1710
      5 C4          1.8358   -0.4897    3.1079 C.ar      1 <0>        -0.0902
      6 C5          1.8971   -1.8699    3.1612 C.ar      1 <0>        -0.0679
      7 C6          1.3251   -2.6295    2.1578 C.ar      1 <0>        -0.1704
      8 C7          0.6830   -2.0080    1.0988 C.ar      1 <0>         0.0986
      9 O2          0.1145   -2.7540    0.1140 O.3       1 <0>        -0.3078
     10 C8          0.2115   -4.1743    0.2380 C.3       1 <0>         0.0270
     11 C9          2.5896   -2.5476    4.3154 C.3       1 <0>        -0.0706
     12 C10         1.5803   -2.8041    5.4363 C.3       1 <0>         0.1377
     13 H1          0.7379   -3.3704    5.0391 H         1 <0>         0.0939
     14 C11         2.2433   -3.6002    6.5299 C.ar      1 <0>        -0.1108
     15 C12         3.0766   -4.6493    6.1678 C.ar      1 <0>        -0.1669
     16 C13         3.7040   -5.4115    7.1365 C.ar      1 <0>         0.1002
     17 C14         3.4969   -5.1232    8.4825 C.ar      1 <0>         0.1038
     18 C15         2.6671   -4.0753    8.8386 C.ar      1 <0>        -0.1726
     19 C16         2.0419   -3.3125    7.8630 C.ar      1 <0>        -0.0731
     20 C17         1.1561   -2.1743    8.3013 C.3       1 <0>        -0.1165
     21 C18         0.2576   -1.7363    7.1446 C.3       1 <0>         0.0562
     22 N1          1.0983   -1.5207    5.9564 N.3       1 <0>        -0.6659
     23 O3          4.1069   -5.8684    9.4427 O.3       1 <0>        -0.3060
     24 C19         3.8469   -5.5135   10.8023 C.3       1 <0>         0.0260
     25 O4          4.5192   -6.4384    6.7756 O.3       1 <0>        -0.3059
     26 C20         4.6835   -6.6752    5.3760 C.3       1 <0>         0.0253
     27 H2          1.0053    1.8021    0.0021 H         1 <0>         0.0541
     28 H3         -0.5445    1.7859   -0.8732 H         1 <0>         0.0996
     29 H4         -0.5275    1.7763    0.9067 H         1 <0>         0.0547
     30 H5          1.1562    1.2150    2.0113 H         1 <0>         0.1332
     31 H6          2.2842    0.1003    3.8935 H         1 <0>         0.1245
     32 H7          1.3747   -3.7075    2.2017 H         1 <0>         0.1308
     33 H8         -0.2815   -4.6476   -0.6111 H         1 <0>         0.0998
     34 H9          1.2614   -4.4664    0.2576 H         1 <0>         0.0534
     35 H10        -0.2714   -4.4922    1.1620 H         1 <0>         0.0538
     36 H11         3.0097   -3.4961    3.9808 H         1 <0>         0.0779
     37 H12         3.3894   -1.9067    4.6863 H         1 <0>         0.0766
     38 H13         3.2360   -4.8721    5.1232 H         1 <0>         0.1376
     39 H14         2.5047   -3.8499    9.8823 H         1 <0>         0.1346
     40 H15         0.5369   -2.4990    9.1376 H         1 <0>         0.0798
     41 H16         1.7755   -1.3345    8.6164 H         1 <0>         0.0778
     42 H17        -0.4775   -2.5139    6.9372 H         1 <0>         0.0761
     43 H18        -0.2508   -0.8084    7.4069 H         1 <0>         0.0845
     44 H19         4.3935   -6.1853   11.4641 H         1 <0>         0.1020
     45 H20         4.1704   -4.4875   10.9782 H         1 <0>         0.0547
     46 H21         2.7785   -5.5968   11.0016 H         1 <0>         0.0548
     47 H22         5.3565   -7.5196    5.2269 H         1 <0>         0.1019
     48 H23         3.7149   -6.8993    4.9292 H         1 <0>         0.0547
     49 H24         5.1045   -5.7874    4.9043 H         1 <0>         0.0551
     50 H25         1.8684   -0.9030    6.1651 H         1 <0>         0.3416
@<TRIPOS>BOND
     1    1    2 1
     2    1   27 1
     3    1   28 1
     4    1   29 1
     5    2    3 1
     6    3    8 ar
     7    3    4 ar
     8    4    5 ar
     9    4   30 1
    10    5    6 ar
    11    5   31 1
    12    6    7 ar
    13    6   11 1
    14    7    8 ar
    15    7   32 1
    16    8    9 1
    17    9   10 1
    18   10   33 1
    19   10   34 1
    20   10   35 1
    21   11   12 1
    22   11   36 1
    23   11   37 1
    24   12   13 1
    25   12   22 1
    26   12   14 1
    27   14   19 ar
    28   14   15 ar
    29   15   16 ar
    30   15   38 1
    31   16   17 ar
    32   16   25 1
    33   17   18 ar
    34   17   23 1
    35   18   19 ar
    36   18   39 1
    37   19   20 1
    38   20   21 1
    39   20   40 1
    40   20   41 1
    41   21   22 1
    42   21   42 1
    43   21   43 1
    44   22   50 1
    45   23   24 1
    46   24   44 1
    47   24   45 1
    48   24   46 1
    49   25   26 1
    50   26   47 1
    51   26   48 1
    52   26   49 1
@<TRIPOS>MOLECULE
ZINC00057531
   51    53     0     0     0
SMALL
USER_CHARGES

@<TRIPOS>ATOM
      1 C1         -0.0173    1.4248    0.0099 C.3       1 <0>         0.0216
      2 O1          0.0021   -0.0041    0.0020 O.3       1 <0>        -0.3001
      3 C2         -1.2011   -0.6379    0.0101 C.ar      1 <0>         0.1195
      4 C3         -2.3743    0.0994    0.0195 C.ar      1 <0>        -0.1659
      5 C4         -3.5965   -0.5465    0.0272 C.ar      1 <0>        -0.0954
      6 C5         -3.6519   -1.9279    0.0261 C.ar      1 <0>        -0.1297
      7 C6         -2.4852   -2.6694    0.0172 C.ar      1 <0>        -0.1957
      8 C7         -1.2569   -2.0283    0.0032 C.ar      1 <0>         0.1123
      9 O2         -0.1083   -2.7563   -0.0116 O.3       1 <0>        -0.2977
     10 C8         -0.2420   -4.1790   -0.0180 C.3       1 <0>         0.0239
     11 C9         -4.9869   -2.6268    0.0350 C.3       1 <0>        -0.0926
     12 C10        -5.4493   -2.8618   -1.4044 C.3       1 <0>         0.0931
     13 H1         -5.4572   -1.9118   -1.9388 H         1 <0>         0.1478
     14 C11        -6.8417   -3.4358   -1.3913 C.ar      1 <0>        -0.1270
     15 C12        -7.7606   -2.9211   -0.4879 C.ar      1 <0>        -0.1547
     16 C13        -9.0512   -3.4165   -0.4437 C.ar      1 <0>         0.1186
     17 C14        -9.4290   -4.4375   -1.3112 C.ar      1 <0>         0.1330
     18 C15        -8.5091   -4.9487   -2.2094 C.ar      1 <0>        -0.1671
     19 C16        -7.2163   -4.4486   -2.2488 C.ar      1 <0>        -0.0826
     20 C17        -6.2444   -5.0401   -3.2381 C.3       1 <0>        -0.1027
     21 C18        -5.0415   -4.1103   -3.4015 C.3       1 <0>        -0.0031
     22 N1         -4.5194   -3.7809   -2.0666 N.4       1 <0>        -0.5048
     23 O3        -10.6963   -4.9298   -1.2764 O.3       1 <0>        -0.2959
     24 C19       -11.0110   -5.9769   -2.1965 C.3       1 <0>         0.0209
     25 O4         -9.9477   -2.9079    0.4435 O.3       1 <0>        -0.2958
     26 C20        -9.4888   -1.8616    1.3018 C.3       1 <0>         0.0208
     27 H2          1.0053    1.8021    0.0021 H         1 <0>         0.1095
     28 H3         -0.5445    1.7859   -0.8732 H         1 <0>         0.0597
     29 H4         -0.5275    1.7763    0.9067 H         1 <0>         0.0608
     30 H5         -2.3338    1.1787    0.0211 H         1 <0>         0.1449
     31 H6         -4.5102    0.0294    0.0345 H         1 <0>         0.1342
     32 H7         -2.5312   -3.7485    0.0167 H         1 <0>         0.1333
     33 H8          0.7471   -4.6369   -0.0298 H         1 <0>         0.1097
     34 H9         -0.7791   -4.4975    0.8754 H         1 <0>         0.0591
     35 H10        -0.7960   -4.4879   -0.9044 H         1 <0>         0.0497
     36 H11        -4.8923   -3.5844    0.5471 H         1 <0>         0.0998
     37 H12        -5.7178   -2.0075    0.5549 H         1 <0>         0.1202
     38 H13        -7.4664   -2.1287    0.1844 H         1 <0>         0.1472
     39 H14        -8.7995   -5.7409   -2.8835 H         1 <0>         0.1473
     40 H15        -5.9055   -6.0110   -2.8769 H         1 <0>         0.1041
     41 H16        -6.7391   -5.1654   -4.2013 H         1 <0>         0.1233
     42 H17        -4.2682   -4.6112   -3.9838 H         1 <0>         0.1409
     43 H18        -5.3514   -3.1967   -3.9089 H         1 <0>         0.1357
     44 H19        -3.6162   -3.3404   -2.1572 H         1 <0>         0.4318
     45 H20       -12.0504   -6.2769   -2.0638 H         1 <0>         0.1112
     46 H21       -10.8628   -5.6213   -3.2162 H         1 <0>         0.0607
     47 H22       -10.3597   -6.8311   -2.0114 H         1 <0>         0.0603
     48 H23        -8.6552   -2.2243    1.9031 H         1 <0>         0.0589
     49 H24        -9.1607   -1.0148    0.6989 H         1 <0>         0.0593
     50 H25       -10.3006   -1.5476    1.9579 H         1 <0>         0.1110
     51 H26        -4.4319   -4.6246   -1.5201 H         1 <0>         0.4265
@<TRIPOS>BOND
     1    1    2 1
     2    1   27 1
     3    1   28 1
     4    1   29 1
     5    2    3 1
     6    3    8 ar
     7    3    4 ar
     8    4    5 ar
     9    4   30 1
    10    5    6 ar
    11    5   31 1
    12    6    7 ar
    13    6   11 1
    14    7    8 ar
    15    7   32 1
    16    8    9 1
    17    9   10 1
    18   10   33 1
    19   10   34 1
    20   10   35 1
    21   11   12 1
    22   11   36 1
    23   11   37 1
    24   12   13 1
    25   12   22 1
    26   12   14 1
    27   14   19 ar
    28   14   15 ar
    29   15   16 ar
    30   15   38 1
    31   16   17 ar
    32   16   25 1
    33   17   18 ar
    34   17   23 1
    35   18   19 ar
    36   18   39 1
    37   19   20 1
    38   20   21 1
    39   20   40 1
    40   20   41 1
    41   21   22 1
    42   21   42 1
    43   21   43 1
    44   22   44 1
    45   22   51 1
    46   23   24 1
    47   24   45 1
    48   24   46 1
    49   24   47 1
    50   25   26 1
    51   26   48 1
    52   26   49 1
    53   26   50 1
@<TRIPOS>MOLECULE
ZINC00057531
   50    52     0     0     0
SMALL
USER_CHARGES

@<TRIPOS>ATOM
      1 C1         -0.0173    1.4248    0.0099 C.3       1 <0>         0.0261
      2 O1          0.0021   -0.0041    0.0020 O.3       1 <0>        -0.3070
      3 C2          0.6262   -0.6188    1.0422 C.ar      1 <0>         0.0961
      4 C3          1.2021    0.1367    2.0510 C.ar      1 <0>        -0.1708
      5 C4          1.8358   -0.4897    3.1079 C.ar      1 <0>        -0.1148
      6 C5          1.8971   -1.8699    3.1612 C.ar      1 <0>        -0.0836
      7 C6          1.3251   -2.6295    2.1578 C.ar      1 <0>        -0.1636
      8 C7          0.6830   -2.0080    1.0988 C.ar      1 <0>         0.1013
      9 O2          0.1145   -2.7540    0.1140 O.3       1 <0>        -0.3067
     10 C8          0.2115   -4.1743    0.2380 C.3       1 <0>         0.0257
     11 C9          2.5896   -2.5476    4.3154 C.3       1 <0>        -0.0683
     12 C10         1.5803   -2.8041    5.4363 C.3       1 <0>         0.1387
     13 H1          1.0975   -1.8651    5.7073 H         1 <0>         0.0526
     14 C11         2.3013   -3.3573    6.6377 C.ar      1 <0>        -0.0718
     15 C12         3.5197   -2.7945    6.9912 C.ar      1 <0>        -0.1694
     16 C13         4.2165   -3.2659    8.0890 C.ar      1 <0>         0.0990
     17 C14         3.6908   -4.3113    8.8429 C.ar      1 <0>         0.1035
     18 C15         2.4771   -4.8706    8.4856 C.ar      1 <0>        -0.1752
     19 C16         1.7832   -4.3954    7.3823 C.ar      1 <0>        -0.0614
     20 C17         0.4703   -5.0452    7.0269 C.3       1 <0>        -0.0736
     21 C18        -0.3177   -4.1446    6.0756 C.3       1 <0>         0.0541
     22 N1          0.5653   -3.7520    4.9660 N.3       1 <0>        -0.6782
     23 O3          4.3669   -4.7802    9.9258 O.3       1 <0>        -0.3064
     24 C19         3.7654   -5.8547   10.6508 C.3       1 <0>         0.0260
     25 O4          5.4102   -2.7108    8.4301 O.3       1 <0>        -0.3060
     26 C20         5.8869   -1.6423    7.6095 C.3       1 <0>         0.0255
     27 H2          1.0053    1.8021    0.0021 H         1 <0>         0.0548
     28 H3         -0.5445    1.7859   -0.8732 H         1 <0>         0.1010
     29 H4         -0.5275    1.7763    0.9067 H         1 <0>         0.0544
     30 H5          1.1562    1.2150    2.0113 H         1 <0>         0.1346
     31 H6          2.2842    0.1003    3.8935 H         1 <0>         0.1250
     32 H7          1.3747   -3.7075    2.2017 H         1 <0>         0.1416
     33 H8         -0.2815   -4.6476   -0.6111 H         1 <0>         0.1003
     34 H9          1.2614   -4.4664    0.2576 H         1 <0>         0.0553
     35 H10        -0.2714   -4.4922    1.1620 H         1 <0>         0.0570
     36 H11         3.0097   -3.4961    3.9808 H         1 <0>         0.0854
     37 H12         3.3894   -1.9067    4.6863 H         1 <0>         0.0789
     38 H13         3.9260   -1.9831    6.4055 H         1 <0>         0.1371
     39 H14         2.0671   -5.6815    9.0692 H         1 <0>         0.1350
     40 H15         0.6601   -6.0037    6.5438 H         1 <0>         0.0842
     41 H16        -0.1102   -5.2082    7.9350 H         1 <0>         0.0763
     42 H17        -1.1777   -4.6884    5.6846 H         1 <0>         0.0811
     43 H18        -0.6546   -3.2552    6.6081 H         1 <0>         0.0372
     44 H19         4.4063   -6.1319   11.4878 H         1 <0>         0.1012
     45 H20         2.7923   -5.5393   11.0271 H         1 <0>         0.0546
     46 H21         3.6389   -6.7126    9.9904 H         1 <0>         0.0550
     47 H22         6.8458   -1.2914    7.9908 H         1 <0>         0.1013
     48 H23         6.0107   -1.9973    6.5864 H         1 <0>         0.0550
     49 H24         5.1678   -0.8233    7.6255 H         1 <0>         0.0542
     50 H25         0.0337   -3.3629    4.2017 H         1 <0>         0.3476
@<TRIPOS>BOND
     1    1    2 1
     2    1   27 1
     3    1   28 1
     4    1   29 1
     5    2    3 1
     6    3    8 ar
     7    3    4 ar
     8    4    5 ar
     9    4   30 1
    10    5    6 ar
    11    5   31 1
    12    6    7 ar
    13    6   11 1
    14    7    8 ar
    15    7   32 1
    16    8    9 1
    17    9   10 1
    18   10   33 1
    19   10   34 1
    20   10   35 1
    21   11   12 1
    22   11   36 1
    23   11   37 1
    24   12   13 1
    25   12   22 1
    26   12   14 1
    27   14   19 ar
    28   14   15 ar
    29   15   16 ar
    30   15   38 1
    31   16   17 ar
    32   16   25 1
    33   17   18 ar
    34   17   23 1
    35   18   19 ar
    36   18   39 1
    37   19   20 1
    38   20   21 1
    39   20   40 1
    40   20   41 1
    41   21   22 1
    42   21   42 1
    43   21   43 1
    44   22   50 1
    45   23   24 1
    46   24   44 1
    47   24   45 1
    48   24   46 1
    49   25   26 1
    50   26   47 1
    51   26   48 1
    52   26   49 1
@<TRIPOS>MOLECULE
ZINC03775140
   62    64     0     0     0
SMALL
USER_CHARGES

@<TRIPOS>ATOM
      1 C1         -0.0173    1.4248    0.0099 C.3       1 <0>         0.0171
      2 O1          0.0021   -0.0041    0.0020 O.3       1 <0>        -0.2760
      3 C2          0.6048   -0.6061   -1.0540 C.ar      1 <0>         0.2490
      4 C3          1.1714    0.1577   -2.0595 C.ar      1 <0>        -0.2968
      5 C4          1.7875   -0.4643   -3.1379 C.ar      1 <0>         0.3045
      6 C5          1.8368   -1.8562   -3.2112 C.ar      1 <0>        -0.1599
      7 C6          1.2804   -2.6188   -2.2247 C.ar      1 <0>         0.0104
      8 C7          0.6619   -2.0064   -1.1291 C.ar      1 <0>        -0.2378
      9 C8          0.0677   -2.8282   -0.0619 C.2       1 <0>         0.5777
     10 O2         -0.4739   -2.2937    0.8871 O.2       1 <0>        -0.5075
     11 N1          0.1238   -4.1727   -0.1363 N.am      1 <0>        -0.7330
     12 C9         -0.4675   -4.9905    0.9257 C.3       1 <0>         0.1404
     13 H1         -1.3642   -4.5012    1.3060 H         1 <0>         0.1248
     14 C10         0.5437   -5.1622    2.0629 C.3       1 <0>        -0.1546
     15 C11         1.7671   -5.9184    1.5404 C.3       1 <0>        -0.0167
     16 N2          1.3566   -7.2378    1.0453 N.4       1 <0>        -0.3759
     17 C12         0.4423   -7.0806   -0.0921 C.3       1 <0>        -0.0388
     18 C13        -0.8339   -6.3685    0.3670 C.3       1 <0>         0.0659
     19 H2         -1.3203   -6.9585    1.1438 H         1 <0>         0.1015
     20 O3         -1.7219   -6.2131   -0.7418 O.3       1 <0>        -0.3502
     21 C14        -2.6322   -7.3011   -0.9143 C.3       1 <0>         0.0179
     22 C15         2.5438   -7.9895    0.6171 C.3       1 <0>        -0.0062
     23 C16         3.4343   -8.2703    1.8292 C.3       1 <0>        -0.1507
     24 C17         4.6708   -9.0533    1.3832 C.3       1 <0>         0.0614
     25 O4          5.5024   -9.3155    2.5152 O.3       1 <0>        -0.3099
     26 C18         6.6507  -10.0076    2.2904 C.ar      1 <0>         0.1104
     27 C19         6.9722  -10.4203    1.0058 C.ar      1 <0>        -0.1786
     28 C20         8.1394  -11.1237    0.7787 C.ar      1 <0>        -0.1136
     29 C21         8.9878  -11.4170    1.8328 C.ar      1 <0>         0.0730
     30 C22         8.6679  -11.0061    3.1156 C.ar      1 <0>        -0.1109
     31 C23         7.5046  -10.2969    3.3445 C.ar      1 <0>        -0.1156
     32 F1         10.1287  -12.1053    1.6094 F         1 <0>        -0.1339
     33 Cl1         2.6089   -2.6229   -4.5639 Cl        1 <0>        -0.0623
     34 N3          2.3569    0.3038   -4.1485 N.pl3     1 <0>        -0.8495
     35 H3          1.0053    1.8021    0.0021 H         1 <0>         0.0609
     36 H4         -0.5445    1.7859   -0.8732 H         1 <0>         0.0614
     37 H5         -0.5275    1.7763    0.9067 H         1 <0>         0.1085
     38 H6          1.1342    1.2357   -2.0059 H         1 <0>         0.1464
     39 H7          1.3215   -3.6961   -2.2880 H         1 <0>         0.1333
     40 H8          0.5557   -4.5989   -0.8931 H         1 <0>         0.3942
     41 H9          0.8503   -4.1821    2.4284 H         1 <0>         0.1283
     42 H10         0.0859   -5.7273    2.8748 H         1 <0>         0.1026
     43 H11         2.2242   -5.3523    0.7288 H         1 <0>         0.1317
     44 H12         2.4891   -6.0421    2.3475 H         1 <0>         0.1399
     45 H13         0.9276   -6.4898   -0.8690 H         1 <0>         0.1341
     46 H14         0.1862   -8.0624   -0.4903 H         1 <0>         0.1380
     47 H15        -2.0715   -8.2215   -1.0778 H         1 <0>         0.0481
     48 H16        -3.2481   -7.4047   -0.0210 H         1 <0>         0.0566
     49 H17        -3.2712   -7.1071   -1.7758 H         1 <0>         0.1042
     50 H18         2.2339   -8.9329    0.1676 H         1 <0>         0.1368
     51 H19         3.1003   -7.4039   -0.1147 H         1 <0>         0.1356
     52 H20         3.7442   -7.3269    2.2786 H         1 <0>         0.1012
     53 H21         2.8778   -8.8559    2.5610 H         1 <0>         0.1013
     54 H22         4.3608   -9.9967    0.9337 H         1 <0>         0.0740
     55 H23         5.2272   -8.4676    0.6514 H         1 <0>         0.0740
     56 H24         6.3103  -10.1922    0.1835 H         1 <0>         0.1353
     57 H25         8.3900  -11.4451   -0.2214 H         1 <0>         0.1422
     58 H26         9.3304  -11.2359    3.9370 H         1 <0>         0.1482
     59 H27         7.2577   -9.9722    4.3445 H         1 <0>         0.1439
     60 H28         2.3233    1.2719   -4.0992 H         1 <0>         0.4097
     61 H29         2.7876   -0.1289   -4.9023 H         1 <0>         0.4089
     62 H30         0.8896   -7.7426    1.7837 H         1 <0>         0.4252
@<TRIPOS>BOND
     1    1    2 1
     2    1   35 1
     3    1   36 1
     4    1   37 1
     5    2    3 1
     6    3    8 ar
     7    3    4 ar
     8    4    5 ar
     9    4   38 1
    10    5    6 ar
    11    5   34 1
    12    6    7 ar
    13    6   33 1
    14    7    8 ar
    15    7   39 1
    16    8    9 1
    17    9   10 2
    18    9   11 am
    19   11   12 1
    20   11   40 1
    21   12   13 1
    22   12   18 1
    23   12   14 1
    24   14   15 1
    25   14   41 1
    26   14   42 1
    27   15   16 1
    28   15   43 1
    29   15   44 1
    30   16   17 1
    31   16   22 1
    32   16   62 1
    33   17   18 1
    34   17   45 1
    35   17   46 1
    36   18   19 1
    37   18   20 1
    38   20   21 1
    39   21   47 1
    40   21   48 1
    41   21   49 1
    42   22   23 1
    43   22   50 1
    44   22   51 1
    45   23   24 1
    46   23   52 1
    47   23   53 1
    48   24   25 1
    49   24   54 1
    50   24   55 1
    51   25   26 1
    52   26   31 ar
    53   26   27 ar
    54   27   28 ar
    55   27   56 1
    56   28   29 ar
    57   28   57 1
    58   29   30 ar
    59   29   32 1
    60   30   31 ar
    61   30   58 1
    62   31   59 1
    63   34   60 1
    64   34   61 1
@<TRIPOS>MOLECULE
ZINC03830564
   62    64     0     0     0
SMALL
USER_CHARGES

@<TRIPOS>ATOM
      1 C1         -0.0173    1.4248    0.0099 C.3       1 <0>         0.0173
      2 O1          0.0021   -0.0041    0.0020 O.3       1 <0>        -0.2768
      3 C2          0.6048   -0.6061   -1.0540 C.ar      1 <0>         0.2482
      4 C3          1.1714    0.1577   -2.0595 C.ar      1 <0>        -0.2974
      5 C4          1.7875   -0.4643   -3.1379 C.ar      1 <0>         0.3044
      6 C5          1.8368   -1.8562   -3.2112 C.ar      1 <0>        -0.1594
      7 C6          1.2804   -2.6188   -2.2247 C.ar      1 <0>         0.0124
      8 C7          0.6619   -2.0064   -1.1291 C.ar      1 <0>        -0.2376
      9 C8          0.0677   -2.8282   -0.0619 C.2       1 <0>         0.5803
     10 O2         -0.4739   -2.2937    0.8871 O.2       1 <0>        -0.5144
     11 N1          0.1238   -4.1727   -0.1363 N.am      1 <0>        -0.7279
     12 C9         -0.4675   -4.9905    0.9257 C.3       1 <0>         0.1426
     13 H1         -0.3382   -4.4904    1.8855 H         1 <0>         0.1147
     14 C10        -1.9606   -5.1884    0.6484 C.3       1 <0>        -0.1574
     15 C11        -2.5547   -6.1082    1.7173 C.3       1 <0>        -0.0121
     16 N2         -1.8729   -7.4076    1.6837 N.4       1 <0>        -0.3780
     17 C12        -0.4544   -7.2346    2.0193 C.3       1 <0>        -0.0308
     18 C13         0.2219   -6.3574    0.9634 C.3       1 <0>         0.0634
     19 H2          0.1375   -6.8346   -0.0130 H         1 <0>         0.0897
     20 O3          1.6015   -6.1871    1.2946 O.3       1 <0>        -0.3498
     21 C14         2.4612   -7.1803    0.7321 C.3       1 <0>         0.0175
     22 C15        -2.4981   -8.3123    2.6576 C.3       1 <0>        -0.0056
     23 C16        -3.9400   -8.5999    2.2341 C.3       1 <0>        -0.1510
     24 C17        -4.5912   -9.5422    3.2484 C.3       1 <0>         0.0612
     25 O4         -5.9378   -9.8107    2.8528 O.3       1 <0>        -0.3101
     26 C18        -6.6627  -10.6375    3.6523 C.ar      1 <0>         0.1103
     27 C19        -6.0908  -11.1740    4.7964 C.ar      1 <0>        -0.1786
     28 C20        -6.8286  -12.0140    5.6079 C.ar      1 <0>        -0.1136
     29 C21        -8.1381  -12.3209    5.2793 C.ar      1 <0>         0.0729
     30 C22        -8.7100  -11.7865    4.1373 C.ar      1 <0>        -0.1110
     31 C23        -7.9767  -10.9409    3.3276 C.ar      1 <0>        -0.1157
     32 F1         -8.8583  -13.1429    6.0736 F         1 <0>        -0.1339
     33 Cl1         2.6089   -2.6229   -4.5639 Cl        1 <0>        -0.0612
     34 N3          2.3569    0.3038   -4.1485 N.pl3     1 <0>        -0.8498
     35 H3          1.0053    1.8021    0.0021 H         1 <0>         0.0610
     36 H4         -0.5445    1.7859   -0.8732 H         1 <0>         0.0608
     37 H5         -0.5275    1.7763    0.9067 H         1 <0>         0.1075
     38 H6          1.1342    1.2357   -2.0059 H         1 <0>         0.1460
     39 H7          1.3215   -3.6961   -2.2880 H         1 <0>         0.1366
     40 H8          0.5557   -4.5989   -0.8931 H         1 <0>         0.4011
     41 H9         -2.4669   -4.2235    0.6762 H         1 <0>         0.1280
     42 H10        -2.0914   -5.6407   -0.3346 H         1 <0>         0.0936
     43 H11        -2.4236   -5.6548    2.6998 H         1 <0>         0.1373
     44 H12        -3.6177   -6.2510    1.5230 H         1 <0>         0.1408
     45 H13        -0.3681   -6.7573    2.9954 H         1 <0>         0.1434
     46 H14         0.0331   -8.2090    2.0480 H         1 <0>         0.1370
     47 H15         2.1631   -8.1650    1.0923 H         1 <0>         0.0484
     48 H16         2.3857   -7.1529   -0.3549 H         1 <0>         0.0550
     49 H17         3.4905   -6.9808    1.0300 H         1 <0>         0.1046
     50 H18        -1.9380   -9.2465    2.6975 H         1 <0>         0.1365
     51 H19        -2.4951   -7.8445    3.6421 H         1 <0>         0.1371
     52 H20        -4.5001   -7.6657    2.1942 H         1 <0>         0.1015
     53 H21        -3.9430   -9.0676    1.2495 H         1 <0>         0.1005
     54 H22        -4.0310  -10.4764    3.2882 H         1 <0>         0.0740
     55 H23        -4.5881   -9.0744    4.2329 H         1 <0>         0.0745
     56 H24        -5.0691  -10.9353    5.0526 H         1 <0>         0.1356
     57 H25        -6.3836  -12.4318    6.4989 H         1 <0>         0.1423
     58 H26        -9.7315  -12.0270    3.8820 H         1 <0>         0.1482
     59 H27        -8.4246  -10.5203    2.4394 H         1 <0>         0.1438
     60 H28         2.3233    1.2719   -4.0992 H         1 <0>         0.4092
     61 H29         2.7876   -0.1289   -4.9023 H         1 <0>         0.4089
     62 H30        -1.9528   -7.8044    0.7595 H         1 <0>         0.4239
@<TRIPOS>BOND
     1    1    2 1
     2    1   35 1
     3    1   36 1
     4    1   37 1
     5    2    3 1
     6    3    8 ar
     7    3    4 ar
     8    4    5 ar
     9    4   38 1
    10    5    6 ar
    11    5   34 1
    12    6    7 ar
    13    6   33 1
    14    7    8 ar
    15    7   39 1
    16    8    9 1
    17    9   10 2
    18    9   11 am
    19   11   12 1
    20   11   40 1
    21   12   13 1
    22   12   18 1
    23   12   14 1
    24   14   15 1
    25   14   41 1
    26   14   42 1
    27   15   16 1
    28   15   43 1
    29   15   44 1
    30   16   17 1
    31   16   22 1
    32   16   62 1
    33   17   18 1
    34   17   45 1
    35   17   46 1
    36   18   19 1
    37   18   20 1
    38   20   21 1
    39   21   47 1
    40   21   48 1
    41   21   49 1
    42   22   23 1
    43   22   50 1
    44   22   51 1
    45   23   24 1
    46   23   52 1
    47   23   53 1
    48   24   25 1
    49   24   54 1
    50   24   55 1
    51   25   26 1
    52   26   31 ar
    53   26   27 ar
    54   27   28 ar
    55   27   56 1
    56   28   29 ar
    57   28   57 1
    58   29   30 ar
    59   29   32 1
    60   30   31 ar
    61   30   58 1
    62   31   59 1
    63   34   60 1
    64   34   61 1
