@<TRIPOS>MOLECULE
ZINC04654890
   33    34     0     0     0
SMALL
USER_CHARGES
1,3-dipropyl-7H-purine-2,6-dione
@<TRIPOS>ATOM
      1 C1          4.8600    4.3313   -1.4654 C.3       1 <0>        -0.1475
      2 C2          3.3301    4.3321   -1.4508 C.3       1 <0>        -0.1381
      3 C3          2.8338    4.3259   -0.0036 C.3       1 <0>         0.1189
      4 N1          1.3689    4.3267    0.0104 N.am      1 <0>        -0.5084
      5 C4          0.6765    3.1266    0.0116 C.2       1 <0>         0.3217
      6 C5         -0.7124    3.1538    0.0245 C.2       1 <0>        -0.1544
      7 C6         -1.3758    4.3997    0.0363 C.2       1 <0>         0.5935
      8 O1         -2.5926    4.4497    0.0477 O.2       1 <0>        -0.5123
      9 N2         -0.6460    5.5347    0.0341 N.am      1 <0>        -0.5489
     10 C7          0.6974    5.4937    0.0215 C.2       1 <0>         0.7070
     11 O2          1.3222    6.5369    0.0207 O.2       1 <0>        -0.5292
     12 C8         -1.3282    6.8311    0.0459 C.3       1 <0>         0.1135
     13 C9         -1.5790    7.2886   -1.3924 C.3       1 <0>        -0.1376
     14 C10        -2.2914    8.6425   -1.3801 C.3       1 <0>        -0.1474
     15 N3         -1.1247    1.8363    0.0168 N.pl3     1 <0>        -0.5215
     16 H1         -2.0695    1.5086    0.0176 H         1 <0>         0.4452
     17 C11        -0.0126    1.0758    0.0080 C.2       1 <0>         0.2766
     18 N4          1.0472    1.8436    0.0020 N.2       1 <0>        -0.4997
     19 H2          5.2135    4.3357   -2.4965 H         1 <0>         0.0608
     20 H3          5.2287    5.2188   -0.9511 H         1 <0>         0.0590
     21 H4          5.2277    3.4388   -0.9590 H         1 <0>         0.0591
     22 H5          2.9613    3.4446   -1.9652 H         1 <0>         0.0678
     23 H6          2.9624    5.2246   -1.9572 H         1 <0>         0.0676
     24 H7          3.2025    5.2134    0.5108 H         1 <0>         0.1001
     25 H8          3.2015    3.4334    0.5028 H         1 <0>         0.0990
     26 H9         -2.2803    6.7359    0.5681 H         1 <0>         0.1015
     27 H10        -0.7051    7.5649    0.5572 H         1 <0>         0.1034
     28 H11        -0.6269    7.3837   -1.9146 H         1 <0>         0.0691
     29 H12        -2.2021    6.5548   -1.9037 H         1 <0>         0.0670
     30 H13        -2.4700    8.9685   -2.4047 H         1 <0>         0.0615
     31 H14        -3.2435    8.5474   -0.8579 H         1 <0>         0.0590
     32 H15        -1.6683    9.3763   -0.8688 H         1 <0>         0.0599
     33 H16         0.0021   -0.0041    0.0020 H         1 <0>         0.2343
@<TRIPOS>BOND
     1    1    2 1
     2    1   19 1
     3    1   20 1
     4    1   21 1
     5    2    3 1
     6    2   22 1
     7    2   23 1
     8    3    4 1
     9    3   24 1
    10    3   25 1
    11    4   10 am
    12    4    5 1
    13    5   18 1
    14    5    6 2
    15    6    7 1
    16    6   15 1
    17    7    8 2
    18    7    9 am
    19    9   10 am
    20    9   12 1
    21   10   11 2
    22   12   13 1
    23   12   26 1
    24   12   27 1
    25   13   14 1
    26   13   28 1
    27   13   29 1
    28   14   30 1
    29   14   31 1
    30   14   32 1
    31   15   16 1
    32   15   17 1
    33   17   18 2
    34   17   33 1
