@<TRIPOS>MOLECULE
ZINC04654890
   33    34     0     0     0
SMALL
USER_CHARGES
1,3-dipropyl-7H-purine-2,6-dione
@<TRIPOS>ATOM
      1 C1          4.8600    4.3313   -1.4654 C.3       1 <0>        -0.1475
      2 C2          3.3301    4.3321   -1.4508 C.3       1 <0>        -0.1381
      3 C3          2.8338    4.3259   -0.0036 C.3       1 <0>         0.1189
      4 N1          1.3689    4.3267    0.0104 N.am      1 <0>        -0.5084
      5 C4          0.6765    3.1266    0.0116 C.2       1 <0>         0.3217
      6 C5         -0.7124    3.1538    0.0245 C.2       1 <0>        -0.1544
      7 C6         -1.3758    4.3997    0.0363 C.2       1 <0>         0.5935
      8 O1         -2.5926    4.4497    0.0477 O.2       1 <0>        -0.5123
      9 N2         -0.6460    5.5347    0.0341 N.am      1 <0>        -0.5489
     10 C7          0.6974    5.4937    0.0215 C.2       1 <0>         0.7070
     11 O2          1.3222    6.5369    0.0207 O.2       1 <0>        -0.5292
     12 C8         -1.3282    6.8311    0.0459 C.3       1 <0>         0.1135
     13 C9         -1.5790    7.2886   -1.3924 C.3       1 <0>        -0.1376
     14 C10        -2.2914    8.6425   -1.3801 C.3       1 <0>        -0.1474
     15 N3         -1.1247    1.8363    0.0168 N.pl3     1 <0>        -0.5215
     16 H1         -2.0695    1.5086    0.0176 H         1 <0>         0.4452
     17 C11        -0.0126    1.0758    0.0080 C.2       1 <0>         0.2766
     18 N4          1.0472    1.8436    0.0020 N.2       1 <0>        -0.4997
     19 H2          5.2135    4.3357   -2.4965 H         1 <0>         0.0608
     20 H3          5.2287    5.2188   -0.9511 H         1 <0>         0.0590
     21 H4          5.2277    3.4388   -0.9590 H         1 <0>         0.0591
     22 H5          2.9613    3.4446   -1.9652 H         1 <0>         0.0678
     23 H6          2.9624    5.2246   -1.9572 H         1 <0>         0.0676
     24 H7          3.2025    5.2134    0.5108 H         1 <0>         0.1001
     25 H8          3.2015    3.4334    0.5028 H         1 <0>         0.0990
     26 H9         -2.2803    6.7359    0.5681 H         1 <0>         0.1015
     27 H10        -0.7051    7.5649    0.5572 H         1 <0>         0.1034
     28 H11        -0.6269    7.3837   -1.9146 H         1 <0>         0.0691
     29 H12        -2.2021    6.5548   -1.9037 H         1 <0>         0.0670
     30 H13        -2.4700    8.9685   -2.4047 H         1 <0>         0.0615
     31 H14        -3.2435    8.5474   -0.8579 H         1 <0>         0.0590
     32 H15        -1.6683    9.3763   -0.8688 H         1 <0>         0.0599
     33 H16         0.0021   -0.0041    0.0020 H         1 <0>         0.2343
@<TRIPOS>BOND
     1    1    2 1
     2    1   19 1
     3    1   20 1
     4    1   21 1
     5    2    3 1
     6    2   22 1
     7    2   23 1
     8    3    4 1
     9    3   24 1
    10    3   25 1
    11    4   10 am
    12    4    5 1
    13    5   18 1
    14    5    6 2
    15    6    7 1
    16    6   15 1
    17    7    8 2
    18    7    9 am
    19    9   10 am
    20    9   12 1
    21   10   11 2
    22   12   13 1
    23   12   26 1
    24   12   27 1
    25   13   14 1
    26   13   28 1
    27   13   29 1
    28   14   30 1
    29   14   31 1
    30   14   32 1
    31   15   16 1
    32   15   17 1
    33   17   18 2
    34   17   33 1
@<TRIPOS>MOLECULE
ZINC01996374
   37    39     0     0     0
SMALL
USER_CHARGES

@<TRIPOS>ATOM
      1 C1         -0.0167    1.3781    0.0096 C.ar      1 <0>        -0.1015
      2 C2          1.1709    2.0855    0.0021 C.ar      1 <0>        -0.1129
      3 C3          2.3773    1.4107   -0.0130 C.ar      1 <0>        -0.1085
      4 C4          2.3960    0.0285   -0.0201 C.ar      1 <0>        -0.1079
      5 C5          1.2084   -0.6789   -0.0117 C.ar      1 <0>        -0.1046
      6 C6          0.0021   -0.0041    0.0020 C.ar      1 <0>        -0.1114
      7 C7          3.7112   -0.7071   -0.0376 C.3       1 <0>        -0.0099
      8 H1          4.5257    0.0172   -0.0425 H         1 <0>         0.1065
      9 C8          3.8179   -1.5729    1.2175 C.3       1 <0>        -0.0152
     10 N1          5.2268   -1.6333    1.6211 N.4       1 <0>        -0.5063
     11 C9          6.0321   -2.2539    0.5690 C.3       1 <0>        -0.0080
     12 C10         5.1671   -3.3122   -0.1228 C.3       1 <0>        -0.1081
     13 C11         4.4887   -2.7354   -1.3383 C.ar      1 <0>        -0.0931
     14 C12         3.7905   -1.5495   -1.2871 C.ar      1 <0>        -0.0848
     15 C13         3.1351   -1.0876   -2.4209 C.ar      1 <0>        -0.1103
     16 C14         3.2017   -1.7951   -3.6074 C.ar      1 <0>         0.0976
     17 C15         3.9339   -2.9771   -3.6650 C.ar      1 <0>         0.0992
     18 C16         4.5731   -3.4399   -2.5308 C.ar      1 <0>        -0.1195
     19 O1          4.0217   -3.6712   -4.8311 O.3       1 <0>        -0.4837
     20 O2          2.5544   -1.3380   -4.7126 O.3       1 <0>        -0.4829
     21 H2         -0.9591    1.9053    0.0259 H         1 <0>         0.1303
     22 H3          1.1563    3.1654    0.0076 H         1 <0>         0.1303
     23 H4          3.3051    1.9634   -0.0196 H         1 <0>         0.1248
     24 H5          1.2231   -1.7588   -0.0176 H         1 <0>         0.1221
     25 H6         -0.9258   -0.5567    0.0082 H         1 <0>         0.1298
     26 H7          3.2258   -1.1310    2.0188 H         1 <0>         0.1448
     27 H8          3.4553   -2.5778    1.0012 H         1 <0>         0.1462
     28 H9          5.5652   -0.6983    1.7928 H         1 <0>         0.4310
     29 H10         6.3395   -1.4985   -0.1542 H         1 <0>         0.1347
     30 H11         6.9116   -2.7254    1.0074 H         1 <0>         0.1430
     31 H12         5.7971   -4.1483   -0.4262 H         1 <0>         0.1175
     32 H13         4.4099   -3.6692    0.5753 H         1 <0>         0.1026
     33 H14         2.5688   -0.1691   -2.3758 H         1 <0>         0.1411
     34 H15         5.1405   -4.3579   -2.5725 H         1 <0>         0.1414
     35 H16         4.7700   -3.4136   -5.3869 H         1 <0>         0.3970
     36 H17         3.0865   -0.7486   -5.2645 H         1 <0>         0.3962
     37 H18         5.3085   -2.1759    2.4679 H         1 <0>         0.4322
@<TRIPOS>BOND
     1    1    6 ar
     2    1    2 ar
     3    1   21 1
     4    2    3 ar
     5    2   22 1
     6    3    4 ar
     7    3   23 1
     8    4    5 ar
     9    4    7 1
    10    5    6 ar
    11    5   24 1
    12    6   25 1
    13    7    8 1
    14    7   14 1
    15    7    9 1
    16    9   10 1
    17    9   26 1
    18    9   27 1
    19   10   11 1
    20   10   28 1
    21   10   37 1
    22   11   12 1
    23   11   29 1
    24   11   30 1
    25   12   13 1
    26   12   31 1
    27   12   32 1
    28   13   18 ar
    29   13   14 ar
    30   14   15 ar
    31   15   16 ar
    32   15   33 1
    33   16   17 ar
    34   16   20 1
    35   17   18 ar
    36   17   19 1
    37   18   34 1
    38   19   35 1
    39   20   36 1
@<TRIPOS>MOLECULE
ZINC02017838
   39    41     0     0     0
SMALL
USER_CHARGES

@<TRIPOS>ATOM
      1 C1         -0.6937    1.1592   -0.0446 C.3       1 <0>        -0.0565
      2 N1         -0.3969   -0.2790   -0.0054 N.4       1 <0>        -0.3850
      3 C2         -1.6538   -1.0043   -0.0501 C.3       1 <0>        -0.0076
      4 C3         -1.4199   -2.4952   -0.3132 C.3       1 <0>        -0.1241
      5 C4         -1.1505   -3.1735    1.0151 C.ar      1 <0>        -0.0918
      6 C5         -2.0820   -4.0505    1.5403 C.ar      1 <0>        -0.0811
      7 C6         -1.8332   -4.6676    2.7530 C.ar      1 <0>        -0.0563
      8 C7         -0.6533   -4.4051    3.4363 C.ar      1 <0>         0.1329
      9 C8          0.2760   -3.5241    2.9016 C.ar      1 <0>        -0.1156
     10 C9          0.0175   -2.9133    1.6891 C.ar      1 <0>        -0.0810
     11 C10         1.0293   -1.9515    1.0995 C.3       1 <0>        -0.0159
     12 H1          1.9511   -1.9857    1.6803 H         1 <0>         0.1371
     13 C11         0.4364   -0.5401    1.1546 C.3       1 <0>        -0.0043
     14 C12         1.3158   -2.3287   -0.3312 C.ar      1 <0>        -0.1097
     15 C13         1.8000   -1.3802   -1.2124 C.ar      1 <0>        -0.1733
     16 C14         2.0628   -1.7262   -2.5247 C.ar      1 <0>        -0.0962
     17 C15         1.8417   -3.0209   -2.9556 C.ar      1 <0>        -0.1047
     18 C16         1.3582   -3.9697   -2.0742 C.ar      1 <0>        -0.0974
     19 C17         1.0996   -3.6247   -0.7608 C.ar      1 <0>        -0.0998
     20 O1         -0.4084   -5.0112    4.6281 O.3       1 <0>        -0.4829
     21 Cl1        -2.9964   -5.7696    3.4209 Cl        1 <0>        -0.0327
     22 H2          0.2376    1.7205   -0.1192 H         1 <0>         0.1249
     23 H3         -1.3197    1.3775   -0.9098 H         1 <0>         0.1261
     24 H4         -1.2194    1.4467    0.8659 H         1 <0>         0.1243
     25 H5         -2.1695   -0.8858    0.9029 H         1 <0>         0.1287
     26 H6         -2.2756   -0.5939   -0.8458 H         1 <0>         0.1374
     27 H7         -2.3059   -2.9306   -0.7754 H         1 <0>         0.1178
     28 H8         -0.5608   -2.6221   -0.9718 H         1 <0>         0.1192
     29 H9         -2.9990   -4.2523    1.0065 H         1 <0>         0.1469
     30 H10         1.1951   -3.3169    3.4296 H         1 <0>         0.1482
     31 H11         1.2473    0.1878    1.1838 H         1 <0>         0.1401
     32 H12        -0.1658   -0.4399    2.0576 H         1 <0>         0.1368
     33 H13         1.9728   -0.3686   -0.8757 H         1 <0>         0.1276
     34 H14         2.4405   -0.9849   -3.2133 H         1 <0>         0.1374
     35 H15         2.0463   -3.2910   -3.9811 H         1 <0>         0.1370
     36 H16         1.1852   -4.9811   -2.4110 H         1 <0>         0.1371
     37 H17         0.7254   -4.3669   -0.0712 H         1 <0>         0.1352
     38 H18         0.0553   -5.8562    4.5517 H         1 <0>         0.4036
     39 H19         0.1305   -0.5139   -0.8329 H         1 <0>         0.4177
@<TRIPOS>BOND
     1    1    2 1
     2    1   22 1
     3    1   23 1
     4    1   24 1
     5    2   13 1
     6    2    3 1
     7    2   39 1
     8    3    4 1
     9    3   25 1
    10    3   26 1
    11    4    5 1
    12    4   27 1
    13    4   28 1
    14    5   10 ar
    15    5    6 ar
    16    6    7 ar
    17    6   29 1
    18    7    8 ar
    19    7   21 1
    20    8    9 ar
    21    8   20 1
    22    9   10 ar
    23    9   30 1
    24   10   11 1
    25   11   12 1
    26   11   13 1
    27   11   14 1
    28   13   31 1
    29   13   32 1
    30   14   19 ar
    31   14   15 ar
    32   15   16 ar
    33   15   33 1
    34   16   17 ar
    35   16   34 1
    36   17   18 ar
    37   17   35 1
    38   18   19 ar
    39   18   36 1
    40   19   37 1
    41   20   38 1
