@<TRIPOS>MOLECULE
ZINC00020245
   46    48     0     0     0
SMALL
USER_CHARGES

@<TRIPOS>ATOM
      1 C1         -5.6836    1.3838    0.0162 C.3       1 <0>        -0.0473
      2 N1         -5.6620   -0.0833   -0.0564 N.4       1 <0>        -0.3868
      3 C2         -6.3713   -0.5242   -1.2649 C.3       1 <0>        -0.0522
      4 C3         -4.2702   -0.5505   -0.1076 C.3       1 <0>        -0.0086
      5 C4         -4.2434   -2.0795   -0.0575 C.3       1 <0>        -0.1781
      6 C5         -2.7938   -2.5661   -0.1108 C.3       1 <0>         0.1490
      7 N2         -2.7704   -4.0309   -0.1190 N.pl3     1 <0>        -0.6108
      8 C6         -2.7295   -4.7451   -1.3212 C.ar      1 <0>         0.1758
      9 C7         -1.6865   -4.4783   -2.2022 C.ar      1 <0>        -0.1411
     10 C8         -1.5734   -5.1772   -3.3856 C.ar      1 <0>        -0.1022
     11 C9         -2.5089   -6.1508   -3.6854 C.ar      1 <0>        -0.1266
     12 C10        -3.5489   -6.4041   -2.8209 C.ar      1 <0>        -0.1101
     13 C11        -3.6933   -5.6947   -1.6266 C.ar      1 <0>        -0.0998
     14 C12        -4.9357   -6.0340   -0.8354 C.3       1 <0>        -0.0687
     15 C13        -5.1005   -5.1892    0.4158 C.3       1 <0>        -0.0773
     16 C14        -3.9592   -5.4030    1.3779 C.ar      1 <0>        -0.0996
     17 C15        -2.7824   -4.7590    1.0748 C.ar      1 <0>         0.1523
     18 C16        -1.6837   -4.8488    1.9126 C.ar      1 <0>        -0.1184
     19 C17        -1.7825   -5.6251    3.0560 C.ar      1 <0>        -0.1094
     20 C18        -2.9565   -6.2950    3.3488 C.ar      1 <0>        -0.1165
     21 C19        -4.0679   -6.1865    2.5030 C.ar      1 <0>        -0.1028
     22 H1         -6.7163    1.7305    0.0542 H         1 <0>         0.1245
     23 H2         -5.1573    1.7109    0.9129 H         1 <0>         0.1235
     24 H3         -5.1933    1.7984   -0.8646 H         1 <0>         0.1221
     25 H4         -6.3552   -1.6128   -1.3188 H         1 <0>         0.1231
     26 H5         -7.4040   -0.1775   -1.2269 H         1 <0>         0.1246
     27 H6         -5.8810   -0.1096   -2.1457 H         1 <0>         0.1227
     28 H7         -3.8061   -0.2091   -1.0329 H         1 <0>         0.1308
     29 H8         -3.7207   -0.1494    0.7440 H         1 <0>         0.1320
     30 H9         -4.7075   -2.4209    0.8678 H         1 <0>         0.0908
     31 H10        -4.7929   -2.4806   -0.9091 H         1 <0>         0.0915
     32 H11        -2.3174   -2.1901   -1.0161 H         1 <0>         0.0824
     33 H12        -2.2550   -2.1990    0.7627 H         1 <0>         0.0801
     34 H13        -0.9599   -3.7176   -1.9576 H         1 <0>         0.1215
     35 H14        -0.7646   -4.9667   -4.0697 H         1 <0>         0.1276
     36 H15        -2.4229   -6.7145   -4.6025 H         1 <0>         0.1250
     37 H16        -4.2693   -7.1687   -3.0712 H         1 <0>         0.1222
     38 H17        -5.8074   -5.8880   -1.4734 H         1 <0>         0.0793
     39 H18        -4.8898   -7.0837   -0.5452 H         1 <0>         0.0765
     40 H19        -5.1365   -4.1371    0.1334 H         1 <0>         0.0724
     41 H20        -6.0358   -5.4578    0.9068 H         1 <0>         0.0709
     42 H21        -0.7686   -4.3248    1.6795 H         1 <0>         0.1257
     43 H22        -0.9372   -5.7074    3.7231 H         1 <0>         0.1275
     44 H23        -3.0178   -6.9071    4.2365 H         1 <0>         0.1269
     45 H24        -4.9880   -6.7067    2.7249 H         1 <0>         0.1290
     46 H25        -6.1159   -0.4671    0.7589 H         1 <0>         0.4268
@<TRIPOS>BOND
     1    1    2 1
     2    1   22 1
     3    1   23 1
     4    1   24 1
     5    2    3 1
     6    2    4 1
     7    2   46 1
     8    3   25 1
     9    3   26 1
    10    3   27 1
    11    4    5 1
    12    4   28 1
    13    4   29 1
    14    5    6 1
    15    5   30 1
    16    5   31 1
    17    6    7 1
    18    6   32 1
    19    6   33 1
    20    7   17 1
    21    7    8 1
    22    8   13 ar
    23    8    9 ar
    24    9   10 ar
    25    9   34 1
    26   10   11 ar
    27   10   35 1
    28   11   12 ar
    29   11   36 1
    30   12   13 ar
    31   12   37 1
    32   13   14 1
    33   14   15 1
    34   14   38 1
    35   14   39 1
    36   15   16 1
    37   15   40 1
    38   15   41 1
    39   16   21 ar
    40   16   17 ar
    41   17   18 ar
    42   18   19 ar
    43   18   42 1
    44   19   20 ar
    45   19   43 1
    46   20   21 ar
    47   20   44 1
    48   21   45 1
@<TRIPOS>MOLECULE
ZINC04654890
   33    34     0     0     0
SMALL
USER_CHARGES
1,3-dipropyl-7H-purine-2,6-dione
@<TRIPOS>ATOM
      1 C1          4.8600    4.3313   -1.4654 C.3       1 <0>        -0.1475
      2 C2          3.3301    4.3321   -1.4508 C.3       1 <0>        -0.1381
      3 C3          2.8338    4.3259   -0.0036 C.3       1 <0>         0.1189
      4 N1          1.3689    4.3267    0.0104 N.am      1 <0>        -0.5084
      5 C4          0.6765    3.1266    0.0116 C.2       1 <0>         0.3217
      6 C5         -0.7124    3.1538    0.0245 C.2       1 <0>        -0.1544
      7 C6         -1.3758    4.3997    0.0363 C.2       1 <0>         0.5935
      8 O1         -2.5926    4.4497    0.0477 O.2       1 <0>        -0.5123
      9 N2         -0.6460    5.5347    0.0341 N.am      1 <0>        -0.5489
     10 C7          0.6974    5.4937    0.0215 C.2       1 <0>         0.7070
     11 O2          1.3222    6.5369    0.0207 O.2       1 <0>        -0.5292
     12 C8         -1.3282    6.8311    0.0459 C.3       1 <0>         0.1135
     13 C9         -1.5790    7.2886   -1.3924 C.3       1 <0>        -0.1376
     14 C10        -2.2914    8.6425   -1.3801 C.3       1 <0>        -0.1474
     15 N3         -1.1247    1.8363    0.0168 N.pl3     1 <0>        -0.5215
     16 H1         -2.0695    1.5086    0.0176 H         1 <0>         0.4452
     17 C11        -0.0126    1.0758    0.0080 C.2       1 <0>         0.2766
     18 N4          1.0472    1.8436    0.0020 N.2       1 <0>        -0.4997
     19 H2          5.2135    4.3357   -2.4965 H         1 <0>         0.0608
     20 H3          5.2287    5.2188   -0.9511 H         1 <0>         0.0590
     21 H4          5.2277    3.4388   -0.9590 H         1 <0>         0.0591
     22 H5          2.9613    3.4446   -1.9652 H         1 <0>         0.0678
     23 H6          2.9624    5.2246   -1.9572 H         1 <0>         0.0676
     24 H7          3.2025    5.2134    0.5108 H         1 <0>         0.1001
     25 H8          3.2015    3.4334    0.5028 H         1 <0>         0.0990
     26 H9         -2.2803    6.7359    0.5681 H         1 <0>         0.1015
     27 H10        -0.7051    7.5649    0.5572 H         1 <0>         0.1034
     28 H11        -0.6269    7.3837   -1.9146 H         1 <0>         0.0691
     29 H12        -2.2021    6.5548   -1.9037 H         1 <0>         0.0670
     30 H13        -2.4700    8.9685   -2.4047 H         1 <0>         0.0615
     31 H14        -3.2435    8.5474   -0.8579 H         1 <0>         0.0590
     32 H15        -1.6683    9.3763   -0.8688 H         1 <0>         0.0599
     33 H16         0.0021   -0.0041    0.0020 H         1 <0>         0.2343
@<TRIPOS>BOND
     1    1    2 1
     2    1   19 1
     3    1   20 1
     4    1   21 1
     5    2    3 1
     6    2   22 1
     7    2   23 1
     8    3    4 1
     9    3   24 1
    10    3   25 1
    11    4   10 am
    12    4    5 1
    13    5   18 1
    14    5    6 2
    15    6    7 1
    16    6   15 1
    17    7    8 2
    18    7    9 am
    19    9   10 am
    20    9   12 1
    21   10   11 2
    22   12   13 1
    23   12   26 1
    24   12   27 1
    25   13   14 1
    26   13   28 1
    27   13   29 1
    28   14   30 1
    29   14   31 1
    30   14   32 1
    31   15   16 1
    32   15   17 1
    33   17   18 2
    34   17   33 1
@<TRIPOS>MOLECULE
ZINC00020248
   46    48     0     0     0
SMALL
USER_CHARGES

@<TRIPOS>ATOM
      1 C1         -5.6600    1.3618    0.4597 C.3       1 <0>        -0.0474
      2 N1         -5.6471   -0.0878    0.2218 N.4       1 <0>        -0.3867
      3 C2         -6.3574   -0.3850   -1.0293 C.3       1 <0>        -0.0523
      4 C3         -4.2581   -0.5548    0.1191 C.3       1 <0>        -0.0083
      5 C4         -4.2405   -2.0797   -0.0038 C.3       1 <0>        -0.1741
      6 C5         -2.7938   -2.5661   -0.1108 C.3       1 <0>         0.1309
      7 N2         -2.7704   -4.0309   -0.1190 N.pl3     1 <0>        -0.5935
      8 C6         -2.7303   -4.6837   -1.3451 C.ar      1 <0>         0.1859
      9 C7         -1.8260   -4.1660   -2.2811 C.ar      1 <0>        -0.1574
     10 C8         -1.6797   -4.7476   -3.5192 C.ar      1 <0>        -0.0952
     11 C9         -2.4365   -5.8609   -3.8384 C.ar      1 <0>        -0.1332
     12 C10        -3.3330   -6.3646   -2.9249 C.ar      1 <0>        -0.0999
     13 C11        -3.5037   -5.7750   -1.6688 C.ar      1 <0>        -0.1089
     14 C12        -4.5743   -6.4166   -0.8216 C.3       1 <0>        -0.0721
     15 C13        -4.9918   -5.6033    0.3783 C.3       1 <0>        -0.0690
     16 C14        -3.8887   -5.4681    1.3836 C.ar      1 <0>        -0.0980
     17 C15        -2.7839   -4.6994    1.1019 C.ar      1 <0>         0.1741
     18 C16        -1.7322   -4.5882    1.9998 C.ar      1 <0>        -0.1187
     19 C17        -1.8086   -5.2524    3.2126 C.ar      1 <0>        -0.0223
     20 C18        -2.9248   -6.0132    3.5136 C.ar      1 <0>        -0.1131
     21 C19        -3.9754   -6.1256    2.6005 C.ar      1 <0>        -0.0889
     22 Cl1        -0.5058   -5.1313    4.3535 Cl        1 <0>        -0.0554
     23 H1         -6.6906    1.7083    0.5359 H         1 <0>         0.1247
     24 H2         -5.1330    1.5823    1.3879 H         1 <0>         0.1236
     25 H3         -5.1660    1.8703   -0.3683 H         1 <0>         0.1224
     26 H4         -5.8633    0.1235   -1.8572 H         1 <0>         0.1230
     27 H5         -6.3478   -1.4606   -1.2058 H         1 <0>         0.1233
     28 H6         -7.3880   -0.0385   -0.9531 H         1 <0>         0.1247
     29 H7         -3.7907   -0.1139   -0.7614 H         1 <0>         0.1315
     30 H8         -3.7074   -0.2558    1.0110 H         1 <0>         0.1322
     31 H9         -4.7079   -2.5206    0.8766 H         1 <0>         0.0896
     32 H10        -4.7912   -2.3787   -0.8957 H         1 <0>         0.0908
     33 H11        -2.3515   -2.1905   -1.0335 H         1 <0>         0.0902
     34 H12        -2.2229   -2.1984    0.7418 H         1 <0>         0.0815
     35 H13        -1.2357   -3.2979   -2.0274 H         1 <0>         0.1217
     36 H14        -0.9815   -4.3392   -4.2348 H         1 <0>         0.1273
     37 H15        -2.3238   -6.3333   -4.8030 H         1 <0>         0.1262
     38 H16        -3.9182   -7.2346   -3.1839 H         1 <0>         0.1241
     39 H17        -5.4518   -6.5884   -1.4450 H         1 <0>         0.0825
     40 H18        -4.2074   -7.3823   -0.4739 H         1 <0>         0.0763
     41 H19        -5.2905   -4.6094    0.0453 H         1 <0>         0.0673
     42 H20        -5.8457   -6.0866    0.8532 H         1 <0>         0.0790
     43 H21        -0.8653   -3.9919    1.7562 H         1 <0>         0.1372
     44 H22        -2.9858   -6.5230    4.4638 H         1 <0>         0.1382
     45 H23        -4.8449   -6.7215    2.8354 H         1 <0>         0.1390
     46 H24        -6.1044   -0.5585    0.9882 H         1 <0>         0.4269
@<TRIPOS>BOND
     1    1    2 1
     2    1   23 1
     3    1   24 1
     4    1   25 1
     5    2    3 1
     6    2    4 1
     7    2   46 1
     8    3   26 1
     9    3   27 1
    10    3   28 1
    11    4    5 1
    12    4   29 1
    13    4   30 1
    14    5    6 1
    15    5   31 1
    16    5   32 1
    17    6    7 1
    18    6   33 1
    19    6   34 1
    20    7   17 1
    21    7    8 1
    22    8   13 ar
    23    8    9 ar
    24    9   10 ar
    25    9   35 1
    26   10   11 ar
    27   10   36 1
    28   11   12 ar
    29   11   37 1
    30   12   13 ar
    31   12   38 1
    32   13   14 1
    33   14   15 1
    34   14   39 1
    35   14   40 1
    36   15   16 1
    37   15   41 1
    38   15   42 1
    39   16   21 ar
    40   16   17 ar
    41   17   18 ar
    42   18   19 ar
    43   18   43 1
    44   19   20 ar
    45   19   22 1
    46   20   21 ar
    47   20   44 1
    48   21   45 1
@<TRIPOS>MOLECULE
ZINC01530741
   42    44     0     0     0
SMALL
USER_CHARGES

@<TRIPOS>ATOM
      1 C1         -0.0178    1.4648    0.0101 C.3       1 <0>        -0.0473
      2 N1          0.0021   -0.0041    0.0020 N.4       1 <0>        -0.5104
      3 C2         -1.3761   -0.5125    0.0124 C.3       1 <0>        -0.0075
      4 C3         -1.3553   -2.0424    0.0040 C.3       1 <0>        -0.1205
      5 C4         -2.7691   -2.5640    0.0147 C.2       1 <0>        -0.1701
      6 C5         -3.1759   -3.4141   -0.9354 C.2       1 <0>         0.0084
      7 C6         -2.2617   -3.8737   -2.0162 C.ar      1 <0>        -0.0603
      8 C7         -1.0502   -4.4584   -1.6510 C.ar      1 <0>        -0.1120
      9 C8         -0.1817   -4.9254   -2.6144 C.ar      1 <0>        -0.1225
     10 C9         -0.5309   -4.8091   -3.9481 C.ar      1 <0>        -0.1072
     11 C10        -1.7216   -4.2226   -4.3099 C.ar      1 <0>        -0.1263
     12 C11        -2.6129   -3.7258   -3.3561 C.ar      1 <0>        -0.0535
     13 C12        -3.8344   -3.0498   -3.9297 C.3       1 <0>        -0.0765
     14 C13        -4.7567   -2.4533   -2.8869 C.3       1 <0>        -0.0806
     15 C14        -5.3648   -3.4987   -1.9877 C.ar      1 <0>        -0.0737
     16 C15        -4.5615   -3.9515   -0.9605 C.ar      1 <0>        -0.0697
     17 C16        -5.0352   -4.8627   -0.0270 C.ar      1 <0>        -0.0955
     18 C17        -6.3272   -5.3414   -0.1696 C.ar      1 <0>        -0.1191
     19 C18        -7.1195   -4.9199   -1.2225 C.ar      1 <0>        -0.1080
     20 C19        -6.6408   -3.9814   -2.1491 C.ar      1 <0>        -0.1083
     21 H1          1.0047    1.8421    0.0024 H         1 <0>         0.1266
     22 H2         -0.5450    1.8259   -0.8730 H         1 <0>         0.1232
     23 H3         -0.5280    1.8163    0.9069 H         1 <0>         0.1239
     24 H4          0.4744   -0.3295   -0.8281 H         1 <0>         0.4301
     25 H5         -1.8863   -0.1610    0.9092 H         1 <0>         0.1332
     26 H6         -1.9033   -0.1515   -0.8706 H         1 <0>         0.1314
     27 H7         -0.8451   -2.3939   -0.8928 H         1 <0>         0.0991
     28 H8         -0.8281   -2.4035    0.8871 H         1 <0>         0.0962
     29 H9         -3.4541   -2.2517    0.7892 H         1 <0>         0.1310
     30 H10        -0.7900   -4.5458   -0.6065 H         1 <0>         0.1235
     31 H11         0.7582   -5.3762   -2.3319 H         1 <0>         0.1290
     32 H12         0.1367   -5.1814   -4.7112 H         1 <0>         0.1265
     33 H13        -1.9733   -4.1443   -5.3573 H         1 <0>         0.1247
     34 H14        -3.5084   -2.2546   -4.6003 H         1 <0>         0.0855
     35 H15        -4.3952   -3.7815   -4.5113 H         1 <0>         0.0834
     36 H16        -4.1905   -1.7497   -2.2766 H         1 <0>         0.0703
     37 H17        -5.5577   -1.9136   -3.3920 H         1 <0>         0.0793
     38 H18        -4.4114   -5.1904    0.7915 H         1 <0>         0.1267
     39 H19        -6.7188   -6.0491    0.5460 H         1 <0>         0.1278
     40 H20        -8.1181   -5.3161   -1.3327 H         1 <0>         0.1275
     41 H21        -7.2557   -3.6486   -2.9723 H         1 <0>         0.1315
     42 H22         0.4901   -0.3383    0.8195 H         1 <0>         0.4302
@<TRIPOS>BOND
     1    1    2 1
     2    1   21 1
     3    1   22 1
     4    1   23 1
     5    2    3 1
     6    2   24 1
     7    2   42 1
     8    3    4 1
     9    3   25 1
    10    3   26 1
    11    4    5 1
    12    4   27 1
    13    4   28 1
    14    5    6 2
    15    5   29 1
    16    6   16 1
    17    6    7 1
    18    7   12 ar
    19    7    8 ar
    20    8    9 ar
    21    8   30 1
    22    9   10 ar
    23    9   31 1
    24   10   11 ar
    25   10   32 1
    26   11   12 ar
    27   11   33 1
    28   12   13 1
    29   13   14 1
    30   13   34 1
    31   13   35 1
    32   14   15 1
    33   14   36 1
    34   14   37 1
    35   15   20 ar
    36   15   16 ar
    37   16   17 ar
    38   17   18 ar
    39   17   38 1
    40   18   19 ar
    41   18   39 1
    42   19   20 ar
    43   19   40 1
    44   20   41 1
@<TRIPOS>MOLECULE
ZINC03977779
   63    65     0     0     0
SMALL
USER_CHARGES

@<TRIPOS>ATOM
      1 C1         -0.3421    1.1869    0.2859 C.3       1 <0>        -0.1475
      2 C2         -0.2617   -0.3167    0.2237 C.2       1 <0>         0.4558
      3 O1          0.8154   -0.8631    0.1874 O.2       1 <0>        -0.5049
      4 O2         -1.3865   -1.0489    0.2085 O.3       1 <0>        -0.3403
      5 C3         -1.2353   -2.4728    0.1486 C.3       1 <0>         0.0778
      6 H1         -0.3102   -2.6986   -0.3931 H         1 <0>         0.1039
      7 C4         -1.1285   -3.0264    1.5702 C.3       1 <0>         0.1104
      8 H2         -0.1735   -2.6487    1.9817 H         1 <0>         0.0649
      9 C5         -1.0835   -4.5458    1.5571 C.3       1 <0>        -0.0493
     10 H3         -0.2342   -4.7938    0.8566 H         1 <0>         0.0989
     11 C6         -2.3184   -5.1440    0.8914 C.3       1 <0>         0.0059
     12 C7         -2.1617   -6.6734    0.8265 C.3       1 <0>         0.1128
     13 H4         -3.0593   -7.1031    0.3823 H         1 <0>         0.0551
     14 C8         -1.9804   -7.2275    2.2409 C.3       1 <0>        -0.1539
     15 C9         -0.6811   -6.6893    2.8288 C.3       1 <0>        -0.1029
     16 C10        -0.6780   -5.1589    2.8784 C.3       1 <0>        -0.0406
     17 C11         0.7838   -4.7423    3.1782 C.3       1 <0>        -0.1508
     18 C12        -1.5256   -4.6936    4.0610 C.3       1 <0>        -0.1451
     19 O3         -1.0218   -7.0349    0.0487 O.3       1 <0>        -0.5368
     20 C13        -2.4091   -4.5907   -0.5195 C.3       1 <0>         0.0885
     21 C14        -2.4137   -3.0666   -0.6181 C.3       1 <0>         0.1325
     22 O4         -2.2742   -2.7400   -2.0021 O.3       1 <0>        -0.3750
     23 C15        -3.0942   -3.2887   -3.0045 C.3       1 <0>         0.1660
     24 C16        -3.5974   -4.7089   -2.7733 C.3       1 <0>        -0.2107
     25 C17        -3.6142   -5.0656   -1.2984 C.2       1 <0>         0.3540
     26 O5         -4.5252   -5.6915   -0.8243 O.2       1 <0>        -0.4181
     27 C18        -4.3008   -2.3746   -3.2819 C.3       1 <0>        -0.1690
     28 C19        -2.2780   -3.3133   -4.2960 C.2       1 <0>        -0.1763
     29 C20        -1.0467   -2.8659   -4.3014 C.2       1 <0>        -0.1594
     30 C21        -3.7139   -2.4380   -0.1237 C.3       1 <0>        -0.1878
     31 O6         -1.2414   -5.0315   -1.2578 O.3       1 <0>        -0.5121
     32 C22        -3.5921   -4.8624    1.6912 C.3       1 <0>        -0.1775
     33 O7         -2.1692   -2.4984    2.3823 O.3       1 <0>        -0.5404
     34 H5          0.6647    1.6047    0.2898 H         1 <0>         0.1027
     35 H6         -0.8861    1.5579   -0.5827 H         1 <0>         0.1018
     36 H7         -0.8630    1.4855    1.1956 H         1 <0>         0.1014
     37 H8         -2.8234   -6.9912    2.8764 H         1 <0>         0.0776
     38 H9         -1.9065   -8.3228    2.1734 H         1 <0>         0.0605
     39 H10        -0.5577   -7.0752    3.8454 H         1 <0>         0.0618
     40 H11         0.1641   -7.0289    2.2261 H         1 <0>         0.0689
     41 H12         0.8477   -3.6557    3.2346 H         1 <0>         0.0522
     42 H13         1.0971   -5.1745    4.1286 H         1 <0>         0.0576
     43 H14         1.4351   -5.1038    2.3824 H         1 <0>         0.0556
     44 H15        -2.5517   -5.0373    3.9302 H         1 <0>         0.0588
     45 H16        -1.1190   -5.1066    4.9842 H         1 <0>         0.0474
     46 H17        -1.5108   -3.6049    4.1126 H         1 <0>         0.0701
     47 H18        -0.8804   -7.9889   -0.0219 H         1 <0>         0.3676
     48 H19        -4.6100   -4.8099   -3.1763 H         1 <0>         0.1099
     49 H20        -2.9486   -5.4160   -3.3018 H         1 <0>         0.1157
     50 H21        -3.9481   -1.3973   -3.6114 H         1 <0>         0.0704
     51 H22        -4.9214   -2.8183   -4.0604 H         1 <0>         0.0706
     52 H23        -4.8875   -2.2607   -2.3703 H         1 <0>         0.0625
     53 H24        -2.7162   -3.6995   -5.2045 H         1 <0>         0.1250
     54 H25        -0.6086   -2.4797   -3.3929 H         1 <0>         0.1095
     55 H26        -0.4699   -2.8833   -5.2142 H         1 <0>         0.1009
     56 H27        -3.7493   -1.3913   -0.4257 H         1 <0>         0.0817
     57 H28        -4.5618   -2.9696   -0.5557 H         1 <0>         0.0534
     58 H29        -3.7592   -2.5043    0.9634 H         1 <0>         0.1023
     59 H30        -1.2157   -4.7230   -2.1739 H         1 <0>         0.3695
     60 H31        -3.6605   -3.7951    1.9015 H         1 <0>         0.0947
     61 H32        -4.4612   -5.1752    1.1125 H         1 <0>         0.0717
     62 H33        -3.5618   -5.4164    2.6295 H         1 <0>         0.0736
     63 H34        -2.1590   -1.5344    2.4572 H         1 <0>         0.3762
@<TRIPOS>BOND
     1    1    2 1
     2    1   34 1
     3    1   35 1
     4    1   36 1
     5    2    3 2
     6    2    4 1
     7    4    5 1
     8    5    6 1
     9    5   21 1
    10    5    7 1
    11    7    8 1
    12    7    9 1
    13    7   33 1
    14    9   10 1
    15    9   16 1
    16    9   11 1
    17   11   12 1
    18   11   20 1
    19   11   32 1
    20   12   13 1
    21   12   14 1
    22   12   19 1
    23   14   15 1
    24   14   37 1
    25   14   38 1
    26   15   16 1
    27   15   39 1
    28   15   40 1
    29   16   17 1
    30   16   18 1
    31   17   41 1
    32   17   42 1
    33   17   43 1
    34   18   44 1
    35   18   45 1
    36   18   46 1
    37   19   47 1
    38   20   25 1
    39   20   21 1
    40   20   31 1
    41   21   22 1
    42   21   30 1
    43   22   23 1
    44   23   24 1
    45   23   27 1
    46   23   28 1
    47   24   25 1
    48   24   48 1
    49   24   49 1
    50   25   26 2
    51   27   50 1
    52   27   51 1
    53   27   52 1
    54   28   29 2
    55   28   53 1
    56   29   54 1
    57   29   55 1
    58   30   56 1
    59   30   57 1
    60   30   58 1
    61   31   59 1
    62   32   60 1
    63   32   61 1
    64   32   62 1
    65   33   63 1
@<TRIPOS>MOLECULE
ZINC00968257
   45    47     0     0     0
SMALL
USER_CHARGES

@<TRIPOS>ATOM
      1 C1         -0.0178    1.4648    0.0101 C.3       1 <0>        -0.0532
      2 N1          0.0021   -0.0041    0.0020 N.4       1 <0>        -0.3871
      3 C2         -1.3761   -0.5125    0.0124 C.3       1 <0>        -0.0473
      4 C3          0.6897   -0.4778   -1.2066 C.3       1 <0>        -0.0075
      5 C4          2.1588   -0.0534   -1.1571 C.3       1 <0>        -0.1202
      6 C5          2.8641   -0.5394   -2.3970 C.2       1 <0>        -0.1679
      7 C6          3.5250    0.3270   -3.1738 C.2       1 <0>         0.0063
      8 C7          3.5927    1.7771   -2.8453 C.ar      1 <0>        -0.0588
      9 C8          4.0673    2.1470   -1.5880 C.ar      1 <0>        -0.1130
     10 C9          4.1752    3.4781   -1.2462 C.ar      1 <0>        -0.1230
     11 C10         3.8096    4.4415   -2.1695 C.ar      1 <0>        -0.1074
     12 C11         3.3311    4.0773   -3.4068 C.ar      1 <0>        -0.1261
     13 C12         3.1954    2.7364   -3.7740 C.ar      1 <0>        -0.0534
     14 C13         2.5869    2.5170   -5.1377 C.3       1 <0>        -0.0764
     15 C14         2.3799    1.0595   -5.4939 C.3       1 <0>        -0.0807
     16 C15         3.6776    0.3005   -5.5991 C.ar      1 <0>        -0.0737
     17 C16         4.2334   -0.1117   -4.4047 C.ar      1 <0>        -0.0690
     18 C17         5.3905   -0.8775   -4.3777 C.ar      1 <0>        -0.0956
     19 C18         6.0025   -1.1900   -5.5806 C.ar      1 <0>        -0.1191
     20 C19         5.4694   -0.7426   -6.7762 C.ar      1 <0>        -0.1081
     21 C20         4.2868    0.0121   -6.7962 C.ar      1 <0>        -0.1083
     22 H1          1.0047    1.8421    0.0024 H         1 <0>         0.1238
     23 H2         -0.5450    1.8259   -0.8730 H         1 <0>         0.1221
     24 H3         -0.5280    1.8163    0.9069 H         1 <0>         0.1250
     25 H4         -1.9033   -0.1515   -0.8706 H         1 <0>         0.1216
     26 H5         -1.3613   -1.6024    0.0065 H         1 <0>         0.1236
     27 H6         -1.8863   -0.1610    0.9092 H         1 <0>         0.1246
     28 H7          0.6270   -1.5648   -1.2578 H         1 <0>         0.1321
     29 H8          0.2158   -0.0447   -2.0875 H         1 <0>         0.1294
     30 H9          2.2214    1.0336   -1.1059 H         1 <0>         0.0996
     31 H10         2.6326   -0.4865   -0.2761 H         1 <0>         0.0954
     32 H11         2.8363   -1.5868   -2.6585 H         1 <0>         0.1308
     33 H12         4.3519    1.3857   -0.8767 H         1 <0>         0.1233
     34 H13         4.5405    3.7651   -0.2712 H         1 <0>         0.1290
     35 H14         3.9003    5.4876   -1.9168 H         1 <0>         0.1264
     36 H15         3.0534    4.8470   -4.1116 H         1 <0>         0.1247
     37 H16         1.6223    3.0233   -5.1729 H         1 <0>         0.0854
     38 H17         3.2393    2.9678   -5.8855 H         1 <0>         0.0834
     39 H18         1.7604    0.5939   -4.7274 H         1 <0>         0.0703
     40 H19         1.8587    1.0007   -6.4494 H         1 <0>         0.0792
     41 H20         5.8038   -1.2219   -3.4413 H         1 <0>         0.1267
     42 H21         6.9025   -1.7870   -5.5850 H         1 <0>         0.1278
     43 H22         5.9677   -0.9772   -7.7052 H         1 <0>         0.1274
     44 H23         3.8663    0.3630   -7.7270 H         1 <0>         0.1314
     45 H24         0.4901   -0.3383    0.8195 H         1 <0>         0.4266
@<TRIPOS>BOND
     1    1    2 1
     2    1   22 1
     3    1   23 1
     4    1   24 1
     5    2    3 1
     6    2    4 1
     7    2   45 1
     8    3   25 1
     9    3   26 1
    10    3   27 1
    11    4    5 1
    12    4   28 1
    13    4   29 1
    14    5    6 1
    15    5   30 1
    16    5   31 1
    17    6    7 2
    18    6   32 1
    19    7   17 1
    20    7    8 1
    21    8   13 ar
    22    8    9 ar
    23    9   10 ar
    24    9   33 1
    25   10   11 ar
    26   10   34 1
    27   11   12 ar
    28   11   35 1
    29   12   13 ar
    30   12   36 1
    31   13   14 1
    32   14   15 1
    33   14   37 1
    34   14   38 1
    35   15   16 1
    36   15   39 1
    37   15   40 1
    38   16   21 ar
    39   16   17 ar
    40   17   18 ar
    41   18   19 ar
    42   18   41 1
    43   19   20 ar
    44   19   42 1
    45   20   21 ar
    46   20   43 1
    47   21   44 1
@<TRIPOS>MOLECULE
ZINC00000504
   41    44     0     0     0
SMALL
USER_CHARGES

@<TRIPOS>ATOM
      1 C1         -0.0178    1.4648    0.0101 C.3       1 <0>        -0.0457
      2 N1          0.0021   -0.0041    0.0020 N.4       1 <0>        -0.3851
      3 C2         -1.3782   -0.5248    0.0610 C.3       1 <0>        -0.0107
      4 C3         -1.3147   -2.0017   -0.3247 C.3       1 <0>         0.1097
      5 N2         -0.2536   -2.6823    0.4304 N.pl3     1 <0>        -0.6570
      6 C4         -0.1632   -4.0681    0.2474 C.ar      1 <0>         0.1515
      7 C5          0.1651   -4.5655   -1.0110 C.ar      1 <0>        -0.1283
      8 C6          0.3219   -5.9257   -1.1894 C.ar      1 <0>        -0.1053
      9 C7          0.1595   -6.7897   -0.1216 C.ar      1 <0>        -0.1122
     10 C8         -0.1903   -6.2968    1.1226 C.ar      1 <0>        -0.0978
     11 C9         -0.3794   -4.9379    1.2936 C.ar      1 <0>        -0.0863
     12 C10        -0.9055   -4.4020    2.5876 C.3       1 <0>        -0.0401
     13 C11         0.0255   -3.4607    3.2849 C.ar      1 <0>        -0.0434
     14 C12         0.2033   -3.7275    4.6483 C.ar      1 <0>        -0.1164
     15 C13         1.0009   -2.9352    5.4386 C.ar      1 <0>        -0.1037
     16 C14         1.6407   -1.8450    4.8776 C.ar      1 <0>        -0.1092
     17 C15         1.4792   -1.5873    3.5373 C.ar      1 <0>        -0.1345
     18 C16         0.6836   -2.4040    2.7249 C.ar      1 <0>        -0.1120
     19 C17         0.6957   -2.0166    1.2712 C.3       1 <0>         0.2145
     20 H1          1.6762   -2.3177    0.9022 H         1 <0>         0.0814
     21 C18         0.7079   -0.4980    1.1840 C.3       1 <0>        -0.0096
     22 H2          1.0047    1.8421    0.0024 H         1 <0>         0.1256
     23 H3         -0.5450    1.8259   -0.8730 H         1 <0>         0.1278
     24 H4         -0.5280    1.8163    0.9069 H         1 <0>         0.1233
     25 H5         -1.7720   -0.4210    1.0720 H         1 <0>         0.1359
     26 H6         -2.0104    0.0166   -0.6429 H         1 <0>         0.1459
     27 H7         -2.2727   -2.4732   -0.1054 H         1 <0>         0.1007
     28 H8         -1.1096   -2.0872   -1.3918 H         1 <0>         0.0828
     29 H9          0.2970   -3.8905   -1.8436 H         1 <0>         0.1222
     30 H10         0.5722   -6.3158   -2.1649 H         1 <0>         0.1292
     31 H11         0.3058   -7.8509   -0.2596 H         1 <0>         0.1304
     32 H12        -0.3156   -6.9709    1.9570 H         1 <0>         0.1304
     33 H13        -1.8427   -3.8810    2.3915 H         1 <0>         0.0851
     34 H14        -1.1118   -5.2412    3.2519 H         1 <0>         0.0847
     35 H15        -0.2988   -4.5760    5.0892 H         1 <0>         0.1275
     36 H16         1.1270   -3.1618    6.4870 H         1 <0>         0.1317
     37 H17         2.2602   -1.2030    5.4861 H         1 <0>         0.1308
     38 H18         1.9776   -0.7345    3.1006 H         1 <0>         0.1191
     39 H19         1.7417   -0.1544    1.1475 H         1 <0>         0.1407
     40 H20         0.2329   -0.0891    2.0758 H         1 <0>         0.1370
     41 H21         0.4593   -0.3360   -0.8339 H         1 <0>         0.4294
@<TRIPOS>BOND
     1    1    2 1
     2    1   22 1
     3    1   23 1
     4    1   24 1
     5    2   21 1
     6    2    3 1
     7    2   41 1
     8    3    4 1
     9    3   25 1
    10    3   26 1
    11    4    5 1
    12    4   27 1
    13    4   28 1
    14    5   19 1
    15    5    6 1
    16    6   11 ar
    17    6    7 ar
    18    7    8 ar
    19    7   29 1
    20    8    9 ar
    21    8   30 1
    22    9   10 ar
    23    9   31 1
    24   10   11 ar
    25   10   32 1
    26   11   12 1
    27   12   13 1
    28   12   33 1
    29   12   34 1
    30   13   18 ar
    31   13   14 ar
    32   14   15 ar
    33   14   35 1
    34   15   16 ar
    35   15   36 1
    36   16   17 ar
    37   16   37 1
    38   17   18 ar
    39   17   38 1
    40   18   19 1
    41   19   20 1
    42   19   21 1
    43   21   39 1
    44   21   40 1
@<TRIPOS>MOLECULE
ZINC01530611
   43    45     0     0     0
SMALL
USER_CHARGES

@<TRIPOS>ATOM
      1 C1         -5.6811    1.3607   -0.3895 C.3       1 <0>        -0.0475
      2 N1         -5.6577   -0.0983   -0.2206 N.4       1 <0>        -0.5096
      3 C2         -4.2653   -0.5656   -0.1914 C.3       1 <0>        -0.0084
      4 C3         -4.2409   -2.0853   -0.0155 C.3       1 <0>        -0.1794
      5 C4         -2.7907   -2.5720    0.0149 C.3       1 <0>         0.1487
      6 N2         -2.7680   -4.0325    0.1272 N.pl3     1 <0>        -0.6107
      7 C5         -2.6913   -4.8424   -1.0108 C.ar      1 <0>         0.1751
      8 C6         -1.6220   -4.6466   -1.8788 C.ar      1 <0>        -0.1410
      9 C7         -1.4736   -5.4397   -2.9971 C.ar      1 <0>        -0.1023
     10 C8         -2.4002   -6.4363   -3.2444 C.ar      1 <0>        -0.1264
     11 C9         -3.4660   -6.6200   -2.3938 C.ar      1 <0>        -0.1102
     12 C10        -3.6460   -5.8156   -1.2664 C.ar      1 <0>        -0.0994
     13 C11        -4.9119   -6.0915   -0.4880 C.3       1 <0>        -0.0689
     14 C12        -5.1138   -5.1475    0.6844 C.3       1 <0>        -0.0774
     15 C13        -4.0023   -5.2798    1.6948 C.ar      1 <0>        -0.0996
     16 C14        -2.8165   -4.6605    1.3756 C.ar      1 <0>         0.1518
     17 C15        -1.7436   -4.6795    2.2507 C.ar      1 <0>        -0.1184
     18 C16        -1.8773   -5.3599    3.4502 C.ar      1 <0>        -0.1095
     19 C17        -3.0600   -6.0057    3.7614 C.ar      1 <0>        -0.1164
     20 C18        -4.1454   -5.9689    2.8764 C.ar      1 <0>        -0.1028
     21 H1         -6.7143    1.7075   -0.4111 H         1 <0>         0.1266
     22 H2         -5.1573    1.8313    0.4426 H         1 <0>         0.1238
     23 H3         -5.1891    1.6261   -1.3252 H         1 <0>         0.1238
     24 H4         -6.1131   -0.3440    0.6456 H         1 <0>         0.4303
     25 H5         -3.7733   -0.3002   -1.1272 H         1 <0>         0.1329
     26 H6         -3.7415   -0.0951    0.6406 H         1 <0>         0.1330
     27 H7         -4.7329   -2.3506    0.9203 H         1 <0>         0.0915
     28 H8         -4.7647   -2.5558   -0.8475 H         1 <0>         0.0913
     29 H9         -2.2869   -2.2703   -0.9034 H         1 <0>         0.0828
     30 H10        -2.2782   -2.1337    0.8713 H         1 <0>         0.0803
     31 H11        -0.9026   -3.8672   -1.6754 H         1 <0>         0.1215
     32 H12        -0.6444   -5.2844   -3.6715 H         1 <0>         0.1277
     33 H13        -2.2869   -7.0730   -4.1093 H         1 <0>         0.1251
     34 H14        -4.1790   -7.4039   -2.6024 H         1 <0>         0.1223
     35 H15        -5.7638   -5.9997   -1.1617 H         1 <0>         0.0796
     36 H16        -4.8754   -7.1138   -0.1117 H         1 <0>         0.0764
     37 H17        -5.1407   -4.1220    0.3160 H         1 <0>         0.0728
     38 H18        -6.0638   -5.3767    1.1673 H         1 <0>         0.0709
     39 H19        -0.8216   -4.1746    2.0032 H         1 <0>         0.1257
     40 H20        -1.0526   -5.3858    4.1470 H         1 <0>         0.1276
     41 H21        -3.1485   -6.5434    4.6939 H         1 <0>         0.1270
     42 H22        -5.0720   -6.4709    3.1123 H         1 <0>         0.1291
     43 H23        -6.1426   -0.5339   -0.9908 H         1 <0>         0.4303
@<TRIPOS>BOND
     1    1    2 1
     2    1   21 1
     3    1   22 1
     4    1   23 1
     5    2    3 1
     6    2   24 1
     7    2   43 1
     8    3    4 1
     9    3   25 1
    10    3   26 1
    11    4    5 1
    12    4   27 1
    13    4   28 1
    14    5    6 1
    15    5   29 1
    16    5   30 1
    17    6   16 1
    18    6    7 1
    19    7   12 ar
    20    7    8 ar
    21    8    9 ar
    22    8   31 1
    23    9   10 ar
    24    9   32 1
    25   10   11 ar
    26   10   33 1
    27   11   12 ar
    28   11   34 1
    29   12   13 1
    30   13   14 1
    31   13   35 1
    32   13   36 1
    33   14   15 1
    34   14   37 1
    35   14   38 1
    36   15   20 ar
    37   15   16 ar
    38   16   17 ar
    39   17   18 ar
    40   17   39 1
    41   18   19 ar
    42   18   40 1
    43   19   20 ar
    44   19   41 1
    45   20   42 1
