@<TRIPOS>MOLECULE
ZINC13779480
   25    25     0     0     0
SMALL
USER_CHARGES
N-(cyclohexylmethyl)formamide
@<TRIPOS>ATOM
      1 C1         -2.9042    1.5565    0.0381 C.3       1 <0>        -0.1229
      2 C2         -2.1881    1.0631   -1.2207 C.3       1 <0>        -0.1199
      3 C3         -0.7527    1.5927   -1.2315 C.3       1 <0>        -0.1143
      4 C4         -0.0127    1.0858    0.0080 C.3       1 <0>        -0.0970
      5 C5         -0.7288    1.5792    1.2668 C.3       1 <0>        -0.1148
      6 C6         -2.1642    1.0497    1.2777 C.3       1 <0>        -0.1211
      7 C7          1.4227    1.6154   -0.0028 C.3       1 <0>         0.1179
      8 N1          2.1658    1.0351    1.1184 N.am      1 <0>        -0.7466
      9 C8          3.4597    1.3601    1.3096 C.2       1 <0>         0.4853
     10 O1          4.0089    2.1330    0.5533 O.2       1 <0>        -0.5601
     11 H1         -3.9362    1.1757    0.0459 H         1 <0>         0.0619
     12 H2         -2.9192    2.6564    0.0441 H         1 <0>         0.0621
     13 H3         -2.1732   -0.0368   -1.2268 H         1 <0>         0.0623
     14 H4         -2.7201    1.4275   -2.1119 H         1 <0>         0.0639
     15 H5         -0.2378    1.2380   -2.1365 H         1 <0>         0.0652
     16 H6         -0.7676    2.6926   -1.2254 H         1 <0>         0.0657
     17 H7          0.0022   -0.0141    0.0019 H         1 <0>         0.0770
     18 H8         -0.1968    1.2148    2.1579 H         1 <0>         0.0620
     19 H9         -0.7437    2.6791    1.2729 H         1 <0>         0.0642
     20 H10        -2.6791    1.4045    2.1827 H         1 <0>         0.0626
     21 H11        -2.1493   -0.0502    1.2718 H         1 <0>         0.0621
     22 H12         1.9094    1.3362   -0.9489 H         1 <0>         0.0649
     23 H13         1.4100    2.7111    0.0936 H         1 <0>         0.0652
     24 H14         1.6677    0.3341    1.8043 H         1 <0>         0.4215
     25 H15         4.0177    0.9244    2.1515 H         1 <0>         0.1328
@<TRIPOS>BOND
     1    1    6 1
     2    1    2 1
     3    1   11 1
     4    1   12 1
     5    2    3 1
     6    2   13 1
     7    2   14 1
     8    3    4 1
     9    3   15 1
    10    3   16 1
    11    4    5 1
    12    4    7 1
    13    4   17 1
    14    5    6 1
    15    5   18 1
    16    5   19 1
    17    6   20 1
    18    6   21 1
    19    7    8 1
    20    7   22 1
    21    7   23 1
    22    8    9 am
    23    8   24 1
    24    9   10 2
    25    9   25 1
@<TRIPOS>MOLECULE
ZINC01702555
   19    19     0     0     0
SMALL
USER_CHARGES
N-cyclopentylformamide
@<TRIPOS>ATOM
      1 C1         -2.2430    1.8754   -0.7033 C.3       1 <0>        -0.1248
      2 C2         -0.8089    1.6216   -1.1998 C.3       1 <0>        -0.1233
      3 C3         -0.0127    1.0858    0.0080 C.3       1 <0>        -0.1309
      4 C4         -0.7887    1.6107    1.2415 C.3       1 <0>         0.1300
      5 C5         -2.2683    1.4849    0.7889 C.3       1 <0>        -0.1354
      6 N1         -0.5279    0.7723    2.4142 N.am      1 <0>        -0.7318
      7 C6         -0.6626    1.2858    3.6530 C.2       1 <0>         0.4903
      8 O1         -0.9998    2.4419    3.7969 O.2       1 <0>        -0.5540
      9 H1         -2.4969    2.9292   -0.8178 H         1 <0>         0.0665
     10 H2         -2.9464    1.2585   -1.2626 H         1 <0>         0.0665
     11 H3         -0.3667    2.5523   -1.5553 H         1 <0>         0.0673
     12 H4         -0.8162    0.8817   -2.0001 H         1 <0>         0.0680
     13 H5          0.0021   -0.0041    0.0020 H         1 <0>         0.0709
     14 H6          1.0034    1.4802    0.0004 H         1 <0>         0.0714
     15 H7         -0.5338    2.6508    1.4444 H         1 <0>         0.0970
     16 H8         -2.8991    2.1724    1.3525 H         1 <0>         0.0691
     17 H9         -2.6201    0.4602    0.9092 H         1 <0>         0.0680
     18 H10        -0.2582   -0.1523    2.2992 H         1 <0>         0.4022
     19 H11        -0.4703    0.6678    4.5176 H         1 <0>         0.1328
@<TRIPOS>BOND
     1    1    5 1
     2    1    2 1
     3    1    9 1
     4    1   10 1
     5    2    3 1
     6    2   11 1
     7    2   12 1
     8    3    4 1
     9    3   13 1
    10    3   14 1
    11    4    5 1
    12    4    6 1
    13    4   15 1
    14    5   16 1
    15    5   17 1
    16    6    7 am
    17    6   18 1
    18    7    8 2
    19    7   19 1
@<TRIPOS>MOLECULE
ZINC01687323
   15    14     0     0     0
SMALL
USER_CHARGES
N-propylformamide
@<TRIPOS>ATOM
      1 C1         -4.9400    1.3123    0.0326 C.3       1 <0>        -0.1516
      2 C2         -3.6255    2.0952    0.0306 C.3       1 <0>        -0.1359
      3 C3         -2.4492    1.1169    0.0197 C.3       1 <0>         0.1094
      4 N1         -1.1906    1.8666    0.0178 N.am      1 <0>        -0.7403
      5 C4         -0.0144    1.2086    0.0087 C.2       1 <0>         0.4888
      6 O1          0.0021   -0.0041    0.0020 O.2       1 <0>        -0.5551
      7 H1         -4.9935    0.6898   -0.8605 H         1 <0>         0.0582
      8 H2         -4.9851    0.6801    0.9194 H         1 <0>         0.0582
      9 H3         -5.7781    2.0093    0.0404 H         1 <0>         0.0608
     10 H4         -3.5721    2.7178    0.9238 H         1 <0>         0.0685
     11 H5         -3.5805    2.7274   -0.8561 H         1 <0>         0.0685
     12 H6         -2.5027    0.4944   -0.8734 H         1 <0>         0.0672
     13 H7         -2.4943    0.4847    0.9065 H         1 <0>         0.0672
     14 H8         -1.2037    2.8365    0.0232 H         1 <0>         0.4025
     15 H9          0.9135    1.7613    0.0028 H         1 <0>         0.1336
@<TRIPOS>BOND
     1    1    2 1
     2    1    7 1
     3    1    8 1
     4    1    9 1
     5    2    3 1
     6    2   10 1
     7    2   11 1
     8    3    4 1
     9    3   12 1
    10    3   13 1
    11    4    5 am
    12    4   14 1
    13    5    6 2
    14    5   15 1
@<TRIPOS>MOLECULE
ZINC01687325
   18    17     0     0     0
SMALL
USER_CHARGES
N-isobutylformamide
@<TRIPOS>ATOM
      1 C1         -3.3302    3.2678    1.3430 C.3       1 <0>        -0.1501
      2 C2         -2.6579    3.6889    0.0347 C.3       1 <0>        -0.1088
      3 C3         -2.6810    5.2143   -0.0826 C.3       1 <0>        -0.1472
      4 C4         -1.2087    3.1986    0.0252 C.3       1 <0>         0.1150
      5 N1         -1.1888    1.7338    0.0171 N.am      1 <0>        -0.7381
      6 C5         -0.0126    1.0758    0.0080 C.2       1 <0>         0.4887
      7 O1          1.0294    1.6965    0.0013 O.2       1 <0>        -0.5552
      8 H1         -2.7931    3.7051    2.1846 H         1 <0>         0.0578
      9 H2         -4.3627    3.6172    1.3498 H         1 <0>         0.0591
     10 H3         -3.3137    2.1812    1.4266 H         1 <0>         0.0543
     11 H4         -3.1950    3.2516   -0.8070 H         1 <0>         0.0764
     12 H5         -2.2021    5.5143   -1.0147 H         1 <0>         0.0584
     13 H6         -3.7135    5.5636   -0.0758 H         1 <0>         0.0612
     14 H7         -2.1440    5.6516    0.7590 H         1 <0>         0.0587
     15 H8         -0.6956    3.5640    0.9147 H         1 <0>         0.0678
     16 H9         -0.7040    3.5737   -0.8652 H         1 <0>         0.0674
     17 H10        -2.0222    1.2374    0.0184 H         1 <0>         0.4018
     18 H11         0.0021   -0.0041    0.0020 H         1 <0>         0.1329
@<TRIPOS>BOND
     1    1    2 1
     2    1    8 1
     3    1    9 1
     4    1   10 1
     5    2    3 1
     6    2    4 1
     7    2   11 1
     8    3   12 1
     9    3   13 1
    10    3   14 1
    11    4    5 1
    12    4   15 1
    13    4   16 1
    14    5    6 am
    15    5   17 1
    16    6    7 2
    17    6   18 1
@<TRIPOS>MOLECULE
ZINC13779484
   28    28     0     0     0
SMALL
USER_CHARGES
N-cyclopentyl-N-propyl-formamide
@<TRIPOS>ATOM
      1 C1         -0.4022    2.4796    5.7958 C.3       1 <0>        -0.1505
      2 C2         -1.0308    1.8675    4.5424 C.3       1 <0>        -0.1379
      3 C3          0.0740    1.3585    3.6144 C.3       1 <0>         0.1093
      4 N1         -0.5279    0.7723    2.4142 N.am      1 <0>        -0.6135
      5 C4         -0.8417   -0.5382    2.3891 C.2       1 <0>         0.4926
      6 O1         -0.6257   -1.2322    3.3600 O.2       1 <0>        -0.5490
      7 C5         -0.7887    1.6107    1.2415 C.3       1 <0>         0.1350
      8 C6         -0.0127    1.0858    0.0080 C.3       1 <0>        -0.1389
      9 C7         -0.8089    1.6216   -1.1998 C.3       1 <0>        -0.1242
     10 C8         -2.2430    1.8754   -0.7033 C.3       1 <0>        -0.1242
     11 C9         -2.2683    1.4849    0.7889 C.3       1 <0>        -0.1383
     12 H1         -1.1893    2.8422    6.4570 H         1 <0>         0.0575
     13 H2          0.1871    1.7228    6.3135 H         1 <0>         0.0570
     14 H3          0.2434    3.3101    5.5100 H         1 <0>         0.0550
     15 H4         -1.6201    2.6243    4.0248 H         1 <0>         0.0615
     16 H5         -1.6764    1.0370    4.8283 H         1 <0>         0.0653
     17 H6          0.6633    0.6016    4.1320 H         1 <0>         0.0841
     18 H7          0.7196    2.1889    3.3285 H         1 <0>         0.0750
     19 H8         -1.2854   -0.9703    1.5043 H         1 <0>         0.1254
     20 H9         -0.5338    2.6508    1.4444 H         1 <0>         0.1000
     21 H10         0.0021   -0.0041    0.0020 H         1 <0>         0.0702
     22 H11         1.0034    1.4802    0.0004 H         1 <0>         0.0723
     23 H12        -0.3667    2.5523   -1.5553 H         1 <0>         0.0677
     24 H13        -0.8162    0.8817   -2.0001 H         1 <0>         0.0686
     25 H14        -2.4969    2.9292   -0.8178 H         1 <0>         0.0678
     26 H15        -2.9464    1.2585   -1.2626 H         1 <0>         0.0687
     27 H16        -2.8991    2.1724    1.3525 H         1 <0>         0.0726
     28 H17        -2.6201    0.4602    0.9092 H         1 <0>         0.0706
@<TRIPOS>BOND
     1    1    2 1
     2    1   12 1
     3    1   13 1
     4    1   14 1
     5    2    3 1
     6    2   15 1
     7    2   16 1
     8    3    4 1
     9    3   17 1
    10    3   18 1
    11    4    5 am
    12    4    7 1
    13    5    6 2
    14    5   19 1
    15    7   11 1
    16    7    8 1
    17    7   20 1
    18    8    9 1
    19    8   21 1
    20    8   22 1
    21    9   10 1
    22    9   23 1
    23    9   24 1
    24   10   11 1
    25   10   25 1
    26   10   26 1
    27   11   27 1
    28   11   28 1
@<TRIPOS>MOLECULE
ZINC01687324
   18    17     0     0     0
SMALL
USER_CHARGES
N-butylformamide
@<TRIPOS>ATOM
      1 C1         -4.1280    5.7091    0.0527 C.3       1 <0>        -0.1535
      2 C2         -2.6787    5.2188    0.0431 C.3       1 <0>        -0.1230
      3 C3         -2.6579    3.6889    0.0347 C.3       1 <0>        -0.1319
      4 C4         -1.2087    3.1986    0.0252 C.3       1 <0>         0.1098
      5 N1         -1.1888    1.7338    0.0171 N.am      1 <0>        -0.7399
      6 C5         -0.0126    1.0758    0.0080 C.2       1 <0>         0.4888
      7 O1          1.0294    1.6965    0.0013 O.2       1 <0>        -0.5551
      8 H1         -4.6410    5.3437   -0.8369 H         1 <0>         0.0546
      9 H2         -4.6326    5.3340    0.9430 H         1 <0>         0.0546
     10 H3         -4.1427    6.7990    0.0587 H         1 <0>         0.0568
     11 H4         -2.1656    5.5842    0.9327 H         1 <0>         0.0653
     12 H5         -2.1741    5.5939   -0.8472 H         1 <0>         0.0653
     13 H6         -3.1710    3.3235   -0.8549 H         1 <0>         0.0689
     14 H7         -3.1626    3.3138    0.9251 H         1 <0>         0.0689
     15 H8         -0.6956    3.5640    0.9147 H         1 <0>         0.0671
     16 H9         -0.7040    3.5737   -0.8652 H         1 <0>         0.0672
     17 H10        -2.0222    1.2374    0.0184 H         1 <0>         0.4025
     18 H11         0.0021   -0.0041    0.0020 H         1 <0>         0.1335
@<TRIPOS>BOND
     1    1    2 1
     2    1    8 1
     3    1    9 1
     4    1   10 1
     5    2    3 1
     6    2   11 1
     7    2   12 1
     8    3    4 1
     9    3   13 1
    10    3   14 1
    11    4    5 1
    12    4   15 1
    13    4   16 1
    14    5    6 am
    15    5   17 1
    16    6    7 2
    17    6   18 1
@<TRIPOS>MOLECULE
ZINC13779486
   28    28     0     0     0
SMALL
USER_CHARGES
N-cyclohexyl-N-ethyl-formamide
@<TRIPOS>ATOM
      1 C1          0.0228   -0.5218    1.4416 C.3       1 <0>        -0.1745
      2 C2          0.0021   -0.0041    0.0020 C.3       1 <0>         0.1050
      3 N1         -0.0178    1.4608    0.0101 N.am      1 <0>        -0.6208
      4 C3         -1.1940    2.1187    0.0192 C.2       1 <0>         0.4879
      5 O1         -1.2105    3.3314    0.0259 O.2       1 <0>        -0.5444
      6 C4          1.2408    2.2105    0.0021 C.3       1 <0>         0.1508
      7 C5          1.3219    3.0844    1.2553 C.3       1 <0>        -0.1349
      8 C6          2.6363    3.8673    1.2470 C.3       1 <0>        -0.1156
      9 C7          2.6935    4.7547    0.0019 C.3       1 <0>        -0.1225
     10 C8          2.6125    3.8808   -1.2514 C.3       1 <0>        -0.1153
     11 C9          1.2980    3.0978   -1.2430 C.3       1 <0>        -0.1360
     12 H1          0.0377   -1.6217    1.4355 H         1 <0>         0.0689
     13 H2         -0.8753   -0.1702    1.9706 H         1 <0>         0.0585
     14 H3          0.9208   -0.1457    1.9536 H         1 <0>         0.0590
     15 H4          0.9002   -0.3557   -0.5270 H         1 <0>         0.0800
     16 H5         -0.8959   -0.3802   -0.5101 H         1 <0>         0.0811
     17 H6         -2.1390    1.5558    0.0206 H         1 <0>         0.1264
     18 H7          2.0572    1.4734   -0.0096 H         1 <0>         0.0803
     19 H8          0.4763    3.7878    1.2672 H         1 <0>         0.0865
     20 H9          1.2808    2.4465    2.1505 H         1 <0>         0.0584
     21 H10         2.6945    4.4956    2.1480 H         1 <0>         0.0643
     22 H11         3.4820    3.1640    1.2352 H         1 <0>         0.0600
     23 H12         1.8478    5.4580    0.0138 H         1 <0>         0.0649
     24 H13         3.6385    5.3177   -0.0041 H         1 <0>         0.0620
     25 H14         2.6536    4.5188   -2.1465 H         1 <0>         0.0645
     26 H15         3.4582    3.1775   -1.2633 H         1 <0>         0.0600
     27 H16         1.2397    2.4695   -2.1440 H         1 <0>         0.0585
     28 H17         0.4523    3.8012   -1.2312 H         1 <0>         0.0871
@<TRIPOS>BOND
     1    1    2 1
     2    1   12 1
     3    1   13 1
     4    1   14 1
     5    2    3 1
     6    2   15 1
     7    2   16 1
     8    3    4 am
     9    3    6 1
    10    4    5 2
    11    4   17 1
    12    6   11 1
    13    6    7 1
    14    6   18 1
    15    7    8 1
    16    7   19 1
    17    7   20 1
    18    8    9 1
    19    8   21 1
    20    8   22 1
    21    9   10 1
    22    9   23 1
    23    9   24 1
    24   10   11 1
    25   10   25 1
    26   10   26 1
    27   11   27 1
    28   11   28 1
@<TRIPOS>MOLECULE
ZINC13779482
   26    27     0     0     0
SMALL
USER_CHARGES
N-cyclopentyl-N-cyclopropyl-formamide
@<TRIPOS>ATOM
      1 C1         -1.9779    2.4205   -0.6705 C.3       1 <0>        -0.1200
      2 C2         -0.7845    1.6092   -1.2159 C.3       1 <0>        -0.1181
      3 C3         -0.0127    1.0858    0.0080 C.3       1 <0>        -0.1314
      4 C4         -0.7629    1.5973    1.2552 C.3       1 <0>         0.1429
      5 C5         -1.5309    2.8450    0.7505 C.3       1 <0>        -0.1410
      6 N1          0.1860    1.9690    2.3077 N.am      1 <0>        -0.5870
      7 C6          1.1023    2.9307    2.0800 C.2       1 <0>         0.4867
      8 O1          1.1413    3.4885    1.0037 O.2       1 <0>        -0.5363
      9 C7          0.1388    1.2953    3.6077 C.3       1 <0>         0.0724
     10 C8          1.0117    1.8620    4.7292 C.3       1 <0>        -0.1890
     11 C9          1.3908    0.5397    4.0577 C.3       1 <0>        -0.1924
     12 H1         -2.1585    3.2978   -1.2916 H         1 <0>         0.0674
     13 H2         -2.8710    1.7977   -0.6193 H         1 <0>         0.0644
     14 H3         -0.1404    2.2509   -1.8171 H         1 <0>         0.0657
     15 H4         -1.1443    0.7734   -1.8159 H         1 <0>         0.0623
     16 H5          0.0021   -0.0041    0.0020 H         1 <0>         0.0621
     17 H6          1.0062    1.4728    0.0004 H         1 <0>         0.0747
     18 H7         -1.4596    0.8416    1.6179 H         1 <0>         0.0918
     19 H8         -0.8713    3.7116    0.7051 H         1 <0>         0.0915
     20 H9         -2.3951    3.0518    1.3816 H         1 <0>         0.0632
     21 H10         1.8018    3.2048    2.8559 H         1 <0>         0.1255
     22 H11        -0.8286    0.8769    3.8856 H         1 <0>         0.1317
     23 H12         1.6212    2.7361    4.4997 H         1 <0>         0.1007
     24 H13         0.6188    1.8161    5.7449 H         1 <0>         0.1090
     25 H14         1.2471   -0.3756    4.6319 H         1 <0>         0.1054
     26 H15         2.2494    0.5435    3.3863 H         1 <0>         0.0979
@<TRIPOS>BOND
     1    1    5 1
     2    1    2 1
     3    1   12 1
     4    1   13 1
     5    2    3 1
     6    2   14 1
     7    2   15 1
     8    3    4 1
     9    3   16 1
    10    3   17 1
    11    4    5 1
    12    4    6 1
    13    4   18 1
    14    5   19 1
    15    5   20 1
    16    6    7 am
    17    6    9 1
    18    7    8 2
    19    7   21 1
    20    9   11 1
    21    9   10 1
    22    9   22 1
    23   10   11 1
    24   10   23 1
    25   10   24 1
    26   11   25 1
    27   11   26 1
@<TRIPOS>MOLECULE
ZINC13779485
   25    25     0     0     0
SMALL
USER_CHARGES
N-cyclohexyl-N-methyl-formamide
@<TRIPOS>ATOM
      1 C1          2.4880    0.6562   -0.0182 C.3       1 <0>         0.0820
      2 N1          1.3617    1.5929   -0.0024 N.am      1 <0>        -0.6229
      3 C2          1.5900    2.9212    0.0026 C.2       1 <0>         0.4876
      4 O1          2.7278    3.3410   -0.0060 O.2       1 <0>        -0.5507
      5 C3         -0.0127    1.0858    0.0080 C.3       1 <0>         0.1421
      6 C4         -0.7288    1.5792    1.2668 C.3       1 <0>        -0.1335
      7 C5         -2.1642    1.0497    1.2777 C.3       1 <0>        -0.1181
      8 C6         -2.9042    1.5565    0.0381 C.3       1 <0>        -0.1248
      9 C7         -2.1881    1.0631   -1.2207 C.3       1 <0>        -0.1181
     10 C8         -0.7527    1.5927   -1.2315 C.3       1 <0>        -0.1335
     11 H1          2.1068   -0.3756   -0.0201 H         1 <0>         0.0739
     12 H2          3.1100    0.8156    0.8749 H         1 <0>         0.0615
     13 H3          3.0929    0.8253   -0.9213 H         1 <0>         0.0615
     14 H4          0.7443    3.6245    0.0145 H         1 <0>         0.1280
     15 H5          0.0468   -0.0126    0.0015 H         1 <0>         0.0918
     16 H6         -0.1968    1.2148    2.1579 H         1 <0>         0.0697
     17 H7         -0.7437    2.6791    1.2729 H         1 <0>         0.0679
     18 H8         -2.1493   -0.0502    1.2717 H         1 <0>         0.0655
     19 H9         -2.6791    1.4045    2.1827 H         1 <0>         0.0683
     20 H10        -3.9362    1.1757    0.0459 H         1 <0>         0.0660
     21 H11        -2.9192    2.6564    0.0441 H         1 <0>         0.0642
     22 H12        -2.1732   -0.0368   -1.2268 H         1 <0>         0.0655
     23 H13        -2.7201    1.4275   -2.1119 H         1 <0>         0.0683
     24 H14        -0.7676    2.6926   -1.2254 H         1 <0>         0.0679
     25 H15        -0.2378    1.2381   -2.1366 H         1 <0>         0.0697
@<TRIPOS>BOND
     1    1    2 1
     2    1   11 1
     3    1   12 1
     4    1   13 1
     5    2    3 am
     6    2    5 1
     7    3    4 2
     8    3   14 1
     9    5   10 1
    10    5    6 1
    11    5   15 1
    12    6    7 1
    13    6   16 1
    14    6   17 1
    15    7    8 1
    16    7   18 1
    17    7   19 1
    18    8    9 1
    19    8   20 1
    20    8   21 1
    21    9   10 1
    22    9   22 1
    23    9   23 1
    24   10   24 1
    25   10   25 1
@<TRIPOS>MOLECULE
ZINC00332634
   22    22     0     0     0
SMALL
USER_CHARGES
N-cyclohexylformamide
@<TRIPOS>ATOM
      1 C1          4.0350    2.0097   -0.8531 C.3       1 <0>        -0.1226
      2 C2          3.6749    1.6330    0.5854 C.3       1 <0>        -0.1173
      3 C3          2.3605    0.8501    0.5937 C.3       1 <0>        -0.1260
      4 C4          1.2475    1.7155   -0.0006 C.3       1 <0>         0.1374
      5 C5          1.6076    2.0922   -1.4391 C.3       1 <0>        -0.1285
      6 C6          2.9221    2.8752   -1.4475 C.3       1 <0>        -0.1185
      7 N1         -0.0111    0.9658    0.0074 N.am      1 <0>        -0.7358
      8 C7         -1.1873    1.6238    0.0165 C.2       1 <0>         0.4899
      9 O1         -1.2037    2.8365    0.0232 O.2       1 <0>        -0.5537
     10 H1          4.9715    2.5675   -0.8591 H         1 <0>         0.0645
     11 H2          4.1480    1.1037   -1.4485 H         1 <0>         0.0626
     12 H3          3.5620    2.5390    1.1808 H         1 <0>         0.0652
     13 H4          4.4678    1.0164    1.0089 H         1 <0>         0.0676
     14 H5          2.1039    0.5817    1.6186 H         1 <0>         0.0681
     15 H6          2.4734   -0.0559   -0.0017 H         1 <0>         0.0676
     16 H7          1.1346    2.6215    0.5948 H         1 <0>         0.0872
     17 H8          1.7206    1.1862   -2.0346 H         1 <0>         0.0629
     18 H9          0.8148    2.7088   -1.8626 H         1 <0>         0.0664
     19 H10         2.8092    3.7812   -0.8521 H         1 <0>         0.0645
     20 H11         3.1787    3.1436   -2.4723 H         1 <0>         0.0653
     21 H12         0.0021   -0.0041    0.0020 H         1 <0>         0.4013
     22 H13        -2.1152    1.0711    0.0179 H         1 <0>         0.1318
@<TRIPOS>BOND
     1    1    6 1
     2    1    2 1
     3    1   10 1
     4    1   11 1
     5    2    3 1
     6    2   12 1
     7    2   13 1
     8    3    4 1
     9    3   14 1
    10    3   15 1
    11    4    5 1
    12    4    7 1
    13    4   16 1
    14    5    6 1
    15    5   17 1
    16    5   18 1
    17    6   19 1
    18    6   20 1
    19    7    8 am
    20    7   21 1
    21    8    9 2
    22    8   22 1
@<TRIPOS>MOLECULE
ZINC12501627
   30    29     0     0     0
SMALL
USER_CHARGES
N-[(1R)-1-methylheptyl]formamide
@<TRIPOS>ATOM
      1 C1         -3.6083   -1.7303   -6.2411 C.3       1 <0>        -0.1547
      2 C2         -3.9216   -1.4819   -4.7643 C.3       1 <0>        -0.1259
      3 C3         -2.8354   -0.5932   -4.1550 C.3       1 <0>        -0.1212
      4 C4         -3.1487   -0.3448   -2.6782 C.3       1 <0>        -0.1208
      5 C5         -2.0625    0.5439   -2.0688 C.3       1 <0>        -0.1199
      6 C6         -2.3758    0.7923   -0.5920 C.3       1 <0>        -0.1277
      7 C7         -1.2896    1.6810    0.0173 C.3       1 <0>         0.1337
      8 H1         -1.1985    2.5963   -0.5676 H         1 <0>         0.0874
      9 C8         -1.6665    2.0319    1.4580 C.3       1 <0>        -0.1639
     10 N1         -0.0111    0.9658    0.0074 N.am      1 <0>        -0.7323
     11 C9          1.1468    1.6555   -0.0000 C.2       1 <0>         0.4898
     12 O1          1.1304    2.8682    0.0067 O.2       1 <0>        -0.5543
     13 H2         -3.5780   -0.7784   -6.7712 H         1 <0>         0.0535
     14 H3         -2.6416   -2.2262   -6.3290 H         1 <0>         0.0533
     15 H4         -4.3822   -2.3635   -6.6752 H         1 <0>         0.0537
     16 H5         -3.9520   -2.4338   -4.2342 H         1 <0>         0.0603
     17 H6         -4.8884   -0.9861   -4.6764 H         1 <0>         0.0605
     18 H7         -2.8051    0.3587   -4.6851 H         1 <0>         0.0609
     19 H8         -1.8687   -1.0890   -4.2429 H         1 <0>         0.0604
     20 H9         -3.1791   -1.2967   -2.1480 H         1 <0>         0.0611
     21 H10        -4.1155    0.1510   -2.5903 H         1 <0>         0.0618
     22 H11        -2.0322    1.4958   -2.5990 H         1 <0>         0.0625
     23 H12        -1.0958    0.0481   -2.1567 H         1 <0>         0.0622
     24 H13        -2.4062   -0.1596   -0.0619 H         1 <0>         0.0680
     25 H14        -3.3426    1.2881   -0.5041 H         1 <0>         0.0781
     26 H15        -2.6178    2.5640    1.4654 H         1 <0>         0.0653
     27 H16        -1.7576    1.1166    2.0430 H         1 <0>         0.0564
     28 H17        -0.8927    2.6650    1.8921 H         1 <0>         0.0602
     29 H18         0.0021   -0.0041    0.0020 H         1 <0>         0.4009
     30 H19         2.0893    1.1283   -0.0118 H         1 <0>         0.1305
@<TRIPOS>BOND
     1    1    2 1
     2    1   13 1
     3    1   14 1
     4    1   15 1
     5    2    3 1
     6    2   16 1
     7    2   17 1
     8    3    4 1
     9    3   18 1
    10    3   19 1
    11    4    5 1
    12    4   20 1
    13    4   21 1
    14    5    6 1
    15    5   22 1
    16    5   23 1
    17    6    7 1
    18    6   24 1
    19    6   25 1
    20    7    8 1
    21    7    9 1
    22    7   10 1
    23    9   26 1
    24    9   27 1
    25    9   28 1
    26   10   11 am
    27   10   29 1
    28   11   12 2
    29   11   30 1
@<TRIPOS>MOLECULE
ZINC12501629
   30    29     0     0     0
SMALL
USER_CHARGES
N-[(1S)-1-methylheptyl]formamide
@<TRIPOS>ATOM
      1 C1         -0.7050    1.5658    3.7651 C.3       1 <0>        -0.1547
      2 C2          0.0111    1.0724    2.5063 C.3       1 <0>        -0.1259
      3 C3         -0.7288    1.5792    1.2668 C.3       1 <0>        -0.1213
      4 C4         -0.0127    1.0858    0.0080 C.3       1 <0>        -0.1208
      5 C5         -0.7527    1.5927   -1.2315 C.3       1 <0>        -0.1199
      6 C6         -0.0366    1.0992   -2.4903 C.3       1 <0>        -0.1277
      7 C7         -0.7766    1.6061   -3.7298 C.3       1 <0>         0.1337
      8 H1         -1.8223    1.3032   -3.6778 H         1 <0>         0.0874
      9 C8         -0.1353    1.0115   -4.9853 C.3       1 <0>        -0.1640
     10 N1         -0.6936    3.0677   -3.7845 N.am      1 <0>        -0.7323
     11 C9         -1.6357    3.7720   -4.4424 C.2       1 <0>         0.4898
     12 O1         -2.5522    3.1958   -4.9892 O.2       1 <0>        -0.5543
     13 H2         -0.7198    2.6557    3.7711 H         1 <0>         0.0533
     14 H3         -1.7276    1.1885    3.7729 H         1 <0>         0.0535
     15 H4         -0.1778    1.2047    4.6482 H         1 <0>         0.0537
     16 H5          0.0259   -0.0175    2.5003 H         1 <0>         0.0605
     17 H6          1.0337    1.4497    2.4986 H         1 <0>         0.0603
     18 H7         -0.7436    2.6691    1.2728 H         1 <0>         0.0604
     19 H8         -1.7514    1.2020    1.2746 H         1 <0>         0.0609
     20 H9          0.0021   -0.0041    0.0020 H         1 <0>         0.0618
     21 H10         1.0099    1.4631    0.0003 H         1 <0>         0.0611
     22 H11        -1.7753    1.2154   -1.2238 H         1 <0>         0.0625
     23 H12        -0.7675    2.6825   -1.2255 H         1 <0>         0.0622
     24 H13         0.9860    1.4765   -2.4981 H         1 <0>         0.0680
     25 H14        -0.0218    0.0093   -2.4963 H         1 <0>         0.0781
     26 H15        -0.6624    1.3726   -5.8684 H         1 <0>         0.0603
     27 H16         0.9105    1.3144   -5.0373 H         1 <0>         0.0564
     28 H17        -0.1970   -0.0759   -4.9446 H         1 <0>         0.0653
     29 H18         0.0394    3.5286   -3.3472 H         1 <0>         0.4009
     30 H19        -1.5745    4.8495   -4.4827 H         1 <0>         0.1305
@<TRIPOS>BOND
     1    1    2 1
     2    1   13 1
     3    1   14 1
     4    1   15 1
     5    2    3 1
     6    2   16 1
     7    2   17 1
     8    3    4 1
     9    3   18 1
    10    3   19 1
    11    4    5 1
    12    4   20 1
    13    4   21 1
    14    5    6 1
    15    5   22 1
    16    5   23 1
    17    6    7 1
    18    6   24 1
    19    6   25 1
    20    7    8 1
    21    7    9 1
    22    7   10 1
    23    9   26 1
    24    9   27 1
    25    9   28 1
    26   10   11 am
    27   10   29 1
    28   11   12 2
    29   11   30 1
@<TRIPOS>MOLECULE
ZINC13779479
   16    16     0     0     0
SMALL
USER_CHARGES
N-cyclobutylformamide
@<TRIPOS>ATOM
      1 C1          0.0021   -0.0041    0.0020 C.3       1 <0>        -0.1407
      2 C2         -0.0188    1.5336    0.0105 C.3       1 <0>        -0.1477
      3 C3          1.5179    1.4762   -0.0045 C.3       1 <0>         0.1132
      4 C4          1.3941    0.0896    0.6488 C.3       1 <0>        -0.1538
      5 N1          2.1510    2.4769    0.8580 N.am      1 <0>        -0.7291
      6 C5          3.4042    2.8972    0.5951 C.2       1 <0>         0.4905
      7 O1          4.0079    2.4470   -0.3556 O.2       1 <0>        -0.5550
      8 H1         -0.7506   -0.4545    0.6490 H         1 <0>         0.0741
      9 H2          0.0139   -0.4351   -0.9991 H         1 <0>         0.0847
     10 H3         -0.4483    1.9694   -0.8916 H         1 <0>         0.0743
     11 H4         -0.4309    1.9596    0.9252 H         1 <0>         0.0853
     12 H5          1.9441    1.4499   -1.0074 H         1 <0>         0.1142
     13 H6          1.3682    0.1209    1.7381 H         1 <0>         0.0835
     14 H7          2.1048   -0.6413    0.2631 H         1 <0>         0.0716
     15 H8          1.6681    2.8370    1.6184 H         1 <0>         0.4027
     16 H9          3.8709    3.6350    1.2310 H         1 <0>         0.1324
@<TRIPOS>BOND
     1    1    4 1
     2    1    2 1
     3    1    8 1
     4    1    9 1
     5    2    3 1
     6    2   10 1
     7    2   11 1
     8    3    4 1
     9    3    5 1
    10    3   12 1
    11    4   13 1
    12    4   14 1
    13    5    6 am
    14    5   15 1
    15    6    7 2
    16    6   16 1
