@<TRIPOS>MOLECULE
ZINC01702555
   19    19     0     0     0
SMALL
USER_CHARGES
N-cyclopentylformamide
@<TRIPOS>ATOM
      1 C1         -2.2430    1.8754   -0.7033 C.3       1 <0>        -0.1248
      2 C2         -0.8089    1.6216   -1.1998 C.3       1 <0>        -0.1233
      3 C3         -0.0127    1.0858    0.0080 C.3       1 <0>        -0.1309
      4 C4         -0.7887    1.6107    1.2415 C.3       1 <0>         0.1300
      5 C5         -2.2683    1.4849    0.7889 C.3       1 <0>        -0.1354
      6 N1         -0.5279    0.7723    2.4142 N.am      1 <0>        -0.7318
      7 C6         -0.6626    1.2858    3.6530 C.2       1 <0>         0.4903
      8 O1         -0.9998    2.4419    3.7969 O.2       1 <0>        -0.5540
      9 H1         -2.4969    2.9292   -0.8178 H         1 <0>         0.0665
     10 H2         -2.9464    1.2585   -1.2626 H         1 <0>         0.0665
     11 H3         -0.3667    2.5523   -1.5553 H         1 <0>         0.0673
     12 H4         -0.8162    0.8817   -2.0001 H         1 <0>         0.0680
     13 H5          0.0021   -0.0041    0.0020 H         1 <0>         0.0709
     14 H6          1.0034    1.4802    0.0004 H         1 <0>         0.0714
     15 H7         -0.5338    2.6508    1.4444 H         1 <0>         0.0970
     16 H8         -2.8991    2.1724    1.3525 H         1 <0>         0.0691
     17 H9         -2.6201    0.4602    0.9092 H         1 <0>         0.0680
     18 H10        -0.2582   -0.1523    2.2992 H         1 <0>         0.4022
     19 H11        -0.4703    0.6678    4.5176 H         1 <0>         0.1328
@<TRIPOS>BOND
     1    1    5 1
     2    1    2 1
     3    1    9 1
     4    1   10 1
     5    2    3 1
     6    2   11 1
     7    2   12 1
     8    3    4 1
     9    3   13 1
    10    3   14 1
    11    4    5 1
    12    4    6 1
    13    4   15 1
    14    5   16 1
    15    5   17 1
    16    6    7 am
    17    6   18 1
    18    7    8 2
    19    7   19 1
@<TRIPOS>MOLECULE
ZINC01700387
   15    14     0     0     0
SMALL
USER_CHARGES
N-isopropylformamide
@<TRIPOS>ATOM
      1 C1         -0.7527    1.5927   -1.2315 C.3       1 <0>        -0.1613
      2 C2         -0.0127    1.0858    0.0080 C.3       1 <0>         0.1278
      3 C3         -0.7288    1.5792    1.2668 C.3       1 <0>        -0.1640
      4 N1          1.3617    1.5929   -0.0024 N.am      1 <0>        -0.7353
      5 C4          2.3312    0.9256    0.6543 C.2       1 <0>         0.4898
      6 O1          2.0658   -0.0948    1.2538 O.2       1 <0>        -0.5547
      7 H1         -0.2425    1.2411   -2.1283 H         1 <0>         0.0614
      8 H2         -1.7753    1.2154   -1.2238 H         1 <0>         0.0725
      9 H3         -0.7675    2.6825   -1.2255 H         1 <0>         0.0609
     10 H4          0.0021   -0.0041    0.0020 H         1 <0>         0.0871
     11 H5         -0.2017    1.2182    2.1499 H         1 <0>         0.0598
     12 H6         -0.7436    2.6691    1.2728 H         1 <0>         0.0564
     13 H7         -1.7514    1.2020    1.2746 H         1 <0>         0.0657
     14 H8          1.5740    2.4089   -0.4819 H         1 <0>         0.4015
     15 H9          3.3444    1.2994    0.6466 H         1 <0>         0.1320
@<TRIPOS>BOND
     1    1    2 1
     2    1    7 1
     3    1    8 1
     4    1    9 1
     5    2    3 1
     6    2    4 1
     7    2   10 1
     8    3   11 1
     9    3   12 1
    10    3   13 1
    11    4    5 am
    12    4   14 1
    13    5    6 2
    14    5   15 1
@<TRIPOS>MOLECULE
ZINC01687323
   15    14     0     0     0
SMALL
USER_CHARGES
N-propylformamide
@<TRIPOS>ATOM
      1 C1         -4.9400    1.3123    0.0326 C.3       1 <0>        -0.1516
      2 C2         -3.6255    2.0952    0.0306 C.3       1 <0>        -0.1359
      3 C3         -2.4492    1.1169    0.0197 C.3       1 <0>         0.1094
      4 N1         -1.1906    1.8666    0.0178 N.am      1 <0>        -0.7403
      5 C4         -0.0144    1.2086    0.0087 C.2       1 <0>         0.4888
      6 O1          0.0021   -0.0041    0.0020 O.2       1 <0>        -0.5551
      7 H1         -4.9935    0.6898   -0.8605 H         1 <0>         0.0582
      8 H2         -4.9851    0.6801    0.9194 H         1 <0>         0.0582
      9 H3         -5.7781    2.0093    0.0404 H         1 <0>         0.0608
     10 H4         -3.5721    2.7178    0.9238 H         1 <0>         0.0685
     11 H5         -3.5805    2.7274   -0.8561 H         1 <0>         0.0685
     12 H6         -2.5027    0.4944   -0.8734 H         1 <0>         0.0672
     13 H7         -2.4943    0.4847    0.9065 H         1 <0>         0.0672
     14 H8         -1.2037    2.8365    0.0232 H         1 <0>         0.4025
     15 H9          0.9135    1.7613    0.0028 H         1 <0>         0.1336
@<TRIPOS>BOND
     1    1    2 1
     2    1    7 1
     3    1    8 1
     4    1    9 1
     5    2    3 1
     6    2   10 1
     7    2   11 1
     8    3    4 1
     9    3   12 1
    10    3   13 1
    11    4    5 am
    12    4   14 1
    13    5    6 2
    14    5   15 1
@<TRIPOS>MOLECULE
ZINC01733926
   20    20     0     0     0
SMALL
USER_CHARGES

@<TRIPOS>ATOM
      1 C1         -0.0167    1.3781    0.0096 C.ar      1 <0>        -0.0862
      2 C2          1.1709    2.0855    0.0021 C.ar      1 <0>        -0.1154
      3 C3          2.3773    1.4107   -0.0130 C.ar      1 <0>        -0.0918
      4 C4          2.3960    0.0285   -0.0201 C.ar      1 <0>        -0.1580
      5 C5          1.2084   -0.6789   -0.0117 C.ar      1 <0>        -0.0958
      6 C6          0.0021   -0.0041    0.0020 C.ar      1 <0>        -0.1165
      7 C7          3.7112   -0.7071   -0.0376 C.3       1 <0>         0.1231
      8 N1          4.1518   -0.9524    1.3379 N.pl3     1 <0>        -0.5531
      9 C8          4.2384   -2.1609    1.7819 C.2       1 <0>         0.4850
     10 O1          4.6442   -2.3868    3.0486 O.3       1 <0>        -0.4489
     11 H1         -0.9591    1.9053    0.0259 H         1 <0>         0.1351
     12 H2          1.1563    3.1654    0.0076 H         1 <0>         0.1354
     13 H3          3.3051    1.9634   -0.0196 H         1 <0>         0.1309
     14 H4          1.2231   -1.7588   -0.0176 H         1 <0>         0.1270
     15 H5         -0.9258   -0.5567    0.0082 H         1 <0>         0.1346
     16 H6          3.5884   -1.6586   -0.5549 H         1 <0>         0.1294
     17 H7          4.4573   -0.1052   -0.5563 H         1 <0>         0.1358
     18 H8          3.9860   -2.9916    1.1394 H         1 <0>         0.2271
     19 H9          4.6775   -3.3226    3.2900 H         1 <0>         0.4652
     20 H10         4.3785   -0.2063    1.9149 H         1 <0>         0.4371
@<TRIPOS>BOND
     1    1    6 ar
     2    1    2 ar
     3    1   11 1
     4    2    3 ar
     5    2   12 1
     6    3    4 ar
     7    3   13 1
     8    4    5 ar
     9    4    7 1
    10    5    6 ar
    11    5   14 1
    12    6   15 1
    13    7    8 1
    14    7   16 1
    15    7   17 1
    16    8    9 2
    17    8   20 1
    18    9   10 1
    19    9   18 1
    20   10   19 1
@<TRIPOS>MOLECULE
ZINC01733926
   19    19     0     0     0
SMALL
USER_CHARGES

@<TRIPOS>ATOM
      1 C1         -0.0167    1.3781    0.0096 C.ar      1 <0>        -0.1182
      2 C2          1.1709    2.0855    0.0021 C.ar      1 <0>        -0.1202
      3 C3          2.3773    1.4107   -0.0130 C.ar      1 <0>        -0.0972
      4 C4          2.3960    0.0285   -0.0201 C.ar      1 <0>        -0.0849
      5 C5          1.2084   -0.6789   -0.0117 C.ar      1 <0>        -0.1139
      6 C6          0.0021   -0.0041    0.0020 C.ar      1 <0>        -0.1207
      7 C7          3.7112   -0.7071   -0.0376 C.3       1 <0>         0.1036
      8 N1          4.1518   -0.9524    1.3379 N.2       1 <0>        -0.5561
      9 C8          4.2384   -2.1609    1.7819 C.2       1 <0>         0.3188
     10 O1          4.6442   -2.3868    3.0486 O.3       1 <0>        -0.4810
     11 H1         -0.9591    1.9053    0.0259 H         1 <0>         0.1228
     12 H2          1.1563    3.1654    0.0076 H         1 <0>         0.1241
     13 H3          3.3051    1.9634   -0.0196 H         1 <0>         0.1245
     14 H4          1.2231   -1.7588   -0.0176 H         1 <0>         0.1165
     15 H5         -0.9258   -0.5567    0.0082 H         1 <0>         0.1226
     16 H6          3.5884   -1.6586   -0.5549 H         1 <0>         0.0501
     17 H7          4.4573   -0.1052   -0.5563 H         1 <0>         0.0954
     18 H8          3.9860   -2.9916    1.1394 H         1 <0>         0.1025
     19 H9          4.6775   -3.3226    3.2900 H         1 <0>         0.4115
@<TRIPOS>BOND
     1    1    6 ar
     2    1    2 ar
     3    1   11 1
     4    2    3 ar
     5    2   12 1
     6    3    4 ar
     7    3   13 1
     8    4    5 ar
     9    4    7 1
    10    5    6 ar
    11    5   14 1
    12    6   15 1
    13    7    8 1
    14    7   16 1
    15    7   17 1
    16    8    9 2
    17    9   10 1
    18    9   18 1
    19   10   19 1
@<TRIPOS>MOLECULE
ZINC01733926
   19    19     0     0     0
SMALL
USER_CHARGES

@<TRIPOS>ATOM
      1 C1         -0.0167    1.3781    0.0096 C.ar      1 <0>        -0.1211
      2 C2          1.1709    2.0855    0.0021 C.ar      1 <0>        -0.1210
      3 C3          2.3773    1.4107   -0.0130 C.ar      1 <0>        -0.1023
      4 C4          2.3960    0.0285   -0.0201 C.ar      1 <0>        -0.0786
      5 C5          1.2084   -0.6789   -0.0117 C.ar      1 <0>        -0.1127
      6 C6          0.0021   -0.0041    0.0020 C.ar      1 <0>        -0.1214
      7 C7          3.7112   -0.7071   -0.0376 C.3       1 <0>         0.0784
      8 N1          4.1518   -0.9524    1.3379 N.2       1 <0>        -0.5345
      9 C8          4.2384   -2.1609    1.7819 C.2       1 <0>         0.3083
     10 O1          3.9231   -3.1986    0.9793 O.3       1 <0>        -0.5323
     11 H1         -0.9591    1.9053    0.0259 H         1 <0>         0.1218
     12 H2          1.1563    3.1654    0.0076 H         1 <0>         0.1230
     13 H3          3.3051    1.9634   -0.0196 H         1 <0>         0.1228
     14 H4          1.2231   -1.7588   -0.0176 H         1 <0>         0.1178
     15 H5         -0.9258   -0.5567    0.0082 H         1 <0>         0.1215
     16 H6          3.5884   -1.6586   -0.5549 H         1 <0>         0.0651
     17 H7          4.4573   -0.1052   -0.5563 H         1 <0>         0.0873
     18 H8          4.5632   -2.3417    2.7959 H         1 <0>         0.1723
     19 H9          4.0188   -4.0642    1.3997 H         1 <0>         0.4057
@<TRIPOS>BOND
     1    1    6 ar
     2    1    2 ar
     3    1   11 1
     4    2    3 ar
     5    2   12 1
     6    3    4 ar
     7    3   13 1
     8    4    5 ar
     9    4    7 1
    10    5    6 ar
    11    5   14 1
    12    6   15 1
    13    7    8 1
    14    7   16 1
    15    7   17 1
    16    8    9 2
    17    9   10 1
    18    9   18 1
    19   10   19 1
@<TRIPOS>MOLECULE
ZINC00332634
   22    22     0     0     0
SMALL
USER_CHARGES
N-cyclohexylformamide
@<TRIPOS>ATOM
      1 C1          4.0350    2.0097   -0.8531 C.3       1 <0>        -0.1226
      2 C2          3.6749    1.6330    0.5854 C.3       1 <0>        -0.1173
      3 C3          2.3605    0.8501    0.5937 C.3       1 <0>        -0.1260
      4 C4          1.2475    1.7155   -0.0006 C.3       1 <0>         0.1374
      5 C5          1.6076    2.0922   -1.4391 C.3       1 <0>        -0.1285
      6 C6          2.9221    2.8752   -1.4475 C.3       1 <0>        -0.1185
      7 N1         -0.0111    0.9658    0.0074 N.am      1 <0>        -0.7358
      8 C7         -1.1873    1.6238    0.0165 C.2       1 <0>         0.4899
      9 O1         -1.2037    2.8365    0.0232 O.2       1 <0>        -0.5537
     10 H1          4.9715    2.5675   -0.8591 H         1 <0>         0.0645
     11 H2          4.1480    1.1037   -1.4485 H         1 <0>         0.0626
     12 H3          3.5620    2.5390    1.1808 H         1 <0>         0.0652
     13 H4          4.4678    1.0164    1.0089 H         1 <0>         0.0676
     14 H5          2.1039    0.5817    1.6186 H         1 <0>         0.0681
     15 H6          2.4734   -0.0559   -0.0017 H         1 <0>         0.0676
     16 H7          1.1346    2.6215    0.5948 H         1 <0>         0.0872
     17 H8          1.7206    1.1862   -2.0346 H         1 <0>         0.0629
     18 H9          0.8148    2.7088   -1.8626 H         1 <0>         0.0664
     19 H10         2.8092    3.7812   -0.8521 H         1 <0>         0.0645
     20 H11         3.1787    3.1436   -2.4723 H         1 <0>         0.0653
     21 H12         0.0021   -0.0041    0.0020 H         1 <0>         0.4013
     22 H13        -2.1152    1.0711    0.0179 H         1 <0>         0.1318
@<TRIPOS>BOND
     1    1    6 1
     2    1    2 1
     3    1   10 1
     4    1   11 1
     5    2    3 1
     6    2   12 1
     7    2   13 1
     8    3    4 1
     9    3   14 1
    10    3   15 1
    11    4    5 1
    12    4    7 1
    13    4   16 1
    14    5    6 1
    15    5   17 1
    16    5   18 1
    17    6   19 1
    18    6   20 1
    19    7    8 am
    20    7   21 1
    21    8    9 2
    22    8   22 1
@<TRIPOS>MOLECULE
ZINC12501627
   30    29     0     0     0
SMALL
USER_CHARGES
N-[(1R)-1-methylheptyl]formamide
@<TRIPOS>ATOM
      1 C1         -3.6083   -1.7303   -6.2411 C.3       1 <0>        -0.1547
      2 C2         -3.9216   -1.4819   -4.7643 C.3       1 <0>        -0.1259
      3 C3         -2.8354   -0.5932   -4.1550 C.3       1 <0>        -0.1212
      4 C4         -3.1487   -0.3448   -2.6782 C.3       1 <0>        -0.1208
      5 C5         -2.0625    0.5439   -2.0688 C.3       1 <0>        -0.1199
      6 C6         -2.3758    0.7923   -0.5920 C.3       1 <0>        -0.1277
      7 C7         -1.2896    1.6810    0.0173 C.3       1 <0>         0.1337
      8 H1         -1.1985    2.5963   -0.5676 H         1 <0>         0.0874
      9 C8         -1.6665    2.0319    1.4580 C.3       1 <0>        -0.1639
     10 N1         -0.0111    0.9658    0.0074 N.am      1 <0>        -0.7323
     11 C9          1.1468    1.6555   -0.0000 C.2       1 <0>         0.4898
     12 O1          1.1304    2.8682    0.0067 O.2       1 <0>        -0.5543
     13 H2         -3.5780   -0.7784   -6.7712 H         1 <0>         0.0535
     14 H3         -2.6416   -2.2262   -6.3290 H         1 <0>         0.0533
     15 H4         -4.3822   -2.3635   -6.6752 H         1 <0>         0.0537
     16 H5         -3.9520   -2.4338   -4.2342 H         1 <0>         0.0603
     17 H6         -4.8884   -0.9861   -4.6764 H         1 <0>         0.0605
     18 H7         -2.8051    0.3587   -4.6851 H         1 <0>         0.0609
     19 H8         -1.8687   -1.0890   -4.2429 H         1 <0>         0.0604
     20 H9         -3.1791   -1.2967   -2.1480 H         1 <0>         0.0611
     21 H10        -4.1155    0.1510   -2.5903 H         1 <0>         0.0618
     22 H11        -2.0322    1.4958   -2.5990 H         1 <0>         0.0625
     23 H12        -1.0958    0.0481   -2.1567 H         1 <0>         0.0622
     24 H13        -2.4062   -0.1596   -0.0619 H         1 <0>         0.0680
     25 H14        -3.3426    1.2881   -0.5041 H         1 <0>         0.0781
     26 H15        -2.6178    2.5640    1.4654 H         1 <0>         0.0653
     27 H16        -1.7576    1.1166    2.0430 H         1 <0>         0.0564
     28 H17        -0.8927    2.6650    1.8921 H         1 <0>         0.0602
     29 H18         0.0021   -0.0041    0.0020 H         1 <0>         0.4009
     30 H19         2.0893    1.1283   -0.0118 H         1 <0>         0.1305
@<TRIPOS>BOND
     1    1    2 1
     2    1   13 1
     3    1   14 1
     4    1   15 1
     5    2    3 1
     6    2   16 1
     7    2   17 1
     8    3    4 1
     9    3   18 1
    10    3   19 1
    11    4    5 1
    12    4   20 1
    13    4   21 1
    14    5    6 1
    15    5   22 1
    16    5   23 1
    17    6    7 1
    18    6   24 1
    19    6   25 1
    20    7    8 1
    21    7    9 1
    22    7   10 1
    23    9   26 1
    24    9   27 1
    25    9   28 1
    26   10   11 am
    27   10   29 1
    28   11   12 2
    29   11   30 1
@<TRIPOS>MOLECULE
ZINC12501629
   30    29     0     0     0
SMALL
USER_CHARGES
N-[(1S)-1-methylheptyl]formamide
@<TRIPOS>ATOM
      1 C1         -0.7050    1.5658    3.7651 C.3       1 <0>        -0.1547
      2 C2          0.0111    1.0724    2.5063 C.3       1 <0>        -0.1259
      3 C3         -0.7288    1.5792    1.2668 C.3       1 <0>        -0.1213
      4 C4         -0.0127    1.0858    0.0080 C.3       1 <0>        -0.1208
      5 C5         -0.7527    1.5927   -1.2315 C.3       1 <0>        -0.1199
      6 C6         -0.0366    1.0992   -2.4903 C.3       1 <0>        -0.1277
      7 C7         -0.7766    1.6061   -3.7298 C.3       1 <0>         0.1337
      8 H1         -1.8223    1.3032   -3.6778 H         1 <0>         0.0874
      9 C8         -0.1353    1.0115   -4.9853 C.3       1 <0>        -0.1640
     10 N1         -0.6936    3.0677   -3.7845 N.am      1 <0>        -0.7323
     11 C9         -1.6357    3.7720   -4.4424 C.2       1 <0>         0.4898
     12 O1         -2.5522    3.1958   -4.9892 O.2       1 <0>        -0.5543
     13 H2         -0.7198    2.6557    3.7711 H         1 <0>         0.0533
     14 H3         -1.7276    1.1885    3.7729 H         1 <0>         0.0535
     15 H4         -0.1778    1.2047    4.6482 H         1 <0>         0.0537
     16 H5          0.0259   -0.0175    2.5003 H         1 <0>         0.0605
     17 H6          1.0337    1.4497    2.4986 H         1 <0>         0.0603
     18 H7         -0.7436    2.6691    1.2728 H         1 <0>         0.0604
     19 H8         -1.7514    1.2020    1.2746 H         1 <0>         0.0609
     20 H9          0.0021   -0.0041    0.0020 H         1 <0>         0.0618
     21 H10         1.0099    1.4631    0.0003 H         1 <0>         0.0611
     22 H11        -1.7753    1.2154   -1.2238 H         1 <0>         0.0625
     23 H12        -0.7675    2.6825   -1.2255 H         1 <0>         0.0622
     24 H13         0.9860    1.4765   -2.4981 H         1 <0>         0.0680
     25 H14        -0.0218    0.0093   -2.4963 H         1 <0>         0.0781
     26 H15        -0.6624    1.3726   -5.8684 H         1 <0>         0.0603
     27 H16         0.9105    1.3144   -5.0373 H         1 <0>         0.0564
     28 H17        -0.1970   -0.0759   -4.9446 H         1 <0>         0.0653
     29 H18         0.0394    3.5286   -3.3472 H         1 <0>         0.4009
     30 H19        -1.5745    4.8495   -4.4827 H         1 <0>         0.1305
@<TRIPOS>BOND
     1    1    2 1
     2    1   13 1
     3    1   14 1
     4    1   15 1
     5    2    3 1
     6    2   16 1
     7    2   17 1
     8    3    4 1
     9    3   18 1
    10    3   19 1
    11    4    5 1
    12    4   20 1
    13    4   21 1
    14    5    6 1
    15    5   22 1
    16    5   23 1
    17    6    7 1
    18    6   24 1
    19    6   25 1
    20    7    8 1
    21    7    9 1
    22    7   10 1
    23    9   26 1
    24    9   27 1
    25    9   28 1
    26   10   11 am
    27   10   29 1
    28   11   12 2
    29   11   30 1
@<TRIPOS>MOLECULE
ZINC13779479
   16    16     0     0     0
SMALL
USER_CHARGES
N-cyclobutylformamide
@<TRIPOS>ATOM
      1 C1          0.0021   -0.0041    0.0020 C.3       1 <0>        -0.1407
      2 C2         -0.0188    1.5336    0.0105 C.3       1 <0>        -0.1477
      3 C3          1.5179    1.4762   -0.0045 C.3       1 <0>         0.1132
      4 C4          1.3941    0.0896    0.6488 C.3       1 <0>        -0.1538
      5 N1          2.1510    2.4769    0.8580 N.am      1 <0>        -0.7291
      6 C5          3.4042    2.8972    0.5951 C.2       1 <0>         0.4905
      7 O1          4.0079    2.4470   -0.3556 O.2       1 <0>        -0.5550
      8 H1         -0.7506   -0.4545    0.6490 H         1 <0>         0.0741
      9 H2          0.0139   -0.4351   -0.9991 H         1 <0>         0.0847
     10 H3         -0.4483    1.9694   -0.8916 H         1 <0>         0.0743
     11 H4         -0.4309    1.9596    0.9252 H         1 <0>         0.0853
     12 H5          1.9441    1.4499   -1.0074 H         1 <0>         0.1142
     13 H6          1.3682    0.1209    1.7381 H         1 <0>         0.0835
     14 H7          2.1048   -0.6413    0.2631 H         1 <0>         0.0716
     15 H8          1.6681    2.8370    1.6184 H         1 <0>         0.4027
     16 H9          3.8709    3.6350    1.2310 H         1 <0>         0.1324
@<TRIPOS>BOND
     1    1    4 1
     2    1    2 1
     3    1    8 1
     4    1    9 1
     5    2    3 1
     6    2   10 1
     7    2   11 1
     8    3    4 1
     9    3    5 1
    10    3   12 1
    11    4   13 1
    12    4   14 1
    13    5    6 am
    14    5   15 1
    15    6    7 2
    16    6   16 1
