@<TRIPOS>MOLECULE
ZINC00020245
   46    48     0     0     0
SMALL
USER_CHARGES

@<TRIPOS>ATOM
      1 C1         -5.6836    1.3838    0.0162 C.3       1 <0>        -0.0473
      2 N1         -5.6620   -0.0833   -0.0564 N.4       1 <0>        -0.3868
      3 C2         -6.3713   -0.5242   -1.2649 C.3       1 <0>        -0.0522
      4 C3         -4.2702   -0.5505   -0.1076 C.3       1 <0>        -0.0086
      5 C4         -4.2434   -2.0795   -0.0575 C.3       1 <0>        -0.1781
      6 C5         -2.7938   -2.5661   -0.1108 C.3       1 <0>         0.1490
      7 N2         -2.7704   -4.0309   -0.1190 N.pl3     1 <0>        -0.6108
      8 C6         -2.7295   -4.7451   -1.3212 C.ar      1 <0>         0.1758
      9 C7         -1.6865   -4.4783   -2.2022 C.ar      1 <0>        -0.1411
     10 C8         -1.5734   -5.1772   -3.3856 C.ar      1 <0>        -0.1022
     11 C9         -2.5089   -6.1508   -3.6854 C.ar      1 <0>        -0.1266
     12 C10        -3.5489   -6.4041   -2.8209 C.ar      1 <0>        -0.1101
     13 C11        -3.6933   -5.6947   -1.6266 C.ar      1 <0>        -0.0998
     14 C12        -4.9357   -6.0340   -0.8354 C.3       1 <0>        -0.0687
     15 C13        -5.1005   -5.1892    0.4158 C.3       1 <0>        -0.0773
     16 C14        -3.9592   -5.4030    1.3779 C.ar      1 <0>        -0.0996
     17 C15        -2.7824   -4.7590    1.0748 C.ar      1 <0>         0.1523
     18 C16        -1.6837   -4.8488    1.9126 C.ar      1 <0>        -0.1184
     19 C17        -1.7825   -5.6251    3.0560 C.ar      1 <0>        -0.1094
     20 C18        -2.9565   -6.2950    3.3488 C.ar      1 <0>        -0.1165
     21 C19        -4.0679   -6.1865    2.5030 C.ar      1 <0>        -0.1028
     22 H1         -6.7163    1.7305    0.0542 H         1 <0>         0.1245
     23 H2         -5.1573    1.7109    0.9129 H         1 <0>         0.1235
     24 H3         -5.1933    1.7984   -0.8646 H         1 <0>         0.1221
     25 H4         -6.3552   -1.6128   -1.3188 H         1 <0>         0.1231
     26 H5         -7.4040   -0.1775   -1.2269 H         1 <0>         0.1246
     27 H6         -5.8810   -0.1096   -2.1457 H         1 <0>         0.1227
     28 H7         -3.8061   -0.2091   -1.0329 H         1 <0>         0.1308
     29 H8         -3.7207   -0.1494    0.7440 H         1 <0>         0.1320
     30 H9         -4.7075   -2.4209    0.8678 H         1 <0>         0.0908
     31 H10        -4.7929   -2.4806   -0.9091 H         1 <0>         0.0915
     32 H11        -2.3174   -2.1901   -1.0161 H         1 <0>         0.0824
     33 H12        -2.2550   -2.1990    0.7627 H         1 <0>         0.0801
     34 H13        -0.9599   -3.7176   -1.9576 H         1 <0>         0.1215
     35 H14        -0.7646   -4.9667   -4.0697 H         1 <0>         0.1276
     36 H15        -2.4229   -6.7145   -4.6025 H         1 <0>         0.1250
     37 H16        -4.2693   -7.1687   -3.0712 H         1 <0>         0.1222
     38 H17        -5.8074   -5.8880   -1.4734 H         1 <0>         0.0793
     39 H18        -4.8898   -7.0837   -0.5452 H         1 <0>         0.0765
     40 H19        -5.1365   -4.1371    0.1334 H         1 <0>         0.0724
     41 H20        -6.0358   -5.4578    0.9068 H         1 <0>         0.0709
     42 H21        -0.7686   -4.3248    1.6795 H         1 <0>         0.1257
     43 H22        -0.9372   -5.7074    3.7231 H         1 <0>         0.1275
     44 H23        -3.0178   -6.9071    4.2365 H         1 <0>         0.1269
     45 H24        -4.9880   -6.7067    2.7249 H         1 <0>         0.1290
     46 H25        -6.1159   -0.4671    0.7589 H         1 <0>         0.4268
@<TRIPOS>BOND
     1    1    2 1
     2    1   22 1
     3    1   23 1
     4    1   24 1
     5    2    3 1
     6    2    4 1
     7    2   46 1
     8    3   25 1
     9    3   26 1
    10    3   27 1
    11    4    5 1
    12    4   28 1
    13    4   29 1
    14    5    6 1
    15    5   30 1
    16    5   31 1
    17    6    7 1
    18    6   32 1
    19    6   33 1
    20    7   17 1
    21    7    8 1
    22    8   13 ar
    23    8    9 ar
    24    9   10 ar
    25    9   34 1
    26   10   11 ar
    27   10   35 1
    28   11   12 ar
    29   11   36 1
    30   12   13 ar
    31   12   37 1
    32   13   14 1
    33   14   15 1
    34   14   38 1
    35   14   39 1
    36   15   16 1
    37   15   40 1
    38   15   41 1
    39   16   21 ar
    40   16   17 ar
    41   17   18 ar
    42   18   19 ar
    43   18   42 1
    44   19   20 ar
    45   19   43 1
    46   20   21 ar
    47   20   44 1
    48   21   45 1
@<TRIPOS>MOLECULE
ZINC29560057
   52    55     0     0     0
SMALL
USER_CHARGES

@<TRIPOS>ATOM
      1 C1         -0.0167    1.3795    0.0096 C.ar      1 <0>        -0.1047
      2 C2          1.1661    2.0933    0.0022 C.ar      1 <0>        -0.1003
      3 C3          2.3801    1.4154   -0.0187 C.ar      1 <0>        -0.0857
      4 C4          2.4015    0.0148   -0.0093 C.ar      1 <0>         0.1041
      5 C5          1.2077   -0.6908   -0.0060 C.ar      1 <0>         0.0991
      6 C6          0.0021   -0.0041    0.0020 C.ar      1 <0>        -0.1760
      7 O1          1.2185   -2.0508   -0.0111 O.3       1 <0>        -0.2929
      8 C7         -0.0495   -2.7097   -0.0073 C.3       1 <0>         0.0654
      9 C8          0.1631   -4.2249   -0.0139 C.3       1 <0>         0.0696
     10 H1          0.7931   -4.5003   -0.8597 H         1 <0>         0.1002
     11 C9         -1.1901   -4.9304   -0.1333 C.3       1 <0>        -0.0391
     12 N1         -0.9879   -6.3849   -0.0809 N.4       1 <0>        -0.5035
     13 C10        -0.3574   -6.7450    1.1965 C.3       1 <0>        -0.0465
     14 C11         0.9943   -6.0361    1.3134 C.3       1 <0>         0.0332
     15 O2          0.7978   -4.6235    1.2043 O.3       1 <0>        -0.3423
     16 O3          3.5994   -0.6254    0.0189 O.3       1 <0>        -0.2978
     17 C12         4.6888   -0.0090   -0.6673 C.3       1 <0>         0.1066
     18 C13         4.7726    1.4555   -0.3263 C.2       1 <0>        -0.1378
     19 C14         3.6698    2.1377   -0.0331 C.2       1 <0>        -0.1010
     20 C15         6.1102    2.1496   -0.3175 C.3       1 <0>         0.0923
     21 N2          6.7556    1.9524    0.9874 N.3       1 <0>        -0.5328
     22 C16         6.0078    2.6347    2.0535 C.3       1 <0>         0.0139
     23 C17         6.6796    2.3543    3.4004 C.3       1 <0>         0.0639
     24 O4          8.0454    2.7745    3.3428 O.3       1 <0>        -0.3834
     25 C18         8.8034    2.1294    2.3159 C.3       1 <0>         0.0630
     26 C19         8.1532    2.4075    0.9580 C.3       1 <0>         0.0169
     27 H2         -0.9607    1.9040    0.0260 H         1 <0>         0.1342
     28 H3          1.1479    3.1731    0.0122 H         1 <0>         0.1351
     29 H4         -0.9280   -0.5531    0.0027 H         1 <0>         0.1324
     30 H5         -0.6044   -2.4246    0.8865 H         1 <0>         0.0822
     31 H6         -0.6132   -2.4180   -0.8934 H         1 <0>         0.0893
     32 H7         -1.8344   -4.6230    0.6904 H         1 <0>         0.1457
     33 H8         -1.6577   -4.6621   -1.0807 H         1 <0>         0.1504
     34 H9         -1.8790   -6.8515   -0.1597 H         1 <0>         0.4389
     35 H10        -1.0020   -6.4369    2.0197 H         1 <0>         0.1423
     36 H11        -0.2068   -7.8238    1.2363 H         1 <0>         0.1484
     37 H12         1.4443   -6.2675    2.2788 H         1 <0>         0.1449
     38 H13         1.6530   -6.3742    0.5135 H         1 <0>         0.0838
     39 H14         5.6186   -0.4987   -0.3779 H         1 <0>         0.1221
     40 H15         4.5449   -0.1197   -1.7420 H         1 <0>         0.0690
     41 H16         3.7151    3.1936    0.1895 H         1 <0>         0.1350
     42 H17         6.7414    1.7321   -1.1018 H         1 <0>         0.0901
     43 H18         5.9675    3.2156   -0.4948 H         1 <0>         0.0511
     44 H19         6.0036    3.7083    1.8653 H         1 <0>         0.0448
     45 H20         4.9830    2.2641    2.0738 H         1 <0>         0.0879
     46 H21         6.1624    2.9044    4.1865 H         1 <0>         0.0993
     47 H22         6.6360    1.2863    3.6135 H         1 <0>         0.0598
     48 H23         9.8223    2.5168    2.3177 H         1 <0>         0.1016
     49 H24         8.8216    1.0548    2.4974 H         1 <0>         0.0608
     50 H25         8.6944    1.8711    0.1786 H         1 <0>         0.0894
     51 H26         8.1833    3.4775    0.7523 H         1 <0>         0.0468
     52 H27        -0.3906   -6.6691   -0.8429 H         1 <0>         0.4307
@<TRIPOS>BOND
     1    1    6 ar
     2    1    2 ar
     3    1   27 1
     4    2    3 ar
     5    2   28 1
     6    3   19 1
     7    3    4 ar
     8    4    5 ar
     9    4   16 1
    10    5    6 ar
    11    5    7 1
    12    6   29 1
    13    7    8 1
    14    8    9 1
    15    8   30 1
    16    8   31 1
    17    9   10 1
    18    9   15 1
    19    9   11 1
    20   11   12 1
    21   11   32 1
    22   11   33 1
    23   12   13 1
    24   12   34 1
    25   12   52 1
    26   13   14 1
    27   13   35 1
    28   13   36 1
    29   14   15 1
    30   14   37 1
    31   14   38 1
    32   16   17 1
    33   17   18 1
    34   17   39 1
    35   17   40 1
    36   18   19 2
    37   18   20 1
    38   19   41 1
    39   20   21 1
    40   20   42 1
    41   20   43 1
    42   21   26 1
    43   21   22 1
    44   22   23 1
    45   22   44 1
    46   22   45 1
    47   23   24 1
    48   23   46 1
    49   23   47 1
    50   24   25 1
    51   25   26 1
    52   25   48 1
    53   25   49 1
    54   26   50 1
    55   26   51 1
@<TRIPOS>MOLECULE
ZINC01530717
   45    45     0     0     0
SMALL
USER_CHARGES

@<TRIPOS>ATOM
      1 C1         -0.0187    1.5258    0.0104 C.3       1 <0>        -0.1868
      2 C2          0.0021   -0.0041    0.0020 C.3       1 <0>         0.0240
      3 C3          0.7182   -0.4975   -1.2568 C.3       1 <0>        -0.1852
      4 N1          0.7126   -0.4907    1.1921 N.4       1 <0>        -0.5018
      5 C4         -0.0398   -0.1189    2.3978 C.3       1 <0>        -0.0455
      6 C5          0.7001   -0.6257    3.6373 C.3       1 <0>         0.0864
      7 H1          1.6931   -0.1778    3.6761 H         1 <0>         0.1354
      8 C6         -0.0835   -0.2384    4.8930 C.3       1 <0>         0.0300
      9 O1          0.6635   -0.6084    6.0537 O.3       1 <0>        -0.3023
     10 C7          0.1044   -0.3322    7.2612 C.ar      1 <0>         0.1160
     11 C8         -1.1402    0.2770    7.3275 C.ar      1 <0>        -0.2056
     12 C9         -1.7066    0.5563    8.5562 C.ar      1 <0>        -0.0738
     13 C10        -1.0340    0.2295    9.7191 C.ar      1 <0>        -0.1081
     14 C11         0.2067   -0.3774    9.6557 C.ar      1 <0>        -0.0708
     15 C12         0.7747   -0.6643    8.4295 C.ar      1 <0>        -0.1404
     16 C13        -1.6540    0.5358   11.0581 C.3       1 <0>        -0.0798
     17 C14        -2.4979   -0.6562   11.5140 C.3       1 <0>         0.0659
     18 O2         -3.0859   -0.3658   12.7836 O.3       1 <0>        -0.3924
     19 C15        -3.8989   -1.4203   13.3025 C.3       1 <0>         0.0310
     20 O3          0.8214   -2.0480    3.5713 O.3       1 <0>        -0.5436
     21 H2          1.0039    1.9031    0.0027 H         1 <0>         0.0836
     22 H3         -0.5459    1.8868   -0.8726 H         1 <0>         0.1080
     23 H4         -0.5289    1.8773    0.9072 H         1 <0>         0.0802
     24 H5         -1.0205   -0.3814    0.0098 H         1 <0>         0.1392
     25 H6          1.7408   -0.1202   -1.2645 H         1 <0>         0.0830
     26 H7          0.7330   -1.5874   -1.2628 H         1 <0>         0.0830
     27 H8          0.1910   -0.1364   -2.1398 H         1 <0>         0.1083
     28 H9          0.7982   -1.4950    1.1455 H         1 <0>         0.4333
     29 H10        -0.1324    0.9660    2.4481 H         1 <0>         0.1473
     30 H11        -1.0328   -0.5668    2.3589 H         1 <0>         0.1394
     31 H12        -0.2529    0.8383    4.8979 H         1 <0>         0.0813
     32 H13        -1.0422   -0.7571    4.8973 H         1 <0>         0.0762
     33 H14        -1.6657    0.5331    6.4194 H         1 <0>         0.1245
     34 H15        -2.6755    1.0306    8.6084 H         1 <0>         0.1292
     35 H16         0.7303   -0.6313   10.5655 H         1 <0>         0.1358
     36 H17         1.7419   -1.1424    8.3805 H         1 <0>         0.1346
     37 H18        -0.8670    0.7242   11.7884 H         1 <0>         0.0846
     38 H19        -2.2882    1.4180   10.9716 H         1 <0>         0.0829
     39 H20        -3.2849   -0.8447   10.7837 H         1 <0>         0.0488
     40 H21        -1.8638   -1.5385   11.6005 H         1 <0>         0.0507
     41 H22        -4.7149   -1.6245   12.6094 H         1 <0>         0.0419
     42 H23        -3.2938   -2.3184   13.4261 H         1 <0>         0.0429
     43 H24        -4.3081   -1.1222   14.2678 H         1 <0>         0.0899
     44 H25        -0.0252   -2.5137    3.5341 H         1 <0>         0.3899
     45 H26         1.6317   -0.0761    1.2281 H         1 <0>         0.4287
@<TRIPOS>BOND
     1    1    2 1
     2    1   21 1
     3    1   22 1
     4    1   23 1
     5    2    3 1
     6    2    4 1
     7    2   24 1
     8    3   25 1
     9    3   26 1
    10    3   27 1
    11    4    5 1
    12    4   28 1
    13    4   45 1
    14    5    6 1
    15    5   29 1
    16    5   30 1
    17    6    7 1
    18    6    8 1
    19    6   20 1
    20    8    9 1
    21    8   31 1
    22    8   32 1
    23    9   10 1
    24   10   15 ar
    25   10   11 ar
    26   11   12 ar
    27   11   33 1
    28   12   13 ar
    29   12   34 1
    30   13   14 ar
    31   13   16 1
    32   14   15 ar
    33   14   35 1
    34   15   36 1
    35   16   17 1
    36   16   37 1
    37   16   38 1
    38   17   18 1
    39   17   39 1
    40   17   40 1
    41   18   19 1
    42   19   41 1
    43   19   42 1
    44   19   43 1
    45   20   44 1
@<TRIPOS>MOLECULE
ZINC01530718
   45    45     0     0     0
SMALL
USER_CHARGES

@<TRIPOS>ATOM
      1 C1         -0.0187    1.5258    0.0104 C.3       1 <0>        -0.1863
      2 C2          0.0021   -0.0041    0.0020 C.3       1 <0>         0.0237
      3 C3          0.7182   -0.4975   -1.2568 C.3       1 <0>        -0.1853
      4 N1          0.7126   -0.4907    1.1921 N.4       1 <0>        -0.5024
      5 C4         -0.0398   -0.1189    2.3978 C.3       1 <0>        -0.0455
      6 C5          0.7001   -0.6257    3.6373 C.3       1 <0>         0.0865
      7 H1          0.8710   -1.6983    3.5452 H         1 <0>         0.1344
      8 C6         -0.1432   -0.3488    4.8835 C.3       1 <0>         0.0299
      9 O1          0.4925   -0.9247    6.0264 O.3       1 <0>        -0.3023
     10 C7         -0.1315   -0.7684    7.2236 C.ar      1 <0>         0.1160
     11 C8         -1.3337   -0.0799    7.2959 C.ar      1 <0>        -0.2056
     12 C9         -1.9662    0.0772    8.5139 C.ar      1 <0>        -0.0737
     13 C10        -1.4018   -0.4507    9.6605 C.ar      1 <0>        -0.1081
     14 C11        -0.2034   -1.1369    9.5912 C.ar      1 <0>        -0.0708
     15 C12         0.4299   -1.3020    8.3746 C.ar      1 <0>        -0.1404
     16 C13        -2.0937   -0.2773   10.9880 C.3       1 <0>        -0.0798
     17 C14        -3.0464   -1.4511   11.2236 C.3       1 <0>         0.0660
     18 O2         -3.7025   -1.2867   12.4825 O.3       1 <0>        -0.3923
     19 C15        -4.6196   -2.3352   12.8011 C.3       1 <0>         0.0310
     20 O3          1.9549    0.0485    3.7518 O.3       1 <0>        -0.5427
     21 H2          1.0039    1.9031    0.0027 H         1 <0>         0.0835
     22 H3         -0.5459    1.8868   -0.8726 H         1 <0>         0.1080
     23 H4         -0.5289    1.8773    0.9072 H         1 <0>         0.0795
     24 H5         -1.0205   -0.3814    0.0098 H         1 <0>         0.1397
     25 H6          1.7408   -0.1202   -1.2645 H         1 <0>         0.0830
     26 H7          0.7330   -1.5874   -1.2628 H         1 <0>         0.0830
     27 H8          0.1910   -0.1364   -2.1398 H         1 <0>         0.1083
     28 H9          0.7982   -1.4950    1.1455 H         1 <0>         0.4305
     29 H10        -0.1324    0.9660    2.4481 H         1 <0>         0.1409
     30 H11        -1.0328   -0.5668    2.3589 H         1 <0>         0.1460
     31 H12        -0.2395    0.7276    5.0252 H         1 <0>         0.0766
     32 H13        -1.1325   -0.7887    4.7578 H         1 <0>         0.0809
     33 H14        -1.7746    0.3332    6.4007 H         1 <0>         0.1245
     34 H15        -2.9021    0.6131    8.5707 H         1 <0>         0.1292
     35 H16         0.2356   -1.5479   10.4882 H         1 <0>         0.1358
     36 H17         1.3637   -1.8419    8.3203 H         1 <0>         0.1345
     37 H18        -1.3499   -0.2476   11.7842 H         1 <0>         0.0846
     38 H19        -2.6591    0.6545   10.9841 H         1 <0>         0.0829
     39 H20        -3.7902   -1.4808   10.4274 H         1 <0>         0.0488
     40 H21        -2.4809   -2.3829   11.2276 H         1 <0>         0.0507
     41 H22        -5.3961   -2.3833   12.0376 H         1 <0>         0.0419
     42 H23        -4.0868   -3.2854   12.8378 H         1 <0>         0.0428
     43 H24        -5.0756   -2.1367   13.7711 H         1 <0>         0.0899
     44 H25         1.8791    1.0087    3.8375 H         1 <0>         0.3902
     45 H26         1.6317   -0.0761    1.2281 H         1 <0>         0.4318
@<TRIPOS>BOND
     1    1    2 1
     2    1   21 1
     3    1   22 1
     4    1   23 1
     5    2    3 1
     6    2    4 1
     7    2   24 1
     8    3   25 1
     9    3   26 1
    10    3   27 1
    11    4    5 1
    12    4   28 1
    13    4   45 1
    14    5    6 1
    15    5   29 1
    16    5   30 1
    17    6    7 1
    18    6    8 1
    19    6   20 1
    20    8    9 1
    21    8   31 1
    22    8   32 1
    23    9   10 1
    24   10   15 ar
    25   10   11 ar
    26   11   12 ar
    27   11   33 1
    28   12   13 ar
    29   12   34 1
    30   13   14 ar
    31   13   16 1
    32   14   15 ar
    33   14   35 1
    34   15   36 1
    35   16   17 1
    36   16   37 1
    37   16   38 1
    38   17   18 1
    39   17   39 1
    40   17   40 1
    41   18   19 1
    42   19   41 1
    43   19   42 1
    44   19   43 1
    45   20   44 1
@<TRIPOS>MOLECULE
ZINC02518841
   34    35     0     0     0
SMALL
USER_CHARGES
N,N-dimethyl-2-(1-naphthyloxy)ethanamine
@<TRIPOS>ATOM
      1 C1         -5.1907    3.6957   -2.3317 C.3       1 <0>        -0.0488
      2 C2         -6.0134    5.6164   -1.1082 C.3       1 <0>        -0.0426
      3 C3         -4.9013    3.8164    0.0692 C.3       1 <0>         0.0036
      4 C4         -3.6562    2.9274    0.0532 C.3       1 <0>         0.0229
      5 O1         -2.4857    3.7471    0.0459 O.3       1 <0>        -0.3257
      6 C5         -1.2867    3.1096    0.0315 C.ar      1 <0>         0.1265
      7 C6         -1.2335    1.7440    0.0174 C.ar      1 <0>        -0.2041
      8 C7         -0.0126    1.0758    0.0080 C.ar      1 <0>        -0.0864
      9 C8          1.1637    1.7618    0.0004 C.ar      1 <0>        -0.1214
     10 C9          1.1521    3.1670    0.0080 C.ar      1 <0>        -0.0229
     11 C10        -0.0883    3.8519    0.0236 C.ar      1 <0>        -0.0635
     12 C11        -0.1002    5.2560    0.0304 C.ar      1 <0>        -0.1004
     13 C12         1.0769    5.9397    0.0224 C.ar      1 <0>        -0.1136
     14 C13         2.2972    5.2668    0.0074 C.ar      1 <0>        -0.1015
     15 C14         2.3471    3.9067    0.0001 C.ar      1 <0>        -0.1067
     16 H1         -6.1280    3.1551   -2.2000 H         1 <0>         0.1259
     17 H2         -5.2387    4.2892   -3.2447 H         1 <0>         0.1255
     18 H3         -4.3679    2.9844   -2.4036 H         1 <0>         0.1193
     19 H4         -5.7887    6.3013   -0.2906 H         1 <0>         0.1228
     20 H5         -6.0440    6.1691   -2.0472 H         1 <0>         0.1241
     21 H6         -6.9804    5.1453   -0.9322 H         1 <0>         0.1243
     22 H7         -5.7910    3.1940    0.1643 H         1 <0>         0.1513
     23 H8         -4.8465    4.5033    0.9138 H         1 <0>         0.1412
     24 H9         -3.6676    2.3023   -0.8397 H         1 <0>         0.0879
     25 H10        -3.6506    2.2939    0.9402 H         1 <0>         0.1100
     26 H11        -2.1517    1.1754    0.0187 H         1 <0>         0.1270
     27 H12         0.0021   -0.0041    0.0020 H         1 <0>         0.1314
     28 H13         2.1024    1.2278   -0.0118 H         1 <0>         0.1354
     29 H14        -1.0385    5.7907    0.0417 H         1 <0>         0.1256
     30 H15         1.0649    7.0197    0.0273 H         1 <0>         0.1283
     31 H16         3.2169    5.8329    0.0013 H         1 <0>         0.1309
     32 H17         3.3000    3.3985   -0.0122 H         1 <0>         0.1361
     33 N1         -4.9464    4.5964   -1.1855 N.4       1 <0>        -0.4003
     34 H18        -4.0437    5.0675   -1.3180 H         1 <0>         0.4380
@<TRIPOS>BOND
     1    1   16 1
     2    1   17 1
     3    1   18 1
     4    1   33 1
     5    2   19 1
     6    2   20 1
     7    2   21 1
     8    2   33 1
     9    3    4 1
    10    3   22 1
    11    3   23 1
    12    3   33 1
    13    4    5 1
    14    4   24 1
    15    4   25 1
    16    5    6 1
    17    6   11 ar
    18    6    7 ar
    19    7    8 ar
    20    7   26 1
    21    8    9 ar
    22    8   27 1
    23    9   10 ar
    24    9   28 1
    25   10   15 ar
    26   10   11 ar
    27   11   12 ar
    28   12   13 ar
    29   12   29 1
    30   13   14 ar
    31   13   30 1
    32   14   15 ar
    33   14   31 1
    34   15   32 1
    35   33   34 1
@<TRIPOS>MOLECULE
ZINC00057624
   24    24     0     0     0
SMALL
USER_CHARGES

@<TRIPOS>ATOM
      1 C1         -0.0167    1.3779    0.0096 C.ar      1 <0>        -0.0981
      2 C2          1.1696    2.0886    0.0021 C.ar      1 <0>        -0.1236
      3 C3          2.3802    1.4154   -0.0130 C.ar      1 <0>         0.1055
      4 C4          2.3990    0.0236   -0.0206 C.ar      1 <0>         0.0900
      5 C5          1.2071   -0.6822   -0.0130 C.ar      1 <0>        -0.1137
      6 C6          0.0021   -0.0041    0.0020 C.ar      1 <0>        -0.1399
      7 C7         -1.2936   -0.7736    0.0102 C.3       1 <0>         0.1354
      8 H1         -1.1263   -1.7622    0.4376 H         1 <0>         0.1339
      9 C8         -1.8100   -0.9182   -1.4228 C.3       1 <0>        -0.0430
     10 N1         -3.0730   -1.6683   -1.4148 N.4       1 <0>        -0.6330
     11 O1         -2.2593   -0.0721    0.7960 O.3       1 <0>        -0.5475
     12 O2          3.5850   -0.6417   -0.0359 O.3       1 <0>        -0.4846
     13 O3          3.5476    2.1129   -0.0209 O.3       1 <0>        -0.4848
     14 H2         -0.9598    1.9038    0.0259 H         1 <0>         0.1309
     15 H3          1.1522    3.1684    0.0077 H         1 <0>         0.1437
     16 H4          1.2190   -1.7621   -0.0189 H         1 <0>         0.1389
     17 H5         -1.9772    0.0704   -1.8502 H         1 <0>         0.1398
     18 H6         -1.0734   -1.4533   -2.0221 H         1 <0>         0.1477
     19 H7         -2.9181   -2.5835   -1.0191 H         1 <0>         0.4371
     20 H8         -3.7548   -1.1730   -0.8600 H         1 <0>         0.4387
     21 H9         -2.4578    0.8175    0.4731 H         1 <0>         0.3897
     22 H10         3.9367   -0.8389    0.8430 H         1 <0>         0.3974
     23 H11         3.8938    2.3101    0.8602 H         1 <0>         0.3992
     24 H12        -3.4135   -1.7637   -2.3598 H         1 <0>         0.4402
@<TRIPOS>BOND
     1    1    6 ar
     2    1    2 ar
     3    1   14 1
     4    2    3 ar
     5    2   15 1
     6    3    4 ar
     7    3   13 1
     8    4    5 ar
     9    4   12 1
    10    5    6 ar
    11    5   16 1
    12    6    7 1
    13    7    8 1
    14    7    9 1
    15    7   11 1
    16    9   10 1
    17    9   17 1
    18    9   18 1
    19   10   19 1
    20   10   20 1
    21   10   24 1
    22   11   21 1
    23   12   22 1
    24   13   23 1
@<TRIPOS>MOLECULE
ZINC00896218
   45    47     0     0     0
SMALL
USER_CHARGES
1-[(3-hydroxy-4-methoxy-phenyl)methyl]-6-methoxy-1,2,3,4-tetrahydroisoquinolin-7-ol
@<TRIPOS>ATOM
      1 C1          2.2215    5.3022    0.0079 C.3       1 <0>         0.0203
      2 O1          2.3211    3.8766   -0.0002 O.3       1 <0>        -0.3013
      3 C2          1.1554    3.1762    0.0076 C.ar      1 <0>         0.1211
      4 C3         -0.0572    3.8465    0.0223 C.ar      1 <0>        -0.1861
      5 C4         -1.2413    3.1330    0.0298 C.ar      1 <0>        -0.0688
      6 C5         -1.2190    1.7507    0.0173 C.ar      1 <0>        -0.1524
      7 C6         -0.0126    1.0758    0.0080 C.ar      1 <0>        -0.1272
      8 C7          1.1779    1.7849    0.0004 C.ar      1 <0>         0.0868
      9 O2          2.3655    1.1226   -0.0136 O.3       1 <0>        -0.4855
     10 C8         -2.5128    0.9779    0.0198 C.3       1 <0>        -0.0922
     11 C9         -2.9435    0.7090    1.4630 C.3       1 <0>         0.0966
     12 H1         -2.9983    1.6537    2.0040 H         1 <0>         0.1463
     13 C10        -4.3013    0.0564    1.4633 C.ar      1 <0>        -0.1517
     14 C11        -5.2657    0.5429    0.5919 C.ar      1 <0>        -0.0839
     15 C12        -6.5279   -0.0217    0.5585 C.ar      1 <0>         0.0935
     16 C13        -6.8311   -1.0842    1.4051 C.ar      1 <0>         0.1337
     17 C14        -5.8674   -1.5653    2.2708 C.ar      1 <0>        -0.1884
     18 C15        -4.6020   -0.9972    2.2992 C.ar      1 <0>        -0.0529
     19 C16        -3.5842   -1.5621    3.2570 C.3       1 <0>        -0.1073
     20 C17        -2.4327   -0.5729    3.4388 C.3       1 <0>         0.0007
     21 O3         -8.0698   -1.6450    1.3812 O.3       1 <0>        -0.2971
     22 C18        -8.3074   -2.7315    2.2785 C.3       1 <0>         0.0196
     23 O4         -7.4685    0.4589   -0.2981 O.3       1 <0>        -0.4794
     24 H2          1.6750    5.6332   -0.8752 H         1 <0>         0.0617
     25 H3          1.6923    5.6243    0.9047 H         1 <0>         0.0610
     26 H4          3.2213    5.7363    0.0004 H         1 <0>         0.1105
     27 H5         -0.0774    4.9263    0.0283 H         1 <0>         0.1423
     28 H6         -2.1858    3.6566    0.0409 H         1 <0>         0.1361
     29 H7          0.0021   -0.0041    0.0020 H         1 <0>         0.1348
     30 H8          2.7009    0.9351   -0.9010 H         1 <0>         0.3979
     31 H9         -3.2836    1.5582   -0.4873 H         1 <0>         0.1222
     32 H10        -2.3709    0.0301   -0.4996 H         1 <0>         0.1006
     33 H11        -5.0293    1.3677   -0.0639 H         1 <0>         0.1487
     34 H12        -6.1006   -2.3897    2.9284 H         1 <0>         0.1445
     35 H13        -3.1960   -2.5003    2.8605 H         1 <0>         0.1067
     36 H14        -4.0580   -1.7469    4.2210 H         1 <0>         0.1242
     37 H15        -1.6213   -1.0520    3.9866 H         1 <0>         0.1414
     38 H16        -2.7804    0.3011    3.9895 H         1 <0>         0.1346
     39 H17        -7.6141   -3.5432    2.0580 H         1 <0>         0.0612
     40 H18        -8.1581   -2.3948    3.3044 H         1 <0>         0.0618
     41 H19        -9.3313   -3.0853    2.1576 H         1 <0>         0.1122
     42 H20        -7.4692    0.0278   -1.1637 H         1 <0>         0.3981
     43 N1         -1.9514   -0.1631    2.1065 N.4       1 <0>        -0.5135
     44 H21        -1.0649    0.3452    2.2062 H         1 <0>         0.4375
     45 H22        -1.8042   -0.9974    1.5262 H         1 <0>         0.4310
@<TRIPOS>BOND
     1    1    2 1
     2    1   24 1
     3    1   25 1
     4    1   26 1
     5    2    3 1
     6    3    8 ar
     7    3    4 ar
     8    4    5 ar
     9    4   27 1
    10    5    6 ar
    11    5   28 1
    12    6    7 ar
    13    6   10 1
    14    7    8 ar
    15    7   29 1
    16    8    9 1
    17    9   30 1
    18   10   11 1
    19   10   31 1
    20   10   32 1
    21   11   12 1
    22   11   13 1
    23   11   43 1
    24   13   18 ar
    25   13   14 ar
    26   14   15 ar
    27   14   33 1
    28   15   16 ar
    29   15   23 1
    30   16   17 ar
    31   16   21 1
    32   17   18 ar
    33   17   34 1
    34   18   19 1
    35   19   20 1
    36   19   35 1
    37   19   36 1
    38   20   37 1
    39   20   38 1
    40   20   43 1
    41   21   22 1
    42   22   39 1
    43   22   40 1
    44   22   41 1
    45   23   42 1
    46   43   44 1
    47   43   45 1
@<TRIPOS>MOLECULE
ZINC00896220
   45    47     0     0     0
SMALL
USER_CHARGES
1-[(3-hydroxy-4-methoxy-phenyl)methyl]-6-methoxy-1,2,3,4-tetrahydroisoquinolin-7-ol
@<TRIPOS>ATOM
      1 C1          1.6300   -5.2215    1.9842 C.3       1 <0>         0.0210
      2 O1          2.6828   -4.4648    1.3833 O.3       1 <0>        -0.3005
      3 C2          2.5352   -3.1132    1.3586 C.ar      1 <0>         0.1202
      4 C3          1.4023   -2.5283    1.9012 C.ar      1 <0>        -0.1882
      5 C4          1.2567   -1.1537    1.8808 C.ar      1 <0>        -0.1048
      6 C5          2.2344   -0.3604    1.3096 C.ar      1 <0>        -0.1507
      7 C6          3.3671   -0.9375    0.7665 C.ar      1 <0>        -0.0925
      8 C7          3.5219   -2.3143    0.7888 C.ar      1 <0>         0.0900
      9 O2          4.6358   -2.8836    0.2553 O.3       1 <0>        -0.4838
     10 C8          2.0677    1.1371    1.2844 C.3       1 <0>        -0.0933
     11 C9          1.3499    1.5489   -0.0025 C.3       1 <0>         0.0968
     12 H1          1.8909    1.1485   -0.8599 H         1 <0>         0.1468
     13 C10         1.3169    3.0522   -0.0933 C.ar      1 <0>        -0.1519
     14 C11         2.4607    3.7581    0.2524 C.ar      1 <0>        -0.0838
     15 C12         2.4794    5.1393    0.1817 C.ar      1 <0>         0.0936
     16 C13         1.3430    5.8239   -0.2398 C.ar      1 <0>         0.1339
     17 C14         0.2049    5.1163   -0.5823 C.ar      1 <0>        -0.1884
     18 C15         0.1909    3.7311   -0.5077 C.ar      1 <0>        -0.0532
     19 C16        -1.0765    3.0060   -0.8823 C.3       1 <0>        -0.1074
     20 C17        -0.7775    1.5282   -1.1348 C.3       1 <0>         0.0009
     21 O3          1.3516    7.1818   -0.3140 O.3       1 <0>        -0.2970
     22 C18         0.1488    7.8150   -0.7549 C.3       1 <0>         0.0197
     23 O4          3.6029    5.8254    0.5227 O.3       1 <0>        -0.4798
     24 H2          1.5147   -4.9204    3.0254 H         1 <0>         0.0609
     25 H3          0.6989   -5.0383    1.4478 H         1 <0>         0.0596
     26 H4          1.8732   -6.2830    1.9377 H         1 <0>         0.1103
     27 H5          0.6350   -3.1461    2.3441 H         1 <0>         0.1414
     28 H6          0.3754   -0.6988    2.3083 H         1 <0>         0.1276
     29 H7          4.1312   -0.3153    0.3245 H         1 <0>         0.1431
     30 H8          5.3627   -2.9900    0.8841 H         1 <0>         0.3981
     31 H9          3.0479    1.6125    1.3218 H         1 <0>         0.1219
     32 H10         1.4783    1.4516    2.1457 H         1 <0>         0.1015
     33 H11         3.3417    3.2256    0.5792 H         1 <0>         0.1488
     34 H12        -0.6779    5.6452   -0.9098 H         1 <0>         0.1445
     35 H13        -1.7982    3.0955   -0.0703 H         1 <0>         0.1066
     36 H14        -1.4939    3.4503   -1.7860 H         1 <0>         0.1241
     37 H15        -0.1909    1.4241   -2.0476 H         1 <0>         0.1348
     38 H16        -1.7127    0.9767   -1.2322 H         1 <0>         0.1410
     39 H17        -0.0974    7.4684   -1.7585 H         1 <0>         0.0614
     40 H18        -0.6645    7.5641   -0.0740 H         1 <0>         0.0615
     41 H19         0.2910    8.8956   -0.7683 H         1 <0>         0.1121
     42 H20         4.2101    5.9772   -0.2144 H         1 <0>         0.3987
     43 N1         -0.0135    1.0014    0.0113 N.4       1 <0>        -0.5133
     44 H21        -0.4802    1.2720    0.8849 H         1 <0>         0.4310
     45 H22         0.0302   -0.0226   -0.0504 H         1 <0>         0.4366
@<TRIPOS>BOND
     1    1    2 1
     2    1   24 1
     3    1   25 1
     4    1   26 1
     5    2    3 1
     6    3    8 ar
     7    3    4 ar
     8    4    5 ar
     9    4   27 1
    10    5    6 ar
    11    5   28 1
    12    6    7 ar
    13    6   10 1
    14    7    8 ar
    15    7   29 1
    16    8    9 1
    17    9   30 1
    18   10   11 1
    19   10   31 1
    20   10   32 1
    21   11   12 1
    22   11   13 1
    23   11   43 1
    24   13   18 ar
    25   13   14 ar
    26   14   15 ar
    27   14   33 1
    28   15   16 ar
    29   15   23 1
    30   16   17 ar
    31   16   21 1
    32   17   18 ar
    33   17   34 1
    34   18   19 1
    35   19   20 1
    36   19   35 1
    37   19   36 1
    38   20   37 1
    39   20   38 1
    40   20   43 1
    41   21   22 1
    42   22   39 1
    43   22   40 1
    44   22   41 1
    45   23   42 1
    46   43   44 1
    47   43   45 1
@<TRIPOS>MOLECULE
ZINC03870330
   65    67     0     0     0
SMALL
USER_CHARGES
2-bromo-N-[1-[4-[2-hydroxy-3-(1H-indol-4-yloxy)propyl]amino-4-methyl-cyclohexyl]-1-methyl-ethyl]-acetamide
@<TRIPOS>ATOM
      1 C1         -2.1779    1.0578   -3.6694 C.3       1 <0>        -0.1826
      2 C2         -2.8734    1.5517   -2.3993 C.3       1 <0>         0.0599
      3 C3         -2.9148    3.0811   -2.4022 C.3       1 <0>        -0.1331
      4 C4         -3.6881    3.5680   -3.6293 C.3       1 <0>        -0.1195
      5 C5         -5.1156    3.0193   -3.5833 C.3       1 <0>        -0.0939
      6 C6         -5.0742    1.4898   -3.5803 C.3       1 <0>        -0.1160
      7 C7         -4.3009    1.0029   -2.3532 C.3       1 <0>        -0.1330
      8 C8         -5.8890    3.5061   -4.8103 C.3       1 <0>         0.1842
      9 C9         -5.1274    3.1194   -6.0797 C.3       1 <0>        -0.1729
     10 C10        -7.2749    2.8583   -4.8298 C.3       1 <0>        -0.1724
     11 N1         -6.0317    4.9630   -4.7512 N.am      1 <0>        -0.7246
     12 C11        -6.6829    5.6167   -5.7336 C.2       1 <0>         0.5148
     13 O1         -7.1508    4.9989   -6.6665 O.2       1 <0>        -0.4990
     14 C12        -6.8297    7.1153   -5.6728 C.3       1 <0>        -0.1238
     15 Br1        -7.8235    7.7409   -7.2496 Br        1 <0>        -0.0903
     16 C13        -0.7527    1.5927   -1.2315 C.3       1 <0>        -0.0454
     17 C14        -0.0127    1.0858    0.0080 C.3       1 <0>         0.0876
     18 H1          0.0021   -0.0041    0.0020 H         1 <0>         0.1347
     19 C15         1.4227    1.6154   -0.0028 C.3       1 <0>         0.0299
     20 O2          2.1475    1.0494    1.0909 O.3       1 <0>        -0.2968
     21 C16         3.4480    1.4190    1.2263 C.ar      1 <0>         0.1686
     22 C17         4.0178    2.3001    0.3274 C.ar      1 <0>        -0.2422
     23 C18         5.3439    2.6836    0.4674 C.ar      1 <0>        -0.0619
     24 C19         6.1158    2.1857    1.4940 C.ar      1 <0>        -0.1564
     25 C20         5.5661    1.2920    2.4085 C.ar      1 <0>         0.1320
     26 C21         4.2213    0.9052    2.2744 C.ar      1 <0>        -0.1320
     27 C22         3.9550   -0.0257    3.3736 C.2       1 <0>        -0.1884
     28 C23         5.0943   -0.1427    4.0733 C.2       1 <0>         0.0493
     29 N2          6.0687    0.6380    3.5110 N.pl3     1 <0>        -0.5916
     30 H2          6.9775    0.7184    3.8403 H         1 <0>         0.4219
     31 O3         -0.6816    1.5467    1.1837 O.3       1 <0>        -0.5430
     32 H3         -2.1484   -0.0318   -3.6673 H         1 <0>         0.0842
     33 H4         -2.7289    1.4047   -4.5436 H         1 <0>         0.1112
     34 H5         -1.1609    1.4488   -3.7022 H         1 <0>         0.0812
     35 H6         -3.4103    3.4329   -1.4973 H         1 <0>         0.0884
     36 H7         -1.8978    3.4720   -2.4350 H         1 <0>         0.0873
     37 H8         -3.1927    3.2162   -4.5342 H         1 <0>         0.0862
     38 H9         -3.7176    4.6576   -3.6314 H         1 <0>         0.0838
     39 H10        -5.6111    3.3711   -2.6784 H         1 <0>         0.0856
     40 H11        -4.5787    1.1380   -4.4852 H         1 <0>         0.0844
     41 H12        -6.0912    1.0989   -3.5475 H         1 <0>         0.0942
     42 H13        -4.2714   -0.0867   -2.3511 H         1 <0>         0.0916
     43 H14        -4.7963    1.3547   -1.4483 H         1 <0>         0.0893
     44 H15        -5.0212    2.0355   -6.1237 H         1 <0>         0.0660
     45 H16        -5.6783    3.4663   -6.9539 H         1 <0>         0.0847
     46 H17        -4.1400    3.5809   -6.0658 H         1 <0>         0.0581
     47 H18        -7.8175    3.1338   -3.9255 H         1 <0>         0.0573
     48 H19        -7.8259    3.2052   -5.7040 H         1 <0>         0.0844
     49 H20        -7.1687    1.7744   -4.8738 H         1 <0>         0.0684
     50 H21        -5.6575    5.4571   -4.0051 H         1 <0>         0.3988
     51 H22        -7.3723    7.3908   -4.7685 H         1 <0>         0.1271
     52 H23        -5.8423    7.5768   -5.6589 H         1 <0>         0.1264
     53 H24        -0.7675    2.6825   -1.2255 H         1 <0>         0.1391
     54 H25        -0.2425    1.2411   -2.1283 H         1 <0>         0.1469
     55 H26         1.9050    1.3387   -0.9404 H         1 <0>         0.0811
     56 H27         1.4101    2.7011    0.0927 H         1 <0>         0.0761
     57 H28         3.4269    2.6958   -0.4854 H         1 <0>         0.1236
     58 H29         5.7769    3.3764   -0.2389 H         1 <0>         0.1311
     59 H30         7.1481    2.4886    1.5890 H         1 <0>         0.1260
     60 H31         3.0193   -0.5234    3.5815 H         1 <0>         0.1484
     61 H32         5.2234   -0.7607    4.9495 H         1 <0>         0.1756
     62 H33        -0.7322    2.5097    1.2555 H         1 <0>         0.3888
     63 N3         -2.1350    1.0779   -1.2135 N.4       1 <0>        -0.5077
     64 H34        -2.1142    0.0514   -1.2153 H         1 <0>         0.4332
     65 H35        -2.6087    1.4091   -0.3648 H         1 <0>         0.4352
@<TRIPOS>BOND
     1    1    2 1
     2    1   32 1
     3    1   33 1
     4    1   34 1
     5    2    7 1
     6    2    3 1
     7    2   63 1
     8    3    4 1
     9    3   35 1
    10    3   36 1
    11    4    5 1
    12    4   37 1
    13    4   38 1
    14    5    6 1
    15    5    8 1
    16    5   39 1
    17    6    7 1
    18    6   40 1
    19    6   41 1
    20    7   42 1
    21    7   43 1
    22    8    9 1
    23    8   10 1
    24    8   11 1
    25    9   44 1
    26    9   45 1
    27    9   46 1
    28   10   47 1
    29   10   48 1
    30   10   49 1
    31   11   12 am
    32   11   50 1
    33   12   13 2
    34   12   14 1
    35   14   15 1
    36   14   51 1
    37   14   52 1
    38   16   17 1
    39   16   53 1
    40   16   54 1
    41   16   63 1
    42   17   18 1
    43   17   19 1
    44   17   31 1
    45   19   20 1
    46   19   55 1
    47   19   56 1
    48   20   21 1
    49   21   26 ar
    50   21   22 ar
    51   22   23 ar
    52   22   57 1
    53   23   24 ar
    54   23   58 1
    55   24   25 ar
    56   24   59 1
    57   25   29 1
    58   25   26 ar
    59   26   27 1
    60   27   28 2
    61   27   60 1
    62   28   29 1
    63   28   61 1
    64   29   30 1
    65   31   62 1
    66   63   64 1
    67   63   65 1
@<TRIPOS>MOLECULE
ZINC03870331
   65    67     0     0     0
SMALL
USER_CHARGES

@<TRIPOS>ATOM
      1 C1         -0.0187    1.5258    0.0104 C.3       1 <0>        -0.1829
      2 C2          0.0021   -0.0041    0.0020 C.3       1 <0>         0.0559
      3 C3          0.7182   -0.4975   -1.2568 C.3       1 <0>        -0.1344
      4 C4          2.1536    0.0321   -1.2676 C.3       1 <0>        -0.1163
      5 C5          2.8936   -0.4747   -0.0281 C.3       1 <0>        -0.0941
      6 C6          2.1775    0.0187    1.2307 C.3       1 <0>        -0.1190
      7 C7          0.7421   -0.5109    1.2415 C.3       1 <0>        -0.1331
      8 C8          4.3290    0.0548   -0.0390 C.3       1 <0>         0.1841
      9 C9          5.0059   -0.3335   -1.3550 C.3       1 <0>        -0.1722
     10 C10         4.3113    1.5789    0.0951 C.3       1 <0>        -0.1730
     11 N1          5.0721   -0.5255    1.0823 N.am      1 <0>        -0.7246
     12 C11         6.3660   -0.2004    1.2734 C.2       1 <0>         0.5150
     13 O1          6.9152    0.5725    0.5172 O.2       1 <0>        -0.4993
     14 C12         7.1304   -0.7973    2.4269 C.3       1 <0>        -0.1238
     15 Br1         8.9749   -0.1169    2.4129 Br        1 <0>        -0.0905
     16 N2         -1.3761   -0.5125    0.0124 N.4       1 <0>        -0.4980
     17 C13        -2.0866   -0.0259   -1.1777 C.3       1 <0>        -0.0510
     18 C14        -3.5220   -0.5555   -1.1668 C.3       1 <0>         0.0884
     19 H1         -3.5077   -1.6422   -1.0832 H         1 <0>         0.1335
     20 C15        -4.2239   -0.1531   -2.4654 C.3       1 <0>         0.0297
     21 O2         -5.5239   -0.7449   -2.5073 O.3       1 <0>        -0.2968
     22 C16        -6.2848   -0.4854   -3.6027 C.ar      1 <0>         0.1685
     23 C17        -5.7937    0.3140   -4.6171 C.ar      1 <0>        -0.2421
     24 C18        -6.5689    0.5799   -5.7367 C.ar      1 <0>        -0.0617
     25 C19        -7.8366    0.0541   -5.8560 C.ar      1 <0>        -0.1565
     26 C20        -8.3532   -0.7539   -4.8474 C.ar      1 <0>         0.1321
     27 C21        -7.5695   -1.0308   -3.7138 C.ar      1 <0>        -0.1320
     28 C22        -8.3835   -1.8990   -2.8596 C.2       1 <0>        -0.1884
     29 C23        -9.5499   -2.0922   -3.4947 C.2       1 <0>         0.0492
     30 N3         -9.5532   -1.4083   -4.6812 N.pl3     1 <0>        -0.5918
     31 H2        -10.2875   -1.3954   -5.3148 H         1 <0>         0.4218
     32 O3         -4.2257   -0.0013   -0.0534 O.3       1 <0>        -0.5424
     33 H3          1.0039    1.9031    0.0027 H         1 <0>         0.1117
     34 H4         -0.5459    1.8868   -0.8726 H         1 <0>         0.0819
     35 H5         -0.5289    1.8773    0.9072 H         1 <0>         0.0840
     36 H6          0.7330   -1.5874   -1.2628 H         1 <0>         0.0898
     37 H7          0.1910   -0.1364   -2.1398 H         1 <0>         0.0898
     38 H8          2.6638   -0.3194   -2.1644 H         1 <0>         0.0939
     39 H9          2.1388    1.1220   -1.2617 H         1 <0>         0.0844
     40 H10         2.9084   -1.5646   -0.0341 H         1 <0>         0.0857
     41 H11         2.7046   -0.3424    2.1137 H         1 <0>         0.0847
     42 H12         2.1627    1.1086    1.2367 H         1 <0>         0.0864
     43 H13         0.2319   -0.1594    2.1383 H         1 <0>         0.0907
     44 H14         0.7568   -1.6008    1.2356 H         1 <0>         0.0890
     45 H15         4.4530    0.0982   -2.1892 H         1 <0>         0.0680
     46 H16         6.0285    0.0437   -1.3627 H         1 <0>         0.0845
     47 H17         5.0185   -1.4193   -1.4505 H         1 <0>         0.0572
     48 H18         3.8291    1.8555    1.0326 H         1 <0>         0.0586
     49 H19         5.3339    1.9561    0.0874 H         1 <0>         0.0847
     50 H20         3.7584    2.0106   -0.7392 H         1 <0>         0.0656
     51 H21         4.6328   -1.1436    1.6872 H         1 <0>         0.3992
     52 H22         6.6482   -0.5207    3.3644 H         1 <0>         0.1267
     53 H23         7.1430   -1.8831    2.3313 H         1 <0>         0.1272
     54 H24        -1.3624   -1.5214    0.0069 H         1 <0>         0.4279
     55 H25        -2.1014    1.0640   -1.1717 H         1 <0>         0.1424
     56 H26        -1.5764   -0.3774   -2.0745 H         1 <0>         0.1475
     57 H27        -4.3172    0.9321   -2.5067 H         1 <0>         0.0768
     58 H28        -3.6390   -0.5001   -3.3172 H         1 <0>         0.0810
     59 H29        -4.8020    0.7341   -4.5379 H         1 <0>         0.1238
     60 H30        -6.1742    1.2061   -6.5231 H         1 <0>         0.1312
     61 H31        -8.4300    0.2694   -6.7324 H         1 <0>         0.1260
     62 H32        -8.0987   -2.3067   -1.9009 H         1 <0>         0.1483
     63 H33       -10.3678   -2.6905   -3.1213 H         1 <0>         0.1756
     64 H34        -4.2779    0.9642   -0.0622 H         1 <0>         0.3897
     65 H35        -1.8484   -0.1871    0.8426 H         1 <0>         0.4320
@<TRIPOS>BOND
     1    1    2 1
     2    1   33 1
     3    1   34 1
     4    1   35 1
     5    2    7 1
     6    2    3 1
     7    2   16 1
     8    3    4 1
     9    3   36 1
    10    3   37 1
    11    4    5 1
    12    4   38 1
    13    4   39 1
    14    5    6 1
    15    5    8 1
    16    5   40 1
    17    6    7 1
    18    6   41 1
    19    6   42 1
    20    7   43 1
    21    7   44 1
    22    8    9 1
    23    8   10 1
    24    8   11 1
    25    9   45 1
    26    9   46 1
    27    9   47 1
    28   10   48 1
    29   10   49 1
    30   10   50 1
    31   11   12 am
    32   11   51 1
    33   12   13 2
    34   12   14 1
    35   14   15 1
    36   14   52 1
    37   14   53 1
    38   16   17 1
    39   16   54 1
    40   16   65 1
    41   17   18 1
    42   17   55 1
    43   17   56 1
    44   18   19 1
    45   18   20 1
    46   18   32 1
    47   20   21 1
    48   20   57 1
    49   20   58 1
    50   21   22 1
    51   22   27 ar
    52   22   23 ar
    53   23   24 ar
    54   23   59 1
    55   24   25 ar
    56   24   60 1
    57   25   26 ar
    58   25   61 1
    59   26   30 1
    60   26   27 ar
    61   27   28 1
    62   28   29 2
    63   28   62 1
    64   29   30 1
    65   29   63 1
    66   30   31 1
    67   32   64 1
@<TRIPOS>MOLECULE
ZINC00057530
   51    53     0     0     0
SMALL
USER_CHARGES

@<TRIPOS>ATOM
      1 C1         -0.0173    1.4248    0.0099 C.3       1 <0>         0.0222
      2 O1          0.0021   -0.0041    0.0020 O.3       1 <0>        -0.2995
      3 C2         -1.2011   -0.6379    0.0101 C.ar      1 <0>         0.1179
      4 C3         -2.3743    0.0994    0.0195 C.ar      1 <0>        -0.1669
      5 C4         -3.5965   -0.5465    0.0272 C.ar      1 <0>        -0.1337
      6 C5         -3.6519   -1.9279    0.0261 C.ar      1 <0>        -0.1264
      7 C6         -2.4852   -2.6694    0.0172 C.ar      1 <0>        -0.1629
      8 C7         -1.2569   -2.0283    0.0032 C.ar      1 <0>         0.1148
      9 O2         -0.1083   -2.7563   -0.0116 O.3       1 <0>        -0.2988
     10 C8         -0.2420   -4.1790   -0.0180 C.3       1 <0>         0.0230
     11 C9         -4.9869   -2.6268    0.0350 C.3       1 <0>        -0.0932
     12 C10        -5.4493   -2.8618   -1.4044 C.3       1 <0>         0.0933
     13 H1         -4.6753   -3.4054   -1.9462 H         1 <0>         0.1461
     14 C11        -6.7144   -3.6791   -1.3925 C.ar      1 <0>        -0.1270
     15 C12        -6.8113   -4.7344   -0.4968 C.ar      1 <0>        -0.1550
     16 C13        -7.9537   -5.5131   -0.4540 C.ar      1 <0>         0.1184
     17 C14        -9.0115   -5.2352   -1.3152 C.ar      1 <0>         0.1331
     18 C15        -8.9110   -4.1810   -2.2056 C.ar      1 <0>        -0.1671
     19 C16        -7.7636   -3.4032   -2.2436 C.ar      1 <0>        -0.0820
     20 C17        -7.6999   -2.2599   -3.2244 C.3       1 <0>        -0.1029
     21 C18        -6.2510   -1.7999   -3.3901 C.3       1 <0>        -0.0028
     22 N1         -5.6774   -1.5688   -2.0557 N.4       1 <0>        -0.5039
     23 O3        -10.1379   -5.9963   -1.2817 O.3       1 <0>        -0.2959
     24 C19       -11.1815   -5.6512   -2.1949 C.3       1 <0>         0.0209
     25 O4         -8.0433   -6.5459    0.4262 O.3       1 <0>        -0.2957
     26 C20        -6.9189   -6.7710    1.2788 C.3       1 <0>         0.0210
     27 H2          1.0053    1.8021    0.0021 H         1 <0>         0.1093
     28 H3         -0.5445    1.7859   -0.8732 H         1 <0>         0.0584
     29 H4         -0.5275    1.7763    0.9067 H         1 <0>         0.0601
     30 H5         -2.3338    1.1787    0.0211 H         1 <0>         0.1441
     31 H6         -4.5102    0.0294    0.0345 H         1 <0>         0.1266
     32 H7         -2.5312   -3.7485    0.0167 H         1 <0>         0.1412
     33 H8          0.7471   -4.6369   -0.0298 H         1 <0>         0.1091
     34 H9         -0.7791   -4.4975    0.8754 H         1 <0>         0.0588
     35 H10        -0.7960   -4.4879   -0.9044 H         1 <0>         0.0565
     36 H11        -4.8923   -3.5844    0.5471 H         1 <0>         0.1179
     37 H12        -5.7178   -2.0075    0.5549 H         1 <0>         0.1023
     38 H13        -5.9898   -4.9493    0.1705 H         1 <0>         0.1465
     39 H14        -9.7299   -3.9635   -2.8752 H         1 <0>         0.1474
     40 H15        -8.0886   -2.5875   -4.1886 H         1 <0>         0.1230
     41 H16        -8.3032   -1.4310   -2.8543 H         1 <0>         0.1046
     42 H17        -5.6789   -2.5711   -3.9059 H         1 <0>         0.1348
     43 H18        -6.2244   -0.8745   -3.9654 H         1 <0>         0.1412
     44 H19        -6.3186   -1.0204   -1.5024 H         1 <0>         0.4277
     45 H20       -12.0198   -6.3355   -2.0641 H         1 <0>         0.1112
     46 H21       -11.5116   -4.6308   -2.0006 H         1 <0>         0.0605
     47 H22       -10.8090   -5.7242   -3.2167 H         1 <0>         0.0607
     48 H23        -6.0382   -6.9796    0.6713 H         1 <0>         0.0588
     49 H24        -6.7397   -5.8836    1.8858 H         1 <0>         0.0588
     50 H25        -7.1210   -7.6217    1.9297 H         1 <0>         0.1110
     51 H26        -4.8011   -1.0769   -2.1461 H         1 <0>         0.4326
@<TRIPOS>BOND
     1    1    2 1
     2    1   27 1
     3    1   28 1
     4    1   29 1
     5    2    3 1
     6    3    8 ar
     7    3    4 ar
     8    4    5 ar
     9    4   30 1
    10    5    6 ar
    11    5   31 1
    12    6    7 ar
    13    6   11 1
    14    7    8 ar
    15    7   32 1
    16    8    9 1
    17    9   10 1
    18   10   33 1
    19   10   34 1
    20   10   35 1
    21   11   12 1
    22   11   36 1
    23   11   37 1
    24   12   13 1
    25   12   22 1
    26   12   14 1
    27   14   19 ar
    28   14   15 ar
    29   15   16 ar
    30   15   38 1
    31   16   17 ar
    32   16   25 1
    33   17   18 ar
    34   17   23 1
    35   18   19 ar
    36   18   39 1
    37   19   20 1
    38   20   21 1
    39   20   40 1
    40   20   41 1
    41   21   22 1
    42   21   42 1
    43   21   43 1
    44   22   44 1
    45   22   51 1
    46   23   24 1
    47   24   45 1
    48   24   46 1
    49   24   47 1
    50   25   26 1
    51   26   48 1
    52   26   49 1
    53   26   50 1
@<TRIPOS>MOLECULE
ZINC00057530
   50    52     0     0     0
SMALL
USER_CHARGES

@<TRIPOS>ATOM
      1 C1         -0.0173    1.4248    0.0099 C.3       1 <0>         0.0268
      2 O1          0.0021   -0.0041    0.0020 O.3       1 <0>        -0.3088
      3 C2          0.6262   -0.6188    1.0422 C.ar      1 <0>         0.0952
      4 C3          1.2021    0.1367    2.0510 C.ar      1 <0>        -0.1710
      5 C4          1.8358   -0.4897    3.1079 C.ar      1 <0>        -0.0902
      6 C5          1.8971   -1.8699    3.1612 C.ar      1 <0>        -0.0679
      7 C6          1.3251   -2.6295    2.1578 C.ar      1 <0>        -0.1704
      8 C7          0.6830   -2.0080    1.0988 C.ar      1 <0>         0.0986
      9 O2          0.1145   -2.7540    0.1140 O.3       1 <0>        -0.3078
     10 C8          0.2115   -4.1743    0.2380 C.3       1 <0>         0.0270
     11 C9          2.5896   -2.5476    4.3154 C.3       1 <0>        -0.0706
     12 C10         1.5803   -2.8041    5.4363 C.3       1 <0>         0.1377
     13 H1          0.7379   -3.3704    5.0391 H         1 <0>         0.0939
     14 C11         2.2433   -3.6002    6.5299 C.ar      1 <0>        -0.1108
     15 C12         3.0766   -4.6493    6.1678 C.ar      1 <0>        -0.1669
     16 C13         3.7040   -5.4115    7.1365 C.ar      1 <0>         0.1002
     17 C14         3.4969   -5.1232    8.4825 C.ar      1 <0>         0.1038
     18 C15         2.6671   -4.0753    8.8386 C.ar      1 <0>        -0.1726
     19 C16         2.0419   -3.3125    7.8630 C.ar      1 <0>        -0.0731
     20 C17         1.1561   -2.1743    8.3013 C.3       1 <0>        -0.1165
     21 C18         0.2576   -1.7363    7.1446 C.3       1 <0>         0.0562
     22 N1          1.0983   -1.5207    5.9564 N.3       1 <0>        -0.6659
     23 O3          4.1069   -5.8684    9.4427 O.3       1 <0>        -0.3060
     24 C19         3.8469   -5.5135   10.8023 C.3       1 <0>         0.0260
     25 O4          4.5192   -6.4384    6.7756 O.3       1 <0>        -0.3059
     26 C20         4.6835   -6.6752    5.3760 C.3       1 <0>         0.0253
     27 H2          1.0053    1.8021    0.0021 H         1 <0>         0.0541
     28 H3         -0.5445    1.7859   -0.8732 H         1 <0>         0.0996
     29 H4         -0.5275    1.7763    0.9067 H         1 <0>         0.0547
     30 H5          1.1562    1.2150    2.0113 H         1 <0>         0.1332
     31 H6          2.2842    0.1003    3.8935 H         1 <0>         0.1245
     32 H7          1.3747   -3.7075    2.2017 H         1 <0>         0.1308
     33 H8         -0.2815   -4.6476   -0.6111 H         1 <0>         0.0998
     34 H9          1.2614   -4.4664    0.2576 H         1 <0>         0.0534
     35 H10        -0.2714   -4.4922    1.1620 H         1 <0>         0.0538
     36 H11         3.0097   -3.4961    3.9808 H         1 <0>         0.0779
     37 H12         3.3894   -1.9067    4.6863 H         1 <0>         0.0766
     38 H13         3.2360   -4.8721    5.1232 H         1 <0>         0.1376
     39 H14         2.5047   -3.8499    9.8823 H         1 <0>         0.1346
     40 H15         0.5369   -2.4990    9.1376 H         1 <0>         0.0798
     41 H16         1.7755   -1.3345    8.6164 H         1 <0>         0.0778
     42 H17        -0.4775   -2.5139    6.9372 H         1 <0>         0.0761
     43 H18        -0.2508   -0.8084    7.4069 H         1 <0>         0.0845
     44 H19         4.3935   -6.1853   11.4641 H         1 <0>         0.1020
     45 H20         4.1704   -4.4875   10.9782 H         1 <0>         0.0547
     46 H21         2.7785   -5.5968   11.0016 H         1 <0>         0.0548
     47 H22         5.3565   -7.5196    5.2269 H         1 <0>         0.1019
     48 H23         3.7149   -6.8993    4.9292 H         1 <0>         0.0547
     49 H24         5.1045   -5.7874    4.9043 H         1 <0>         0.0551
     50 H25         1.8684   -0.9030    6.1651 H         1 <0>         0.3416
@<TRIPOS>BOND
     1    1    2 1
     2    1   27 1
     3    1   28 1
     4    1   29 1
     5    2    3 1
     6    3    8 ar
     7    3    4 ar
     8    4    5 ar
     9    4   30 1
    10    5    6 ar
    11    5   31 1
    12    6    7 ar
    13    6   11 1
    14    7    8 ar
    15    7   32 1
    16    8    9 1
    17    9   10 1
    18   10   33 1
    19   10   34 1
    20   10   35 1
    21   11   12 1
    22   11   36 1
    23   11   37 1
    24   12   13 1
    25   12   22 1
    26   12   14 1
    27   14   19 ar
    28   14   15 ar
    29   15   16 ar
    30   15   38 1
    31   16   17 ar
    32   16   25 1
    33   17   18 ar
    34   17   23 1
    35   18   19 ar
    36   18   39 1
    37   19   20 1
    38   20   21 1
    39   20   40 1
    40   20   41 1
    41   21   22 1
    42   21   42 1
    43   21   43 1
    44   22   50 1
    45   23   24 1
    46   24   44 1
    47   24   45 1
    48   24   46 1
    49   25   26 1
    50   26   47 1
    51   26   48 1
    52   26   49 1
@<TRIPOS>MOLECULE
ZINC00057531
   51    53     0     0     0
SMALL
USER_CHARGES

@<TRIPOS>ATOM
      1 C1         -0.0173    1.4248    0.0099 C.3       1 <0>         0.0216
      2 O1          0.0021   -0.0041    0.0020 O.3       1 <0>        -0.3001
      3 C2         -1.2011   -0.6379    0.0101 C.ar      1 <0>         0.1195
      4 C3         -2.3743    0.0994    0.0195 C.ar      1 <0>        -0.1659
      5 C4         -3.5965   -0.5465    0.0272 C.ar      1 <0>        -0.0954
      6 C5         -3.6519   -1.9279    0.0261 C.ar      1 <0>        -0.1297
      7 C6         -2.4852   -2.6694    0.0172 C.ar      1 <0>        -0.1957
      8 C7         -1.2569   -2.0283    0.0032 C.ar      1 <0>         0.1123
      9 O2         -0.1083   -2.7563   -0.0116 O.3       1 <0>        -0.2977
     10 C8         -0.2420   -4.1790   -0.0180 C.3       1 <0>         0.0239
     11 C9         -4.9869   -2.6268    0.0350 C.3       1 <0>        -0.0926
     12 C10        -5.4493   -2.8618   -1.4044 C.3       1 <0>         0.0931
     13 H1         -5.4572   -1.9118   -1.9388 H         1 <0>         0.1478
     14 C11        -6.8417   -3.4358   -1.3913 C.ar      1 <0>        -0.1270
     15 C12        -7.7606   -2.9211   -0.4879 C.ar      1 <0>        -0.1547
     16 C13        -9.0512   -3.4165   -0.4437 C.ar      1 <0>         0.1186
     17 C14        -9.4290   -4.4375   -1.3112 C.ar      1 <0>         0.1330
     18 C15        -8.5091   -4.9487   -2.2094 C.ar      1 <0>        -0.1671
     19 C16        -7.2163   -4.4486   -2.2488 C.ar      1 <0>        -0.0826
     20 C17        -6.2444   -5.0401   -3.2381 C.3       1 <0>        -0.1027
     21 C18        -5.0415   -4.1103   -3.4015 C.3       1 <0>        -0.0031
     22 N1         -4.5194   -3.7809   -2.0666 N.4       1 <0>        -0.5048
     23 O3        -10.6963   -4.9298   -1.2764 O.3       1 <0>        -0.2959
     24 C19       -11.0110   -5.9769   -2.1965 C.3       1 <0>         0.0209
     25 O4         -9.9477   -2.9079    0.4435 O.3       1 <0>        -0.2958
     26 C20        -9.4888   -1.8616    1.3018 C.3       1 <0>         0.0208
     27 H2          1.0053    1.8021    0.0021 H         1 <0>         0.1095
     28 H3         -0.5445    1.7859   -0.8732 H         1 <0>         0.0597
     29 H4         -0.5275    1.7763    0.9067 H         1 <0>         0.0608
     30 H5         -2.3338    1.1787    0.0211 H         1 <0>         0.1449
     31 H6         -4.5102    0.0294    0.0345 H         1 <0>         0.1342
     32 H7         -2.5312   -3.7485    0.0167 H         1 <0>         0.1333
     33 H8          0.7471   -4.6369   -0.0298 H         1 <0>         0.1097
     34 H9         -0.7791   -4.4975    0.8754 H         1 <0>         0.0591
     35 H10        -0.7960   -4.4879   -0.9044 H         1 <0>         0.0497
     36 H11        -4.8923   -3.5844    0.5471 H         1 <0>         0.0998
     37 H12        -5.7178   -2.0075    0.5549 H         1 <0>         0.1202
     38 H13        -7.4664   -2.1287    0.1844 H         1 <0>         0.1472
     39 H14        -8.7995   -5.7409   -2.8835 H         1 <0>         0.1473
     40 H15        -5.9055   -6.0110   -2.8769 H         1 <0>         0.1041
     41 H16        -6.7391   -5.1654   -4.2013 H         1 <0>         0.1233
     42 H17        -4.2682   -4.6112   -3.9838 H         1 <0>         0.1409
     43 H18        -5.3514   -3.1967   -3.9089 H         1 <0>         0.1357
     44 H19        -3.6162   -3.3404   -2.1572 H         1 <0>         0.4318
     45 H20       -12.0504   -6.2769   -2.0638 H         1 <0>         0.1112
     46 H21       -10.8628   -5.6213   -3.2162 H         1 <0>         0.0607
     47 H22       -10.3597   -6.8311   -2.0114 H         1 <0>         0.0603
     48 H23        -8.6552   -2.2243    1.9031 H         1 <0>         0.0589
     49 H24        -9.1607   -1.0148    0.6989 H         1 <0>         0.0593
     50 H25       -10.3006   -1.5476    1.9579 H         1 <0>         0.1110
     51 H26        -4.4319   -4.6246   -1.5201 H         1 <0>         0.4265
@<TRIPOS>BOND
     1    1    2 1
     2    1   27 1
     3    1   28 1
     4    1   29 1
     5    2    3 1
     6    3    8 ar
     7    3    4 ar
     8    4    5 ar
     9    4   30 1
    10    5    6 ar
    11    5   31 1
    12    6    7 ar
    13    6   11 1
    14    7    8 ar
    15    7   32 1
    16    8    9 1
    17    9   10 1
    18   10   33 1
    19   10   34 1
    20   10   35 1
    21   11   12 1
    22   11   36 1
    23   11   37 1
    24   12   13 1
    25   12   22 1
    26   12   14 1
    27   14   19 ar
    28   14   15 ar
    29   15   16 ar
    30   15   38 1
    31   16   17 ar
    32   16   25 1
    33   17   18 ar
    34   17   23 1
    35   18   19 ar
    36   18   39 1
    37   19   20 1
    38   20   21 1
    39   20   40 1
    40   20   41 1
    41   21   22 1
    42   21   42 1
    43   21   43 1
    44   22   44 1
    45   22   51 1
    46   23   24 1
    47   24   45 1
    48   24   46 1
    49   24   47 1
    50   25   26 1
    51   26   48 1
    52   26   49 1
    53   26   50 1
@<TRIPOS>MOLECULE
ZINC00057531
   50    52     0     0     0
SMALL
USER_CHARGES

@<TRIPOS>ATOM
      1 C1         -0.0173    1.4248    0.0099 C.3       1 <0>         0.0261
      2 O1          0.0021   -0.0041    0.0020 O.3       1 <0>        -0.3070
      3 C2          0.6262   -0.6188    1.0422 C.ar      1 <0>         0.0961
      4 C3          1.2021    0.1367    2.0510 C.ar      1 <0>        -0.1708
      5 C4          1.8358   -0.4897    3.1079 C.ar      1 <0>        -0.1148
      6 C5          1.8971   -1.8699    3.1612 C.ar      1 <0>        -0.0836
      7 C6          1.3251   -2.6295    2.1578 C.ar      1 <0>        -0.1636
      8 C7          0.6830   -2.0080    1.0988 C.ar      1 <0>         0.1013
      9 O2          0.1145   -2.7540    0.1140 O.3       1 <0>        -0.3067
     10 C8          0.2115   -4.1743    0.2380 C.3       1 <0>         0.0257
     11 C9          2.5896   -2.5476    4.3154 C.3       1 <0>        -0.0683
     12 C10         1.5803   -2.8041    5.4363 C.3       1 <0>         0.1387
     13 H1          1.0975   -1.8651    5.7073 H         1 <0>         0.0526
     14 C11         2.3013   -3.3573    6.6377 C.ar      1 <0>        -0.0718
     15 C12         3.5197   -2.7945    6.9912 C.ar      1 <0>        -0.1694
     16 C13         4.2165   -3.2659    8.0890 C.ar      1 <0>         0.0990
     17 C14         3.6908   -4.3113    8.8429 C.ar      1 <0>         0.1035
     18 C15         2.4771   -4.8706    8.4856 C.ar      1 <0>        -0.1752
     19 C16         1.7832   -4.3954    7.3823 C.ar      1 <0>        -0.0614
     20 C17         0.4703   -5.0452    7.0269 C.3       1 <0>        -0.0736
     21 C18        -0.3177   -4.1446    6.0756 C.3       1 <0>         0.0541
     22 N1          0.5653   -3.7520    4.9660 N.3       1 <0>        -0.6782
     23 O3          4.3669   -4.7802    9.9258 O.3       1 <0>        -0.3064
     24 C19         3.7654   -5.8547   10.6508 C.3       1 <0>         0.0260
     25 O4          5.4102   -2.7108    8.4301 O.3       1 <0>        -0.3060
     26 C20         5.8869   -1.6423    7.6095 C.3       1 <0>         0.0255
     27 H2          1.0053    1.8021    0.0021 H         1 <0>         0.0548
     28 H3         -0.5445    1.7859   -0.8732 H         1 <0>         0.1010
     29 H4         -0.5275    1.7763    0.9067 H         1 <0>         0.0544
     30 H5          1.1562    1.2150    2.0113 H         1 <0>         0.1346
     31 H6          2.2842    0.1003    3.8935 H         1 <0>         0.1250
     32 H7          1.3747   -3.7075    2.2017 H         1 <0>         0.1416
     33 H8         -0.2815   -4.6476   -0.6111 H         1 <0>         0.1003
     34 H9          1.2614   -4.4664    0.2576 H         1 <0>         0.0553
     35 H10        -0.2714   -4.4922    1.1620 H         1 <0>         0.0570
     36 H11         3.0097   -3.4961    3.9808 H         1 <0>         0.0854
     37 H12         3.3894   -1.9067    4.6863 H         1 <0>         0.0789
     38 H13         3.9260   -1.9831    6.4055 H         1 <0>         0.1371
     39 H14         2.0671   -5.6815    9.0692 H         1 <0>         0.1350
     40 H15         0.6601   -6.0037    6.5438 H         1 <0>         0.0842
     41 H16        -0.1102   -5.2082    7.9350 H         1 <0>         0.0763
     42 H17        -1.1777   -4.6884    5.6846 H         1 <0>         0.0811
     43 H18        -0.6546   -3.2552    6.6081 H         1 <0>         0.0372
     44 H19         4.4063   -6.1319   11.4878 H         1 <0>         0.1012
     45 H20         2.7923   -5.5393   11.0271 H         1 <0>         0.0546
     46 H21         3.6389   -6.7126    9.9904 H         1 <0>         0.0550
     47 H22         6.8458   -1.2914    7.9908 H         1 <0>         0.1013
     48 H23         6.0107   -1.9973    6.5864 H         1 <0>         0.0550
     49 H24         5.1678   -0.8233    7.6255 H         1 <0>         0.0542
     50 H25         0.0337   -3.3629    4.2017 H         1 <0>         0.3476
@<TRIPOS>BOND
     1    1    2 1
     2    1   27 1
     3    1   28 1
     4    1   29 1
     5    2    3 1
     6    3    8 ar
     7    3    4 ar
     8    4    5 ar
     9    4   30 1
    10    5    6 ar
    11    5   31 1
    12    6    7 ar
    13    6   11 1
    14    7    8 ar
    15    7   32 1
    16    8    9 1
    17    9   10 1
    18   10   33 1
    19   10   34 1
    20   10   35 1
    21   11   12 1
    22   11   36 1
    23   11   37 1
    24   12   13 1
    25   12   22 1
    26   12   14 1
    27   14   19 ar
    28   14   15 ar
    29   15   16 ar
    30   15   38 1
    31   16   17 ar
    32   16   25 1
    33   17   18 ar
    34   17   23 1
    35   18   19 ar
    36   18   39 1
    37   19   20 1
    38   20   21 1
    39   20   40 1
    40   20   41 1
    41   21   22 1
    42   21   42 1
    43   21   43 1
    44   22   50 1
    45   23   24 1
    46   24   44 1
    47   24   45 1
    48   24   46 1
    49   25   26 1
    50   26   47 1
    51   26   48 1
    52   26   49 1
@<TRIPOS>MOLECULE
ZINC01849391
   60    62     0     0     0
SMALL
USER_CHARGES

@<TRIPOS>ATOM
      1 C1         -0.1162    2.6994   -0.3403 C.3       1 <0>        -0.1797
      2 C2          0.0254    1.3475    0.3621 C.3       1 <0>         0.0548
      3 C3          0.7602    1.5376    1.6906 C.3       1 <0>        -0.1793
      4 C4         -1.3633    0.7623    0.6266 C.3       1 <0>        -0.1779
      5 N1          0.7892    0.4291   -0.4929 N.4       1 <0>        -0.4977
      6 C5          2.1225    0.9910   -0.7468 C.3       1 <0>        -0.0517
      7 C6          2.9179    0.0344   -1.6373 C.3       1 <0>         0.0872
      8 H1          2.3944   -0.1010   -2.5838 H         1 <0>         0.1359
      9 C7          4.3066    0.6197   -1.9018 C.3       1 <0>         0.0275
     10 O1          5.0072   -0.2151   -2.8262 O.3       1 <0>        -0.2973
     11 C8          6.2643    0.1656   -3.1700 C.ar      1 <0>         0.1436
     12 C9          6.8134    1.3184   -2.6222 C.ar      1 <0>        -0.2109
     13 C10         8.0885    1.7080   -2.9684 C.ar      1 <0>        -0.0531
     14 C11         8.8297    0.9423   -3.8717 C.ar      1 <0>        -0.0907
     15 C12         8.2740   -0.2161   -4.4202 C.ar      1 <0>        -0.0171
     16 C13         7.0003   -0.6019   -4.0644 C.ar      1 <0>        -0.1456
     17 C14        10.1967    1.3565   -4.2460 C.2       1 <0>         0.4232
     18 N2         11.1270    0.4396   -4.3242 N.2       1 <0>        -0.4963
     19 C15        12.3964    0.7455   -4.6607 C.ar      1 <0>         0.1142
     20 C16        13.3866   -0.2383   -4.7433 C.ar      1 <0>        -0.0621
     21 C17        14.6621    0.1071   -5.0874 C.ar      1 <0>        -0.1571
     22 C18        14.9962    1.4322   -5.3596 C.ar      1 <0>         0.1197
     23 C19        14.0378    2.4261   -5.2853 C.ar      1 <0>        -0.0802
     24 C20        12.7312    2.0910   -4.9360 C.ar      1 <0>        -0.1545
     25 C21        11.6700    3.1043   -4.8421 C.2       1 <0>         0.5504
     26 O2         11.8966    4.2789   -5.0674 O.2       1 <0>        -0.5014
     27 N3         10.4306    2.6812   -4.5005 N.am      1 <0>        -0.5417
     28 C22         9.3341    3.6472   -4.3970 C.3       1 <0>         0.0570
     29 H2          9.2460    3.9876   -3.3653 H         1 <0>         0.0768
     30 H3          9.5387    4.4998   -5.0447 H         1 <0>         0.0970
     31 H4          8.4019    3.1731   -4.7041 H         1 <0>         0.0898
     32 O3         16.2733    1.7500   -5.7000 O.3       1 <0>        -0.3102
     33 C23        17.2153    0.6771   -5.7583 C.3       1 <0>         0.0232
     34 O4          3.0502   -1.2282   -0.9813 O.3       1 <0>        -0.5428
     35 H5          0.8731    3.1163   -0.5287 H         1 <0>         0.0811
     36 H6         -0.6397    2.5640   -1.2867 H         1 <0>         0.0839
     37 H7         -0.6829    3.3809    0.2942 H         1 <0>         0.1075
     38 H8          0.1935    2.2191    2.3250 H         1 <0>         0.1075
     39 H9          0.8611    0.5745    2.1910 H         1 <0>         0.0836
     40 H10         1.7495    1.9545    1.5022 H         1 <0>         0.0806
     41 H11        -1.8868    0.6269   -0.3198 H         1 <0>         0.0835
     42 H12        -1.2624   -0.2008    1.1270 H         1 <0>         0.0835
     43 H13        -1.9300    1.4438    1.2611 H         1 <0>         0.1078
     44 H14         0.8826   -0.4624   -0.0297 H         1 <0>         0.4319
     45 H15         2.0216    1.9541   -1.2472 H         1 <0>         0.1484
     46 H16         2.6460    1.1264    0.1996 H         1 <0>         0.1416
     47 H17         4.2052    1.6207   -2.3210 H         1 <0>         0.0842
     48 H18         4.8630    0.6723   -0.9660 H         1 <0>         0.0793
     49 H19         6.2396    1.9100   -1.9242 H         1 <0>         0.1326
     50 H20         8.5145    2.6044   -2.5425 H         1 <0>         0.1379
     51 H21         8.8437   -0.8105   -5.1192 H         1 <0>         0.1468
     52 H22         6.5716   -1.4996   -4.4847 H         1 <0>         0.1431
     53 H23        13.1430   -1.2696   -4.5349 H         1 <0>         0.1457
     54 H24        15.4225   -0.6573   -5.1492 H         1 <0>         0.1434
     55 H25        14.2993    3.4525   -5.4967 H         1 <0>         0.1487
     56 H26        17.2830    0.1994   -4.7809 H         1 <0>         0.0592
     57 H27        16.8883   -0.0537   -6.4980 H         1 <0>         0.0594
     58 H28        18.1932    1.0671   -6.0406 H         1 <0>         0.1063
     59 H29         3.5077   -1.1833   -0.1306 H         1 <0>         0.3900
     60 H30         0.3046    0.3038   -1.3690 H         1 <0>         0.4291
@<TRIPOS>BOND
     1    1    2 1
     2    1   35 1
     3    1   36 1
     4    1   37 1
     5    2    3 1
     6    2    4 1
     7    2    5 1
     8    3   38 1
     9    3   39 1
    10    3   40 1
    11    4   41 1
    12    4   42 1
    13    4   43 1
    14    5    6 1
    15    5   44 1
    16    5   60 1
    17    6    7 1
    18    6   45 1
    19    6   46 1
    20    7    8 1
    21    7    9 1
    22    7   34 1
    23    9   10 1
    24    9   47 1
    25    9   48 1
    26   10   11 1
    27   11   16 ar
    28   11   12 ar
    29   12   13 ar
    30   12   49 1
    31   13   14 ar
    32   13   50 1
    33   14   15 ar
    34   14   17 1
    35   15   16 ar
    36   15   51 1
    37   16   52 1
    38   17   27 1
    39   17   18 2
    40   18   19 1
    41   19   24 ar
    42   19   20 ar
    43   20   21 ar
    44   20   53 1
    45   21   22 ar
    46   21   54 1
    47   22   23 ar
    48   22   32 1
    49   23   24 ar
    50   23   55 1
    51   24   25 1
    52   25   26 2
    53   25   27 am
    54   27   28 1
    55   28   29 1
    56   28   30 1
    57   28   31 1
    58   32   33 1
    59   33   56 1
    60   33   57 1
    61   33   58 1
    62   34   59 1
@<TRIPOS>MOLECULE
ZINC01849393
   60    62     0     0     0
SMALL
USER_CHARGES

@<TRIPOS>ATOM
      1 C1          0.0373    2.9472   -0.3199 C.3       1 <0>        -0.1792
      2 C2          0.1343    1.5938    0.3870 C.3       1 <0>         0.0548
      3 C3          0.9205    1.7540    1.6897 C.3       1 <0>        -0.1798
      4 C4         -1.2725    1.0801    0.7002 C.3       1 <0>        -0.1779
      5 N1          0.8231    0.6337   -0.4857 N.4       1 <0>        -0.4983
      6 C5          2.1738    1.1269   -0.7865 C.3       1 <0>        -0.0515
      7 C6          2.8912    0.1269   -1.6955 C.3       1 <0>         0.0874
      8 H1          2.8820   -0.8587   -1.2300 H         1 <0>         0.1350
      9 C7          4.3380    0.5774   -1.9075 C.3       1 <0>         0.0275
     10 O1          5.0403   -0.4144   -2.6594 O.3       1 <0>        -0.2973
     11 C8          6.3463   -0.1676   -2.9365 C.ar      1 <0>         0.1436
     12 C9          6.9403    1.0054   -2.4871 C.ar      1 <0>        -0.2110
     13 C10         8.2651    1.2596   -2.7661 C.ar      1 <0>        -0.0530
     14 C11         9.0116    0.3361   -3.5020 C.ar      1 <0>        -0.0907
     15 C12         8.4106   -0.8420   -3.9520 C.ar      1 <0>        -0.0171
     16 C13         7.0868   -1.0913   -3.6639 C.ar      1 <0>        -0.1457
     17 C14        10.4317    0.6047   -3.8038 C.2       1 <0>         0.4233
     18 N2         11.2903   -0.3762   -3.6891 N.2       1 <0>        -0.4964
     19 C15        12.6021   -0.2032   -3.9488 C.ar      1 <0>         0.1143
     20 C16        13.5152   -1.2549   -3.8250 C.ar      1 <0>        -0.0622
     21 C17        14.8368   -1.0442   -4.0966 C.ar      1 <0>        -0.1571
     22 C18        15.2942    0.2094   -4.4975 C.ar      1 <0>         0.1197
     23 C19        14.4141    1.2679   -4.6280 C.ar      1 <0>        -0.0802
     24 C20        13.0620    1.0701   -4.3553 C.ar      1 <0>        -0.1545
     25 C21        12.0798    2.1574   -4.4775 C.2       1 <0>         0.5503
     26 O2         12.4150    3.2754   -4.8232 O.2       1 <0>        -0.5013
     27 N3         10.7882    1.8670   -4.1960 N.am      1 <0>        -0.5416
     28 C22         9.7665    2.9111   -4.3061 C.3       1 <0>         0.0570
     29 H2          9.6256    3.3854   -3.3349 H         1 <0>         0.0768
     30 H3         10.0871    3.6581   -5.0322 H         1 <0>         0.0970
     31 H4          8.8265    2.4665   -4.6330 H         1 <0>         0.0899
     32 O3         16.6149    0.3932   -4.7619 O.3       1 <0>        -0.3103
     33 C23        17.4713   -0.7404   -4.6076 C.3       1 <0>         0.0232
     34 O4          2.2221    0.0644   -2.9566 O.3       1 <0>        -0.5421
     35 H5          1.0395    3.3131   -0.5431 H         1 <0>         0.0805
     36 H6         -0.5228    2.8330   -1.2480 H         1 <0>         0.0837
     37 H7         -0.4738    3.6596    0.3277 H         1 <0>         0.1074
     38 H8          0.4094    2.4664    2.3373 H         1 <0>         0.1075
     39 H9          0.9896    0.7898    2.1934 H         1 <0>         0.0839
     40 H10         1.9227    2.1199    1.4666 H         1 <0>         0.0811
     41 H11        -1.8326    0.9659   -0.2278 H         1 <0>         0.0835
     42 H12        -1.2034    0.1159    1.2039 H         1 <0>         0.0835
     43 H13        -1.7836    1.7925    1.3478 H         1 <0>         0.1078
     44 H14         0.8870   -0.2589   -0.0195 H         1 <0>         0.4289
     45 H15         2.1047    2.0911   -1.2901 H         1 <0>         0.1422
     46 H16         2.7339    1.2410    0.1416 H         1 <0>         0.1479
     47 H17         4.3484    1.5214   -2.4524 H         1 <0>         0.0796
     48 H18         4.8225    0.7107   -0.9403 H         1 <0>         0.0839
     49 H19         6.3624    1.7190   -1.9185 H         1 <0>         0.1326
     50 H20         8.7260    2.1717   -2.4168 H         1 <0>         0.1379
     51 H21         8.9842   -1.5583   -4.5215 H         1 <0>         0.1468
     52 H22         6.6226   -2.0039   -4.0076 H         1 <0>         0.1431
     53 H23        13.1758   -2.2321   -3.5149 H         1 <0>         0.1457
     54 H24        15.5372   -1.8604   -3.9988 H         1 <0>         0.1433
     55 H25        14.7712    2.2386   -4.9389 H         1 <0>         0.1488
     56 H26        17.4251   -1.0930   -3.5772 H         1 <0>         0.0592
     57 H27        17.1461   -1.5354   -5.2786 H         1 <0>         0.0595
     58 H28        18.4958   -0.4573   -4.8492 H         1 <0>         0.1063
     59 H29         2.1920    0.9081   -3.4281 H         1 <0>         0.3903
     60 H30         0.3046    0.5280   -1.3448 H         1 <0>         0.4323
@<TRIPOS>BOND
     1    1    2 1
     2    1   35 1
     3    1   36 1
     4    1   37 1
     5    2    3 1
     6    2    4 1
     7    2    5 1
     8    3   38 1
     9    3   39 1
    10    3   40 1
    11    4   41 1
    12    4   42 1
    13    4   43 1
    14    5    6 1
    15    5   44 1
    16    5   60 1
    17    6    7 1
    18    6   45 1
    19    6   46 1
    20    7    8 1
    21    7    9 1
    22    7   34 1
    23    9   10 1
    24    9   47 1
    25    9   48 1
    26   10   11 1
    27   11   16 ar
    28   11   12 ar
    29   12   13 ar
    30   12   49 1
    31   13   14 ar
    32   13   50 1
    33   14   15 ar
    34   14   17 1
    35   15   16 ar
    36   15   51 1
    37   16   52 1
    38   17   27 1
    39   17   18 2
    40   18   19 1
    41   19   24 ar
    42   19   20 ar
    43   20   21 ar
    44   20   53 1
    45   21   22 ar
    46   21   54 1
    47   22   23 ar
    48   22   32 1
    49   23   24 ar
    50   23   55 1
    51   24   25 1
    52   25   26 2
    53   25   27 am
    54   27   28 1
    55   28   29 1
    56   28   30 1
    57   28   31 1
    58   32   33 1
    59   33   56 1
    60   33   57 1
    61   33   58 1
    62   34   59 1
@<TRIPOS>MOLECULE
ZINC00056583
   39    41     0     0     0
SMALL
USER_CHARGES
1-[(3,4-dihydroxyphenyl)methyl]-1,2,3,4-tetrahydroisoquinoline-6,7-diol
@<TRIPOS>ATOM
      1 C1         -1.2416    3.1328    0.0308 C.ar      1 <0>        -0.0950
      2 C2         -0.0572    3.8465    0.0234 C.ar      1 <0>        -0.1182
      3 C3          1.1551    3.1765    0.0081 C.ar      1 <0>         0.1003
      4 C4          1.1775    1.7847    0.0004 C.ar      1 <0>         0.0938
      5 C5         -0.0126    1.0758    0.0080 C.ar      1 <0>        -0.1517
      6 C6         -1.2194    1.7509    0.0173 C.ar      1 <0>        -0.1213
      7 C7         -2.5132    0.9781    0.0187 C.3       1 <0>        -0.0967
      8 C8         -2.9445    0.7082    1.4617 C.3       1 <0>         0.0925
      9 H1         -2.9995    1.6525    2.0033 H         1 <0>         0.1498
     10 C9         -4.3023    0.0556    1.4610 C.ar      1 <0>        -0.1207
     11 C10        -5.2663    0.5427    0.5895 C.ar      1 <0>        -0.1074
     12 C11        -6.5285   -0.0218    0.5552 C.ar      1 <0>         0.0986
     13 C12        -6.8320   -1.0850    1.4010 C.ar      1 <0>         0.1136
     14 C13        -5.8686   -1.5667    2.2667 C.ar      1 <0>        -0.1190
     15 C14        -4.6033   -0.9986    2.2960 C.ar      1 <0>        -0.0788
     16 C15        -3.5858   -1.5642    3.2537 C.3       1 <0>        -0.1063
     17 C16        -2.4344   -0.5751    3.4367 C.3       1 <0>        -0.0003
     18 O1         -8.0707   -1.6458    1.3762 O.3       1 <0>        -0.4815
     19 O2         -7.4688    0.4594   -0.3014 O.3       1 <0>        -0.4805
     20 O3          2.3652    1.1224   -0.0141 O.3       1 <0>        -0.4868
     21 O4          2.3208    3.8768    0.0003 O.3       1 <0>        -0.4852
     22 H2         -2.1861    3.6564    0.0427 H         1 <0>         0.1385
     23 H3         -0.0774    4.9263    0.0297 H         1 <0>         0.1442
     24 H4          0.0021   -0.0041    0.0020 H         1 <0>         0.1327
     25 H5         -3.2838    1.5588   -0.4882 H         1 <0>         0.1247
     26 H6         -2.3711    0.0307   -0.5013 H         1 <0>         0.1026
     27 H7         -5.0296    1.3680   -0.0656 H         1 <0>         0.1466
     28 H8         -6.1021   -2.3915    2.9236 H         1 <0>         0.1466
     29 H9         -3.1975   -2.5021    2.8567 H         1 <0>         0.1070
     30 H10        -4.0600   -1.7497    4.2175 H         1 <0>         0.1262
     31 H11        -1.6233   -1.0547    3.9845 H         1 <0>         0.1427
     32 H12        -2.7823    0.2985    3.9879 H         1 <0>         0.1355
     33 H13        -8.1587   -2.3775    0.7501 H         1 <0>         0.4006
     34 H14        -7.4691    0.0289   -1.1673 H         1 <0>         0.3988
     35 H15         2.7004    0.9353   -0.9016 H         1 <0>         0.3989
     36 H16         2.6491    4.0842   -0.8853 H         1 <0>         0.3996
     37 N1         -1.9526   -0.1644    2.1048 N.4       1 <0>        -0.5139
     38 H17        -1.0661    0.3438    2.2051 H         1 <0>         0.4381
     39 H18        -1.8053   -0.9982    1.5240 H         1 <0>         0.4312
@<TRIPOS>BOND
     1    1    6 ar
     2    1    2 ar
     3    1   22 1
     4    2    3 ar
     5    2   23 1
     6    3    4 ar
     7    3   21 1
     8    4    5 ar
     9    4   20 1
    10    5    6 ar
    11    5   24 1
    12    6    7 1
    13    7    8 1
    14    7   25 1
    15    7   26 1
    16    8    9 1
    17    8   10 1
    18    8   37 1
    19   10   15 ar
    20   10   11 ar
    21   11   12 ar
    22   11   27 1
    23   12   13 ar
    24   12   19 1
    25   13   14 ar
    26   13   18 1
    27   14   15 ar
    28   14   28 1
    29   15   16 1
    30   16   17 1
    31   16   29 1
    32   16   30 1
    33   17   31 1
    34   17   32 1
    35   17   37 1
    36   18   33 1
    37   19   34 1
    38   20   35 1
    39   21   36 1
    40   37   38 1
    41   37   39 1
@<TRIPOS>MOLECULE
ZINC00056584
   39    41     0     0     0
SMALL
USER_CHARGES

@<TRIPOS>ATOM
      1 C1         -0.0167    1.3779    0.0096 C.ar      1 <0>        -0.0949
      2 C2          1.1696    2.0886    0.0021 C.ar      1 <0>        -0.1186
      3 C3          2.3802    1.4154   -0.0130 C.ar      1 <0>         0.1002
      4 C4          2.3990    0.0236   -0.0206 C.ar      1 <0>         0.0940
      5 C5          1.2071   -0.6822   -0.0130 C.ar      1 <0>        -0.1515
      6 C6          0.0021   -0.0041    0.0020 C.ar      1 <0>        -0.1210
      7 C7         -1.2936   -0.7736    0.0102 C.3       1 <0>        -0.0983
      8 C8         -1.7458   -1.0263   -1.4294 C.3       1 <0>         0.0902
      9 H1         -1.8058   -0.0756   -1.9593 H         1 <0>         0.1504
     10 C9         -3.1055   -1.6742   -1.4164 C.ar      1 <0>        -0.1223
     11 C10        -4.0486   -1.2136   -0.5088 C.ar      1 <0>        -0.1063
     12 C11        -5.3108   -1.7777   -0.4645 C.ar      1 <0>         0.0982
     13 C12        -5.6353   -2.8134   -1.3361 C.ar      1 <0>         0.1143
     14 C13        -4.6912   -3.2704   -2.2384 C.ar      1 <0>        -0.1186
     15 C14        -3.4272   -2.7016   -2.2779 C.ar      1 <0>        -0.0788
     16 C15        -2.4271   -3.2355   -3.2719 C.3       1 <0>        -0.1067
     17 C16        -1.2761   -2.2418   -3.4332 C.3       1 <0>        -0.0036
     18 N1         -0.7695   -1.8912   -2.0978 N.4       1 <0>        -0.5057
     19 O1         -6.8742   -3.3731   -1.3012 O.3       1 <0>        -0.4819
     20 O2         -6.2313   -1.3220    0.4269 O.3       1 <0>        -0.4810
     21 O3          3.5850   -0.6417   -0.0359 O.3       1 <0>        -0.4868
     22 O4          3.5476    2.1129   -0.0209 O.3       1 <0>        -0.4853
     23 H2         -0.9598    1.9038    0.0259 H         1 <0>         0.1383
     24 H3          1.1522    3.1684    0.0077 H         1 <0>         0.1441
     25 H4          1.2190   -1.7621   -0.0189 H         1 <0>         0.1328
     26 H5         -1.1467   -1.7271    0.5175 H         1 <0>         0.1034
     27 H6         -2.0555   -0.1967    0.5344 H         1 <0>         0.1254
     28 H7         -3.7959   -0.4097    0.1667 H         1 <0>         0.1469
     29 H8         -4.9402   -4.0739   -2.9158 H         1 <0>         0.1470
     30 H9         -2.0359   -4.1886   -2.9160 H         1 <0>         0.1079
     31 H10        -2.9164   -3.3827   -4.2348 H         1 <0>         0.1267
     32 H11        -0.4783   -2.6979   -4.0194 H         1 <0>         0.1434
     33 H12        -1.6356   -1.3439   -3.9357 H         1 <0>         0.1363
     34 H13         0.1086   -1.4025   -2.1881 H         1 <0>         0.4340
     35 H14        -7.5153   -2.9459   -1.8857 H         1 <0>         0.4013
     36 H15        -6.7815   -0.6015    0.0904 H         1 <0>         0.3994
     37 H16         3.9367   -0.8389    0.8430 H         1 <0>         0.3991
     38 H17         3.8938    2.3101    0.8602 H         1 <0>         0.3997
     39 H18        -0.6357   -2.7315   -1.5555 H         1 <0>         0.4283
@<TRIPOS>BOND
     1    1    6 ar
     2    1    2 ar
     3    1   23 1
     4    2    3 ar
     5    2   24 1
     6    3    4 ar
     7    3   22 1
     8    4    5 ar
     9    4   21 1
    10    5    6 ar
    11    5   25 1
    12    6    7 1
    13    7    8 1
    14    7   26 1
    15    7   27 1
    16    8    9 1
    17    8   18 1
    18    8   10 1
    19   10   15 ar
    20   10   11 ar
    21   11   12 ar
    22   11   28 1
    23   12   13 ar
    24   12   20 1
    25   13   14 ar
    26   13   19 1
    27   14   15 ar
    28   14   29 1
    29   15   16 1
    30   16   17 1
    31   16   30 1
    32   16   31 1
    33   17   18 1
    34   17   32 1
    35   17   33 1
    36   18   34 1
    37   18   39 1
    38   19   35 1
    39   20   36 1
    40   21   37 1
    41   22   38 1
@<TRIPOS>MOLECULE
ZINC00056584
   38    40     0     0     0
SMALL
USER_CHARGES

@<TRIPOS>ATOM
      1 C1         -0.0167    1.3779    0.0096 C.ar      1 <0>        -0.1099
      2 C2          1.1696    2.0886    0.0021 C.ar      1 <0>        -0.1284
      3 C3          2.3802    1.4154   -0.0130 C.ar      1 <0>         0.0769
      4 C4          2.3990    0.0236   -0.0206 C.ar      1 <0>         0.0828
      5 C5          1.2071   -0.6822   -0.0130 C.ar      1 <0>        -0.1216
      6 C6          0.0021   -0.0041    0.0020 C.ar      1 <0>        -0.0784
      7 C7         -1.2936   -0.7736    0.0102 C.3       1 <0>        -0.0737
      8 C8         -1.7458   -1.0263   -1.4294 C.3       1 <0>         0.1353
      9 H1         -1.8059   -0.0758   -1.9596 H         1 <0>         0.0554
     10 C9         -3.1052   -1.6755   -1.4169 C.ar      1 <0>        -0.0674
     11 C10        -4.0541   -1.1991   -0.5232 C.ar      1 <0>        -0.1266
     12 C11        -5.3174   -1.7603   -0.4780 C.ar      1 <0>         0.0781
     13 C12        -5.6373   -2.8094   -1.3352 C.ar      1 <0>         0.0838
     14 C13        -4.6876   -3.2824   -2.2229 C.ar      1 <0>        -0.1322
     15 C14        -3.4212   -2.7172   -2.2627 C.ar      1 <0>        -0.0556
     16 C15        -2.4178   -3.2751   -3.2395 C.3       1 <0>        -0.0779
     17 C16        -1.2657   -2.2875   -3.4261 C.3       1 <0>         0.0533
     18 N1         -0.7700   -1.8926   -2.0982 N.3       1 <0>        -0.6791
     19 O1         -6.8774   -3.3663   -1.3005 O.3       1 <0>        -0.4877
     20 O2         -6.2428   -1.2896    0.4003 O.3       1 <0>        -0.4869
     21 O3          3.5850   -0.6417   -0.0359 O.3       1 <0>        -0.4877
     22 O4          3.5476    2.1129   -0.0209 O.3       1 <0>        -0.4888
     23 H2         -0.9598    1.9038    0.0259 H         1 <0>         0.1292
     24 H3          1.1522    3.1684    0.0077 H         1 <0>         0.1334
     25 H4          1.2190   -1.7621   -0.0189 H         1 <0>         0.1398
     26 H5         -1.1467   -1.7271    0.5175 H         1 <0>         0.0888
     27 H6         -2.0555   -0.1967    0.5344 H         1 <0>         0.0842
     28 H7         -3.8046   -0.3847    0.1409 H         1 <0>         0.1356
     29 H8         -4.9335   -4.0960   -2.8891 H         1 <0>         0.1339
     30 H9         -2.0274   -4.2186   -2.8581 H         1 <0>         0.0882
     31 H10        -2.9048   -3.4483   -4.1992 H         1 <0>         0.0801
     32 H11        -0.4633   -2.7633   -3.9900 H         1 <0>         0.0839
     33 H12        -1.6211   -1.4071   -3.9614 H         1 <0>         0.0381
     34 H13        -7.5134   -2.9476   -1.8965 H         1 <0>         0.3877
     35 H14        -6.7898   -0.5736    0.0493 H         1 <0>         0.3869
     36 H15         3.9367   -0.8389    0.8430 H         1 <0>         0.3885
     37 H16         3.8938    2.3101    0.8602 H         1 <0>         0.3879
     38 H17         0.1283   -1.4385   -2.1684 H         1 <0>         0.3504
@<TRIPOS>BOND
     1    1    6 ar
     2    1    2 ar
     3    1   23 1
     4    2    3 ar
     5    2   24 1
     6    3    4 ar
     7    3   22 1
     8    4    5 ar
     9    4   21 1
    10    5    6 ar
    11    5   25 1
    12    6    7 1
    13    7    8 1
    14    7   26 1
    15    7   27 1
    16    8    9 1
    17    8   18 1
    18    8   10 1
    19   10   15 ar
    20   10   11 ar
    21   11   12 ar
    22   11   28 1
    23   12   13 ar
    24   12   20 1
    25   13   14 ar
    26   13   19 1
    27   14   15 ar
    28   14   29 1
    29   15   16 1
    30   16   17 1
    31   16   30 1
    32   16   31 1
    33   17   18 1
    34   17   32 1
    35   17   33 1
    36   18   38 1
    37   19   34 1
    38   20   35 1
    39   21   36 1
    40   22   37 1
@<TRIPOS>MOLECULE
ZINC00000023
   42    42     0     0     0
SMALL
USER_CHARGES

@<TRIPOS>ATOM
      1 C1         -0.0187    1.5258    0.0104 C.3       1 <0>        -0.1863
      2 C2          0.0021   -0.0041    0.0020 C.3       1 <0>         0.0237
      3 C3         -1.4333   -0.5336    0.0129 C.3       1 <0>        -0.1853
      4 N1          0.6897   -0.4778   -1.2066 N.4       1 <0>        -0.5024
      5 C4          2.1002   -0.0703   -1.1590 C.3       1 <0>        -0.0456
      6 C5          2.8163   -0.5637   -2.4178 C.3       1 <0>         0.0870
      7 H1          2.6781   -1.6404   -2.5160 H         1 <0>         0.1342
      8 C6          4.3098   -0.2489   -2.3115 C.3       1 <0>         0.0292
      9 O1          4.9962   -0.8116   -3.4314 O.3       1 <0>        -0.2974
     10 C7          6.3406   -0.6217   -3.4901 C.ar      1 <0>         0.1193
     11 C8          6.9868    0.0868   -2.4873 C.ar      1 <0>        -0.2066
     12 C9          8.3533    0.2781   -2.5491 C.ar      1 <0>        -0.0839
     13 C10         9.0774   -0.2360   -3.6092 C.ar      1 <0>        -0.1431
     14 C11         8.4358   -0.9419   -4.6098 C.ar      1 <0>        -0.0755
     15 C12         7.0699   -1.1408   -4.5497 C.ar      1 <0>        -0.0997
     16 C13         6.3721   -1.9158   -5.6376 C.3       1 <0>        -0.0468
     17 C14         5.8306   -0.9586   -6.6680 C.2       1 <0>        -0.1491
     18 C15         6.1568   -1.1001   -7.9288 C.2       1 <0>        -0.1878
     19 O2          2.2715    0.0930   -3.5641 O.3       1 <0>        -0.5421
     20 H2          1.0039    1.9031    0.0027 H         1 <0>         0.0795
     21 H3         -0.5459    1.8868   -0.8726 H         1 <0>         0.0834
     22 H4         -0.5289    1.8773    0.9072 H         1 <0>         0.1079
     23 H5          0.5293   -0.3651    0.8851 H         1 <0>         0.1397
     24 H6         -1.9605   -0.1726   -0.8702 H         1 <0>         0.0829
     25 H7         -1.4185   -1.6235    0.0069 H         1 <0>         0.0831
     26 H8         -1.9435   -0.1821    0.9097 H         1 <0>         0.1083
     27 H9          0.6317   -1.4840   -1.2540 H         1 <0>         0.4304
     28 H10         2.1628    1.0167   -1.1079 H         1 <0>         0.1406
     29 H11         2.5740   -0.5034   -0.2781 H         1 <0>         0.1458
     30 H12         4.4536    0.8316   -2.3027 H         1 <0>         0.0758
     31 H13         4.7064   -0.6757   -1.3903 H         1 <0>         0.0803
     32 H14         6.4217    0.4888   -1.6594 H         1 <0>         0.1233
     33 H15         8.8567    0.8298   -1.7690 H         1 <0>         0.1280
     34 H16        10.1458   -0.0853   -3.6557 H         1 <0>         0.1296
     35 H17         9.0035   -1.3420   -5.4369 H         1 <0>         0.1335
     36 H18         7.0803   -2.5962   -6.1105 H         1 <0>         0.0781
     37 H19         5.5508   -2.4882   -5.2064 H         1 <0>         0.0827
     38 H20         5.1735   -0.1561   -6.3669 H         1 <0>         0.1060
     39 H21         6.8138   -1.9026   -8.2298 H         1 <0>         0.0984
     40 H22         5.7687   -0.4141   -8.6672 H         1 <0>         0.0994
     41 H23         2.3595    1.0558   -3.5447 H         1 <0>         0.3897
     42 H24         0.2511   -0.0769   -2.0221 H         1 <0>         0.4317
@<TRIPOS>BOND
     1    1    2 1
     2    1   20 1
     3    1   21 1
     4    1   22 1
     5    2    3 1
     6    2    4 1
     7    2   23 1
     8    3   24 1
     9    3   25 1
    10    3   26 1
    11    4    5 1
    12    4   27 1
    13    4   42 1
    14    5    6 1
    15    5   28 1
    16    5   29 1
    17    6    7 1
    18    6    8 1
    19    6   19 1
    20    8    9 1
    21    8   30 1
    22    8   31 1
    23    9   10 1
    24   10   15 ar
    25   10   11 ar
    26   11   12 ar
    27   11   32 1
    28   12   13 ar
    29   12   33 1
    30   13   14 ar
    31   13   34 1
    32   14   15 ar
    33   14   35 1
    34   15   16 1
    35   16   17 1
    36   16   36 1
    37   16   37 1
    38   17   18 2
    39   17   38 1
    40   18   39 1
    41   18   40 1
    42   19   41 1
@<TRIPOS>MOLECULE
ZINC00086599
   42    42     0     0     0
SMALL
USER_CHARGES

@<TRIPOS>ATOM
      1 C1         -0.0187    1.5258    0.0104 C.3       1 <0>        -0.1867
      2 C2          0.0021   -0.0041    0.0020 C.3       1 <0>         0.0240
      3 C3         -1.4333   -0.5336    0.0129 C.3       1 <0>        -0.1852
      4 N1          0.6897   -0.4778   -1.2066 N.4       1 <0>        -0.5018
      5 C4          2.1002   -0.0703   -1.1590 C.3       1 <0>        -0.0456
      6 C5          2.8163   -0.5637   -2.4178 C.3       1 <0>         0.0868
      7 H1          2.3425   -0.1306   -3.2988 H         1 <0>         0.1350
      8 C6          4.2854   -0.1392   -2.3683 C.3       1 <0>         0.0293
      9 O1          4.9264   -0.4976   -3.5942 O.3       1 <0>        -0.2974
     10 C7          6.2443   -0.1886   -3.7147 C.ar      1 <0>         0.1193
     11 C8          6.9085    0.4413   -2.6719 C.ar      1 <0>        -0.2066
     12 C9          8.2481    0.7538   -2.7966 C.ar      1 <0>        -0.0839
     13 C10         8.9274    0.4394   -3.9595 C.ar      1 <0>        -0.1431
     14 C11         8.2677   -0.1877   -5.0000 C.ar      1 <0>        -0.0756
     15 C12         6.9292   -0.5076   -4.8780 C.ar      1 <0>        -0.0995
     16 C13         6.2123   -1.1969   -6.0102 C.3       1 <0>        -0.0478
     17 C14         5.5240   -0.1679   -6.8695 C.2       1 <0>        -0.1501
     18 C15         5.7643   -0.1225   -8.1565 C.2       1 <0>        -0.1869
     19 O2          2.7343   -1.9888   -2.4849 O.3       1 <0>        -0.5431
     20 H2          1.0039    1.9031    0.0027 H         1 <0>         0.0802
     21 H3         -0.5459    1.8868   -0.8726 H         1 <0>         0.0835
     22 H4         -0.5289    1.8773    0.9072 H         1 <0>         0.1080
     23 H5          0.5293   -0.3651    0.8851 H         1 <0>         0.1392
     24 H6         -1.9605   -0.1726   -0.8702 H         1 <0>         0.0829
     25 H7         -1.4185   -1.6235    0.0069 H         1 <0>         0.0831
     26 H8         -1.9435   -0.1821    0.9097 H         1 <0>         0.1083
     27 H9          0.6317   -1.4840   -1.2540 H         1 <0>         0.4333
     28 H10         2.1628    1.0167   -1.1079 H         1 <0>         0.1470
     29 H11         2.5740   -0.5034   -0.2781 H         1 <0>         0.1393
     30 H12         4.3473    0.9399   -2.2279 H         1 <0>         0.0804
     31 H13         4.7813   -0.6427   -1.5384 H         1 <0>         0.0758
     32 H14         6.3784    0.6873   -1.7637 H         1 <0>         0.1233
     33 H15         8.7655    1.2444   -1.9854 H         1 <0>         0.1280
     34 H16         9.9748    0.6846   -4.0550 H         1 <0>         0.1296
     35 H17         8.8003   -0.4319   -5.9073 H         1 <0>         0.1334
     36 H18         6.9324   -1.7505   -6.6128 H         1 <0>         0.0784
     37 H19         5.4714   -1.8862   -5.6051 H         1 <0>         0.0845
     38 H20         4.8325    0.5322   -6.4243 H         1 <0>         0.1043
     39 H21         6.4557   -0.8226   -8.6017 H         1 <0>         0.0990
     40 H22         5.2710    0.6149   -8.7723 H         1 <0>         0.0994
     41 H23         3.1369   -2.4418   -1.7314 H         1 <0>         0.3897
     42 H24         0.2511   -0.0769   -2.0221 H         1 <0>         0.4286
@<TRIPOS>BOND
     1    1    2 1
     2    1   20 1
     3    1   21 1
     4    1   22 1
     5    2    3 1
     6    2    4 1
     7    2   23 1
     8    3   24 1
     9    3   25 1
    10    3   26 1
    11    4    5 1
    12    4   27 1
    13    4   42 1
    14    5    6 1
    15    5   28 1
    16    5   29 1
    17    6    7 1
    18    6    8 1
    19    6   19 1
    20    8    9 1
    21    8   30 1
    22    8   31 1
    23    9   10 1
    24   10   15 ar
    25   10   11 ar
    26   11   12 ar
    27   11   32 1
    28   12   13 ar
    29   12   33 1
    30   13   14 ar
    31   13   34 1
    32   14   15 ar
    33   14   35 1
    34   15   16 1
    35   16   17 1
    36   16   36 1
    37   16   37 1
    38   17   18 2
    39   17   38 1
    40   18   39 1
    41   18   40 1
    42   19   41 1
@<TRIPOS>MOLECULE
ZINC03810797
   54    57     0     0     0
SMALL
USER_CHARGES
2-benzofuran-6-yl-N-[(5-methoxytetralin-1-yl)methyl]-N-methyl-ethanamine
@<TRIPOS>ATOM
      1 C1         -2.0883   -0.0783    1.2217 C.3       1 <0>        -0.0516
      2 C2         -1.1584   -1.9653    0.0227 C.3       1 <0>        -0.0034
      3 C3         -2.5061   -2.6836   -0.0709 C.3       1 <0>        -0.0979
      4 C4         -2.2828   -4.1739   -0.0603 C.ar      1 <0>        -0.0835
      5 C5         -2.2627   -4.8565    1.1474 C.ar      1 <0>        -0.1284
      6 C6         -2.0609   -6.2086    1.1751 C.ar      1 <0>        -0.0624
      7 C7         -1.8749   -6.9042   -0.0186 C.ar      1 <0>        -0.1187
      8 C8         -1.6400   -8.3122   -0.3603 C.2       1 <0>        -0.2145
      9 C9         -1.5419   -8.3612   -1.6957 C.2       1 <0>         0.0241
     10 O1         -1.6914   -7.1307   -2.2166 O.3       1 <0>        -0.1921
     11 C10        -1.8946   -6.2188   -1.2448 C.ar      1 <0>         0.0504
     12 C11        -2.1063   -4.8456   -1.2511 C.ar      1 <0>        -0.0922
     13 C12        -0.1054    0.2091   -0.1378 C.3       1 <0>        -0.0047
     14 C13        -0.3836    1.6409   -0.5999 C.3       1 <0>        -0.0629
     15 H1         -1.0919    2.1081    0.0842 H         1 <0>         0.1048
     16 C14        -0.9852    1.6092   -2.0034 C.3       1 <0>        -0.1330
     17 C15        -1.0543    3.0468   -2.5322 C.3       1 <0>        -0.1170
     18 C16         0.3693    3.5286   -2.8042 C.3       1 <0>        -0.0781
     19 C17         1.2468    3.2933   -1.6028 C.ar      1 <0>        -0.0928
     20 C18         0.9032    2.4240   -0.5927 C.ar      1 <0>        -0.0545
     21 C19         1.7611    2.2477    0.4855 C.ar      1 <0>        -0.1644
     22 C20         2.9538    2.9382    0.5563 C.ar      1 <0>        -0.0736
     23 C21         3.3014    3.8146   -0.4533 C.ar      1 <0>        -0.1985
     24 C22         2.4503    3.9922   -1.5311 C.ar      1 <0>         0.1356
     25 O2          2.7912    4.8534   -2.5256 O.3       1 <0>        -0.3115
     26 C23         4.0380    5.5384   -2.3916 C.3       1 <0>         0.0236
     27 H2         -2.1952    1.0064    1.2106 H         1 <0>         0.1232
     28 H3         -3.0751   -0.5404    1.2477 H         1 <0>         0.1245
     29 H4         -1.5230   -0.3788    2.1039 H         1 <0>         0.1261
     30 H5         -0.5374   -2.2457   -0.8280 H         1 <0>         0.1312
     31 H6         -0.6579   -2.2511    0.9479 H         1 <0>         0.1353
     32 H7         -3.1271   -2.4032    0.7799 H         1 <0>         0.0999
     33 H8         -3.0067   -2.3977   -0.9960 H         1 <0>         0.0966
     34 H9         -2.4070   -4.3165    2.0715 H         1 <0>         0.1313
     35 H10        -2.0461   -6.7355    2.1177 H         1 <0>         0.1345
     36 H11        -1.5616   -9.1419    0.3266 H         1 <0>         0.1646
     37 H12        -1.3679   -9.2589   -2.2704 H         1 <0>         0.2153
     38 H13        -2.1281   -4.3053   -2.1859 H         1 <0>         0.1342
     39 H14         0.5148   -0.2974   -0.8774 H         1 <0>         0.1337
     40 H15         0.4154    0.2310    0.8194 H         1 <0>         0.1375
     41 H16        -0.3563    1.0067   -2.6589 H         1 <0>         0.0831
     42 H17        -1.9878    1.1834   -1.9636 H         1 <0>         0.0666
     43 H18        -1.6328    3.0709   -3.4557 H         1 <0>         0.0810
     44 H19        -1.5242    3.6896   -1.7878 H         1 <0>         0.0721
     45 H20         0.7755    2.9859   -3.6577 H         1 <0>         0.0806
     46 H21         0.3508    4.5944   -3.0318 H         1 <0>         0.0857
     47 H22         1.4919    1.5633    1.2765 H         1 <0>         0.1208
     48 H23         3.6137    2.7940    1.3990 H         1 <0>         0.1310
     49 H24         4.2330    4.3586   -0.4024 H         1 <0>         0.1350
     50 H25         4.1874    6.1925   -3.2507 H         1 <0>         0.1073
     51 H26         4.0291    6.1340   -1.4787 H         1 <0>         0.0596
     52 H27         4.8487    4.8114   -2.3431 H         1 <0>         0.0594
     53 N1         -1.3925   -0.5062   -0.0102 N.4       1 <0>        -0.3989
     54 H28        -1.9810   -0.2811   -0.8210 H         1 <0>         0.4262
@<TRIPOS>BOND
     1    1   27 1
     2    1   28 1
     3    1   29 1
     4    1   53 1
     5    2    3 1
     6    2   30 1
     7    2   31 1
     8    2   53 1
     9    3    4 1
    10    3   32 1
    11    3   33 1
    12    4   12 ar
    13    4    5 ar
    14    5    6 ar
    15    5   34 1
    16    6    7 ar
    17    6   35 1
    18    7   11 ar
    19    7    8 1
    20    8    9 2
    21    8   36 1
    22    9   10 1
    23    9   37 1
    24   10   11 1
    25   11   12 ar
    26   12   38 1
    27   13   14 1
    28   13   39 1
    29   13   40 1
    30   13   53 1
    31   14   15 1
    32   14   20 1
    33   14   16 1
    34   16   17 1
    35   16   41 1
    36   16   42 1
    37   17   18 1
    38   17   43 1
    39   17   44 1
    40   18   19 1
    41   18   45 1
    42   18   46 1
    43   19   24 ar
    44   19   20 ar
    45   20   21 ar
    46   21   22 ar
    47   21   47 1
    48   22   23 ar
    49   22   48 1
    50   23   24 ar
    51   23   49 1
    52   24   25 1
    53   25   26 1
    54   26   50 1
    55   26   51 1
    56   26   52 1
    57   53   54 1
@<TRIPOS>MOLECULE
ZINC00020240
   41    42     0     0     0
SMALL
USER_CHARGES

@<TRIPOS>ATOM
      1 C1         -0.0187    1.5258    0.0104 C.3       1 <0>        -0.1864
      2 C2          0.0021   -0.0041    0.0020 C.3       1 <0>         0.0237
      3 C3          0.7421   -0.5109    1.2415 C.3       1 <0>        -0.1853
      4 N1         -1.3761   -0.5125    0.0124 N.4       1 <0>        -0.5024
      5 C4         -2.0500   -0.1262   -1.2343 C.3       1 <0>        -0.0455
      6 C5         -3.4854   -0.6557   -1.2235 C.3       1 <0>         0.0867
      7 H1         -3.4743   -1.7319   -1.0509 H         1 <0>         0.1348
      8 C6         -4.1475   -0.3621   -2.5712 C.3       1 <0>         0.0290
      9 O1         -5.4460   -0.9578   -2.6037 O.3       1 <0>        -0.2976
     10 C7         -6.1730   -0.7902   -3.7385 C.ar      1 <0>         0.1358
     11 C8         -5.6568   -0.0834   -4.7882 C.ar      1 <0>        -0.2166
     12 C9         -6.3892    0.0973   -5.9580 C.ar      1 <0>        -0.0839
     13 C10        -7.6399   -0.4245   -6.0915 C.ar      1 <0>        -0.1302
     14 C11        -8.2062   -1.1581   -5.0353 C.ar      1 <0>        -0.0207
     15 C12        -7.4628   -1.3490   -3.8442 C.ar      1 <0>        -0.0669
     16 C13        -8.0269   -2.0859   -2.7904 C.ar      1 <0>        -0.0916
     17 C14        -9.2755   -2.6106   -2.9280 C.ar      1 <0>        -0.1198
     18 C15       -10.0052   -2.4276   -4.1011 C.ar      1 <0>        -0.0996
     19 C16        -9.4946   -1.7103   -5.1390 C.ar      1 <0>        -0.1126
     20 O2         -4.2221   -0.0137   -0.1809 O.3       1 <0>        -0.5426
     21 H2          1.0039    1.9031    0.0027 H         1 <0>         0.1080
     22 H3         -0.5459    1.8868   -0.8726 H         1 <0>         0.0796
     23 H4         -0.5289    1.8773    0.9072 H         1 <0>         0.0835
     24 H5          0.5123   -0.3556   -0.8948 H         1 <0>         0.1399
     25 H6          0.2319   -0.1594    2.1383 H         1 <0>         0.0829
     26 H7          0.7568   -1.6008    1.2356 H         1 <0>         0.0831
     27 H8          1.7647   -0.1336    1.2338 H         1 <0>         0.1084
     28 H9         -1.3629   -1.5185    0.0898 H         1 <0>         0.4304
     29 H10        -2.0643    0.9605   -1.3179 H         1 <0>         0.1411
     30 H11        -1.5132   -0.5489   -2.0836 H         1 <0>         0.1463
     31 H12        -4.2389    0.7159   -2.7039 H         1 <0>         0.0781
     32 H13        -3.5374   -0.7766   -3.3737 H         1 <0>         0.0827
     33 H14        -4.6670    0.3413   -4.7087 H         1 <0>         0.1233
     34 H15        -5.9587    0.6606   -6.7727 H         1 <0>         0.1282
     35 H16        -8.1947   -0.2748   -7.0059 H         1 <0>         0.1330
     36 H17        -7.4729   -2.2360   -1.8755 H         1 <0>         0.1299
     37 H18        -9.7069   -3.1772   -2.1160 H         1 <0>         0.1276
     38 H19       -10.9936   -2.8547   -4.1849 H         1 <0>         0.1293
     39 H20       -10.0715   -1.5762   -6.0421 H         1 <0>         0.1342
     40 H21        -4.2734    0.9478   -0.2701 H         1 <0>         0.3904
     41 H22        -1.8730   -0.1212    0.7986 H         1 <0>         0.4317
@<TRIPOS>BOND
     1    1    2 1
     2    1   21 1
     3    1   22 1
     4    1   23 1
     5    2    3 1
     6    2    4 1
     7    2   24 1
     8    3   25 1
     9    3   26 1
    10    3   27 1
    11    4    5 1
    12    4   28 1
    13    4   41 1
    14    5    6 1
    15    5   29 1
    16    5   30 1
    17    6    7 1
    18    6    8 1
    19    6   20 1
    20    8    9 1
    21    8   31 1
    22    8   32 1
    23    9   10 1
    24   10   15 ar
    25   10   11 ar
    26   11   12 ar
    27   11   33 1
    28   12   13 ar
    29   12   34 1
    30   13   14 ar
    31   13   35 1
    32   14   19 ar
    33   14   15 ar
    34   15   16 ar
    35   16   17 ar
    36   16   36 1
    37   17   18 ar
    38   17   37 1
    39   18   19 ar
    40   18   38 1
    41   19   39 1
    42   20   40 1
@<TRIPOS>MOLECULE
ZINC00056556
   41    42     0     0     0
SMALL
USER_CHARGES

@<TRIPOS>ATOM
      1 C1         -0.0187    1.5258    0.0104 C.3       1 <0>        -0.1868
      2 C2          0.0021   -0.0041    0.0020 C.3       1 <0>         0.0239
      3 C3          0.7421   -0.5109    1.2415 C.3       1 <0>        -0.1852
      4 N1         -1.3761   -0.5125    0.0124 N.4       1 <0>        -0.5018
      5 C4         -2.0500   -0.1262   -1.2343 C.3       1 <0>        -0.0456
      6 C5         -3.4854   -0.6557   -1.2235 C.3       1 <0>         0.0866
      7 H1         -4.0222   -0.2330   -0.3742 H         1 <0>         0.1356
      8 C6         -4.1873   -0.2533   -2.5220 C.3       1 <0>         0.0290
      9 O1         -5.5600   -0.6460   -2.4630 O.3       1 <0>        -0.2976
     10 C7         -6.3301   -0.3603   -3.5445 C.ar      1 <0>         0.1358
     11 C8         -5.7871    0.2702   -4.6286 C.ar      1 <0>        -0.2166
     12 C9         -6.5629    0.5699   -5.7447 C.ar      1 <0>        -0.0839
     13 C10        -7.8843    0.2439   -5.7897 C.ar      1 <0>        -0.1302
     14 C11        -8.4805   -0.4055   -4.6955 C.ar      1 <0>        -0.0207
     15 C12        -7.6937   -0.7172   -3.5589 C.ar      1 <0>        -0.0669
     16 C13        -8.2884   -1.3701   -2.4672 C.ar      1 <0>        -0.0916
     17 C14        -9.6084   -1.6991   -2.5165 C.ar      1 <0>        -0.1198
     18 C15       -10.3815   -1.3976   -3.6361 C.ar      1 <0>        -0.0996
     19 C16        -9.8416   -0.7560   -4.7081 C.ar      1 <0>        -0.1126
     20 O2         -3.4667   -2.0804   -1.1139 O.3       1 <0>        -0.5435
     21 H2          1.0039    1.9031    0.0027 H         1 <0>         0.1081
     22 H3         -0.5459    1.8868   -0.8726 H         1 <0>         0.0803
     23 H4         -0.5289    1.8773    0.9072 H         1 <0>         0.0836
     24 H5          0.5123   -0.3556   -0.8948 H         1 <0>         0.1393
     25 H6          0.2319   -0.1594    2.1383 H         1 <0>         0.0829
     26 H7          0.7568   -1.6008    1.2356 H         1 <0>         0.0831
     27 H8          1.7647   -0.1336    1.2338 H         1 <0>         0.1083
     28 H9         -1.3629   -1.5185    0.0898 H         1 <0>         0.4333
     29 H10        -2.0643    0.9605   -1.3179 H         1 <0>         0.1475
     30 H11        -1.5132   -0.5489   -2.0836 H         1 <0>         0.1398
     31 H12        -4.1237    0.8273   -2.6496 H         1 <0>         0.0828
     32 H13        -3.7039   -0.7477   -3.3646 H         1 <0>         0.0780
     33 H14        -4.7413    0.5399   -4.6191 H         1 <0>         0.1233
     34 H15        -6.1098    1.0693   -6.5883 H         1 <0>         0.1282
     35 H16        -8.4722    0.4840   -6.6634 H         1 <0>         0.1330
     36 H17        -7.7014   -1.6104   -1.5931 H         1 <0>         0.1299
     37 H18       -10.0632   -2.2016   -1.6756 H         1 <0>         0.1276
     38 H19       -11.4266   -1.6698   -3.6500 H         1 <0>         0.1293
     39 H20       -10.4528   -0.5282   -5.5689 H         1 <0>         0.1342
     40 H21        -3.0042   -2.5245   -1.8377 H         1 <0>         0.3902
     41 H22        -1.8730   -0.1212    0.7986 H         1 <0>         0.4286
@<TRIPOS>BOND
     1    1    2 1
     2    1   21 1
     3    1   22 1
     4    1   23 1
     5    2    3 1
     6    2    4 1
     7    2   24 1
     8    3   25 1
     9    3   26 1
    10    3   27 1
    11    4    5 1
    12    4   28 1
    13    4   41 1
    14    5    6 1
    15    5   29 1
    16    5   30 1
    17    6    7 1
    18    6    8 1
    19    6   20 1
    20    8    9 1
    21    8   31 1
    22    8   32 1
    23    9   10 1
    24   10   15 ar
    25   10   11 ar
    26   11   12 ar
    27   11   33 1
    28   12   13 ar
    29   12   34 1
    30   13   14 ar
    31   13   35 1
    32   14   19 ar
    33   14   15 ar
    34   15   16 ar
    35   16   17 ar
    36   16   36 1
    37   17   18 ar
    38   17   37 1
    39   18   19 ar
    40   18   38 1
    41   19   39 1
    42   20   40 1
@<TRIPOS>MOLECULE
ZINC03871771
   47    48     0     0     0
SMALL
USER_CHARGES

@<TRIPOS>ATOM
      1 C1         -0.0187    1.5258    0.0104 C.3       1 <0>        -0.1819
      2 C2          0.0021   -0.0041    0.0020 C.3       1 <0>         0.0277
      3 H1         -1.0205   -0.3814    0.0098 H         1 <0>         0.1401
      4 C3          0.7421   -0.5109    1.2415 C.3       1 <0>        -0.0849
      5 C4          0.6567   -2.0144    1.2978 C.ar      1 <0>        -0.1954
      6 C5         -0.3968   -2.6218    1.9557 C.ar      1 <0>        -0.0630
      7 C6         -0.4771   -3.9998    2.0091 C.ar      1 <0>        -0.1520
      8 C7          0.5003   -4.7745    1.4014 C.ar      1 <0>         0.1615
      9 C8          1.5561   -4.1627    0.7414 C.ar      1 <0>        -0.2112
     10 C9          1.6291   -2.7842    0.6865 C.ar      1 <0>        -0.0959
     11 O1          0.4238   -6.1304    1.4528 O.3       1 <0>        -0.2714
     12 C10         1.4651   -6.8639    0.8051 C.3       1 <0>        -0.0107
     13 C11         1.2138   -8.3411    0.9660 C.2       1 <0>         0.4988
     14 O2          0.2339   -8.7297    1.5785 O.co2     1 <0>        -0.6662
     15 O3          1.9905   -9.1477    0.4836 O.co2     1 <0>        -0.6788
     16 N1          0.6897   -0.4778   -1.2066 N.4       1 <0>        -0.5045
     17 C12        -0.0856   -0.0931   -2.3936 C.3       1 <0>        -0.0454
     18 C13         0.6305   -0.5866   -3.6524 C.3       1 <0>         0.1338
     19 H2          0.7239   -1.6719   -3.6155 H         1 <0>         0.1354
     20 C14        -0.1648   -0.1919   -4.8701 C.ar      1 <0>        -0.1253
     21 C15         0.0056    1.0603   -5.4309 C.ar      1 <0>        -0.1041
     22 C16        -0.7235    1.4230   -6.5478 C.ar      1 <0>        -0.0984
     23 C17        -1.6238    0.5339   -7.1044 C.ar      1 <0>        -0.0939
     24 C18        -1.7948   -0.7190   -6.5438 C.ar      1 <0>        -0.0307
     25 C19        -1.0601   -1.0838   -5.4293 C.ar      1 <0>        -0.0936
     26 Cl1        -2.9253   -1.8360   -7.2423 Cl        1 <0>        -0.0486
     27 O4          1.9312    0.0013   -3.7219 O.3       1 <0>        -0.5436
     28 H3          1.0039    1.9031    0.0027 H         1 <0>         0.0819
     29 H4         -0.5459    1.8868   -0.8726 H         1 <0>         0.0786
     30 H5         -0.5289    1.8773    0.9072 H         1 <0>         0.1068
     31 H6          1.7879   -0.2080    1.1895 H         1 <0>         0.0918
     32 H7          0.2852   -0.0874    2.1360 H         1 <0>         0.1160
     33 H8         -1.1575   -2.0183    2.4286 H         1 <0>         0.1296
     34 H9         -1.2999   -4.4738    2.5237 H         1 <0>         0.1386
     35 H10         2.3183   -4.7635    0.2676 H         1 <0>         0.1362
     36 H11         2.4485   -2.3075    0.1691 H         1 <0>         0.1180
     37 H12         1.4820   -6.6116   -0.2551 H         1 <0>         0.0623
     38 H13         2.4242   -6.6074    1.2550 H         1 <0>         0.0641
     39 H14         1.6080   -0.0627   -1.2556 H         1 <0>         0.4264
     40 H15        -1.0777   -0.5415   -2.3406 H         1 <0>         0.1447
     41 H16        -0.1790    0.9922   -2.4305 H         1 <0>         0.1382
     42 H17         0.7084    1.7555   -4.9960 H         1 <0>         0.1294
     43 H18        -0.5899    2.4013   -6.9854 H         1 <0>         0.1407
     44 H19        -2.1940    0.8177   -7.9767 H         1 <0>         0.1416
     45 H20        -1.1899   -2.0635   -4.9938 H         1 <0>         0.1406
     46 H21         1.9246    0.9676   -3.7575 H         1 <0>         0.3858
     47 H22         0.7761   -1.4825   -1.1724 H         1 <0>         0.4307
@<TRIPOS>BOND
     1    1    2 1
     2    1   28 1
     3    1   29 1
     4    1   30 1
     5    2    3 1
     6    2    4 1
     7    2   16 1
     8    4    5 1
     9    4   31 1
    10    4   32 1
    11    5   10 ar
    12    5    6 ar
    13    6    7 ar
    14    6   33 1
    15    7    8 ar
    16    7   34 1
    17    8    9 ar
    18    8   11 1
    19    9   10 ar
    20    9   35 1
    21   10   36 1
    22   11   12 1
    23   12   13 1
    24   12   37 1
    25   12   38 1
    26   13   14 2
    27   13   15 1
    28   16   17 1
    29   16   39 1
    30   16   47 1
    31   17   18 1
    32   17   40 1
    33   17   41 1
    34   18   19 1
    35   18   20 1
    36   18   27 1
    37   20   25 ar
    38   20   21 ar
    39   21   22 ar
    40   21   42 1
    41   22   23 ar
    42   22   43 1
    43   23   24 ar
    44   23   44 1
    45   24   25 ar
    46   24   26 1
    47   25   45 1
    48   27   46 1
@<TRIPOS>MOLECULE
ZINC00000802
   49    51     0     0     0
SMALL
USER_CHARGES
1-[(3,4,5-trimethoxyphenyl)methyl]-1,2,3,4-tetrahydroisoquinoline-6,7-diol
@<TRIPOS>ATOM
      1 C1          5.1993    6.9705    5.7400 C.3       1 <0>         0.0226
      2 O1          5.1823    5.9507    6.7408 O.3       1 <0>        -0.2936
      3 C2          4.5674    4.7808    6.4198 C.ar      1 <0>         0.1626
      4 C3          3.9930    4.6190    5.1681 C.ar      1 <0>        -0.2591
      5 C4          3.3686    3.4301    4.8406 C.ar      1 <0>        -0.0513
      6 C5          3.3087    2.4002    5.7607 C.ar      1 <0>        -0.2210
      7 C6          3.8852    2.5521    7.0127 C.ar      1 <0>         0.1641
      8 C7          4.5143    3.7458    7.3457 C.ar      1 <0>         0.0415
      9 O2          5.0764    3.9008    8.5754 O.3       1 <0>        -0.3123
     10 C8          4.2424    4.4305    9.6079 C.3       1 <0>         0.0347
     11 O3          3.8305    1.5363    7.9153 O.3       1 <0>        -0.2943
     12 C9          3.1682    0.3385    7.5046 C.3       1 <0>         0.0213
     13 C10         2.7462    3.2584    3.4790 C.3       1 <0>        -0.0997
     14 C11         3.7839    2.6840    2.5126 C.3       1 <0>         0.0944
     15 H1          4.1827    1.7562    2.9228 H         1 <0>         0.1501
     16 C12         3.1257    2.3993    1.1877 C.ar      1 <0>        -0.1211
     17 C13         1.8633    1.8227    1.1902 C.ar      1 <0>        -0.1081
     18 C14         1.2237    1.5328   -0.0014 C.ar      1 <0>         0.0997
     19 C15         1.8468    1.8323   -1.2096 C.ar      1 <0>         0.1152
     20 C16         3.1021    2.4135   -1.2070 C.ar      1 <0>        -0.1198
     21 C17         3.7409    2.6988   -0.0091 C.ar      1 <0>        -0.0784
     22 C18         5.1034    3.3418   -0.0587 C.3       1 <0>        -0.1063
     23 C19         5.7996    3.1955    1.2945 C.3       1 <0>        -0.0003
     24 O4          1.2249    1.5544   -2.3866 O.3       1 <0>        -0.4865
     25 O5         -0.0110    0.9628    0.0073 O.3       1 <0>        -0.4860
     26 H2          5.7189    7.8482    6.1244 H         1 <0>         0.1116
     27 H3          5.7160    6.6015    4.8540 H         1 <0>         0.0529
     28 H4          4.1760    7.2397    5.4781 H         1 <0>         0.0612
     29 H5          4.0339    5.4229    4.4480 H         1 <0>         0.1340
     30 H6          2.8161    1.4744    5.5025 H         1 <0>         0.1422
     31 H7          3.3871    3.7717    9.7578 H         1 <0>         0.0485
     32 H8          4.8124    4.5025   10.5342 H         1 <0>         0.1009
     33 H9          3.8917    5.4213    9.3191 H         1 <0>         0.0479
     34 H10         3.1962   -0.3887    8.3161 H         1 <0>         0.1114
     35 H11         2.1316    0.5640    7.2544 H         1 <0>         0.0614
     36 H12         3.6717   -0.0735    6.6300 H         1 <0>         0.0598
     37 H13         2.4037    4.2258    3.1114 H         1 <0>         0.1050
     38 H14         1.8991    2.5762    3.5501 H         1 <0>         0.1253
     39 H15         1.3790    1.5952    2.1283 H         1 <0>         0.1461
     40 H16         3.5875    2.6469   -2.1431 H         1 <0>         0.1467
     41 H17         5.7040    2.8579   -0.8288 H         1 <0>         0.1262
     42 H18         4.9956    4.3999   -0.2977 H         1 <0>         0.1071
     43 H19         6.7013    3.8077    1.3105 H         1 <0>         0.1425
     44 H20         6.0630    2.1513    1.4630 H         1 <0>         0.1357
     45 H21         0.6735    2.2755   -2.7199 H         1 <0>         0.4062
     46 H22         0.0021   -0.0041    0.0020 H         1 <0>         0.4048
     47 N1          4.8763    3.6530    2.3494 N.4       1 <0>        -0.5146
     48 H23         5.3883    3.7412    3.2351 H         1 <0>         0.4381
     49 H24         4.4856    4.5656    2.0876 H         1 <0>         0.4309
@<TRIPOS>BOND
     1    1    2 1
     2    1   26 1
     3    1   27 1
     4    1   28 1
     5    2    3 1
     6    3    8 ar
     7    3    4 ar
     8    4    5 ar
     9    4   29 1
    10    5    6 ar
    11    5   13 1
    12    6    7 ar
    13    6   30 1
    14    7    8 ar
    15    7   11 1
    16    8    9 1
    17    9   10 1
    18   10   31 1
    19   10   32 1
    20   10   33 1
    21   11   12 1
    22   12   34 1
    23   12   35 1
    24   12   36 1
    25   13   14 1
    26   13   37 1
    27   13   38 1
    28   14   15 1
    29   14   16 1
    30   14   47 1
    31   16   21 ar
    32   16   17 ar
    33   17   18 ar
    34   17   39 1
    35   18   19 ar
    36   18   25 1
    37   19   20 ar
    38   19   24 1
    39   20   21 ar
    40   20   40 1
    41   21   22 1
    42   22   23 1
    43   22   41 1
    44   22   42 1
    45   23   43 1
    46   23   44 1
    47   23   47 1
    48   24   45 1
    49   25   46 1
    50   47   48 1
    51   47   49 1
@<TRIPOS>MOLECULE
ZINC02017274
   49    51     0     0     0
SMALL
USER_CHARGES

@<TRIPOS>ATOM
      1 C1         -0.0173    1.4248    0.0099 C.3       1 <0>         0.0214
      2 O1          0.0021   -0.0041    0.0020 O.3       1 <0>        -0.2943
      3 C2         -1.2011   -0.6379    0.0101 C.ar      1 <0>         0.1641
      4 C3         -2.3748    0.1005    0.0195 C.ar      1 <0>        -0.2213
      5 C4         -3.5982   -0.5428    0.0277 C.ar      1 <0>        -0.0510
      6 C5         -3.6572   -1.9238    0.0266 C.ar      1 <0>        -0.2591
      7 C6         -2.4882   -2.6696    0.0172 C.ar      1 <0>         0.1629
      8 C7         -1.2561   -2.0266    0.0032 C.ar      1 <0>         0.0414
      9 O2         -0.1065   -2.7549   -0.0117 O.3       1 <0>        -0.3122
     10 C8          0.4536   -3.1089    1.2544 C.3       1 <0>         0.0344
     11 O3         -2.5472   -4.0282    0.0166 O.3       1 <0>        -0.2936
     12 C9         -3.8474   -4.6211    0.0259 C.3       1 <0>         0.0225
     13 C10        -4.8712    0.2637    0.0384 C.3       1 <0>        -0.1004
     14 C11        -5.3128    0.5387   -1.4005 C.3       1 <0>         0.0914
     15 H1         -4.4968    1.0179   -1.9414 H         1 <0>         0.1509
     16 C12        -6.5063    1.4574   -1.3866 C.ar      1 <0>        -0.1221
     17 C13        -6.5159    2.5154   -0.4889 C.ar      1 <0>        -0.1064
     18 C14        -7.5904    3.3854   -0.4443 C.ar      1 <0>         0.0985
     19 C15        -8.6675    3.1971   -1.3056 C.ar      1 <0>         0.1147
     20 C16        -8.6543    2.1400   -2.1981 C.ar      1 <0>        -0.1184
     21 C17        -7.5748    1.2705   -2.2380 C.ar      1 <0>        -0.0787
     22 C18        -7.6055    0.1278   -3.2210 C.3       1 <0>        -0.1065
     23 C19        -6.1995   -0.4496   -3.3880 C.3       1 <0>        -0.0038
     24 N1         -5.6468   -0.7298   -2.0543 N.4       1 <0>        -0.5061
     25 O4         -9.7275    4.0484   -1.2704 O.3       1 <0>        -0.4818
     26 O5         -7.5941    4.4208    0.4373 O.3       1 <0>        -0.4808
     27 H2          1.0053    1.8021    0.0021 H         1 <0>         0.1113
     28 H3         -0.5445    1.7859   -0.8732 H         1 <0>         0.0596
     29 H4         -0.5275    1.7763    0.9067 H         1 <0>         0.0614
     30 H5         -2.3329    1.1797    0.0207 H         1 <0>         0.1422
     31 H6         -4.6151   -2.4227    0.0334 H         1 <0>         0.1339
     32 H7          1.3650   -3.6864    1.0998 H         1 <0>         0.1009
     33 H8          0.6878   -2.2033    1.8141 H         1 <0>         0.0485
     34 H9         -0.2648   -3.7070    1.8151 H         1 <0>         0.0480
     35 H10        -3.7517   -5.7069    0.0243 H         1 <0>         0.1118
     36 H11        -4.3845   -4.3050    0.9202 H         1 <0>         0.0614
     37 H12        -4.3978   -4.3036   -0.8597 H         1 <0>         0.0529
     38 H13        -5.6506   -0.2944    0.5572 H         1 <0>         0.1054
     39 H14        -4.6980    1.2092    0.5523 H         1 <0>         0.1259
     40 H15        -5.6795    2.6606    0.1786 H         1 <0>         0.1465
     41 H16        -9.4887    1.9916   -2.8675 H         1 <0>         0.1471
     42 H17        -8.2750   -0.6494   -2.8524 H         1 <0>         0.1078
     43 H18        -7.9661    0.4882   -4.1845 H         1 <0>         0.1269
     44 H19        -6.2492   -1.3730   -3.9651 H         1 <0>         0.1435
     45 H20        -5.5659    0.2729   -3.9024 H         1 <0>         0.1367
     46 H21        -4.8139   -1.2920   -2.1458 H         1 <0>         0.4340
     47 H22        -9.6419    4.8079   -1.8628 H         1 <0>         0.4014
     48 H23        -7.2038    5.2346    0.0900 H         1 <0>         0.3994
     49 H24        -6.3309   -1.2246   -1.5018 H         1 <0>         0.4278
@<TRIPOS>BOND
     1    1    2 1
     2    1   27 1
     3    1   28 1
     4    1   29 1
     5    2    3 1
     6    3    8 ar
     7    3    4 ar
     8    4    5 ar
     9    4   30 1
    10    5    6 ar
    11    5   13 1
    12    6    7 ar
    13    6   31 1
    14    7    8 ar
    15    7   11 1
    16    8    9 1
    17    9   10 1
    18   10   32 1
    19   10   33 1
    20   10   34 1
    21   11   12 1
    22   12   35 1
    23   12   36 1
    24   12   37 1
    25   13   14 1
    26   13   38 1
    27   13   39 1
    28   14   15 1
    29   14   24 1
    30   14   16 1
    31   16   21 ar
    32   16   17 ar
    33   17   18 ar
    34   17   40 1
    35   18   19 ar
    36   18   26 1
    37   19   20 ar
    38   19   25 1
    39   20   21 ar
    40   20   41 1
    41   21   22 1
    42   22   23 1
    43   22   42 1
    44   22   43 1
    45   23   24 1
    46   23   44 1
    47   23   45 1
    48   24   46 1
    49   24   49 1
    50   25   47 1
    51   26   48 1
@<TRIPOS>MOLECULE
ZINC02017274
   48    50     0     0     0
SMALL
USER_CHARGES

@<TRIPOS>ATOM
      1 C1         -0.0173    1.4248    0.0099 C.3       1 <0>         0.0248
      2 O1          0.0021   -0.0041    0.0020 O.3       1 <0>        -0.3024
      3 C2         -1.2011   -0.6379    0.0101 C.ar      1 <0>         0.1516
      4 C3         -2.3748    0.1005    0.0195 C.ar      1 <0>        -0.2326
      5 C4         -3.5982   -0.5428    0.0277 C.ar      1 <0>        -0.0109
      6 C5         -3.6572   -1.9238    0.0266 C.ar      1 <0>        -0.2255
      7 C6         -2.4882   -2.6696    0.0172 C.ar      1 <0>         0.1521
      8 C7         -1.2561   -2.0266    0.0032 C.ar      1 <0>         0.0238
      9 O2         -0.1065   -2.7549   -0.0117 O.3       1 <0>        -0.3130
     10 C8          0.4536   -3.1089    1.2544 C.3       1 <0>         0.0352
     11 O3         -2.5472   -4.0282    0.0166 O.3       1 <0>        -0.3024
     12 C9         -3.8474   -4.6211    0.0259 C.3       1 <0>         0.0241
     13 C10        -4.8712    0.2637    0.0384 C.3       1 <0>        -0.0754
     14 C11        -5.3128    0.5387   -1.4005 C.3       1 <0>         0.1371
     15 H1         -4.4970    1.0179   -1.9418 H         1 <0>         0.0558
     16 C12        -6.5074    1.4565   -1.3872 C.ar      1 <0>        -0.0674
     17 C13        -6.5056    2.5267   -0.5035 C.ar      1 <0>        -0.1267
     18 C14        -7.5779    3.3990   -0.4581 C.ar      1 <0>         0.0784
     19 C15        -8.6649    3.2007   -1.3048 C.ar      1 <0>         0.0842
     20 C16        -8.6632    2.1315   -2.1824 C.ar      1 <0>        -0.1321
     21 C17        -7.5859    1.2583   -2.2226 C.ar      1 <0>        -0.0554
     22 C18        -7.6363    0.1018   -3.1881 C.3       1 <0>        -0.0777
     23 C19        -6.2355   -0.4796   -3.3804 C.3       1 <0>         0.0533
     24 N1         -5.6482   -0.7299   -2.0546 N.3       1 <0>        -0.6789
     25 O4         -9.7230    4.0543   -1.2698 O.3       1 <0>        -0.4876
     26 O5         -7.5707    4.4455    0.4104 O.3       1 <0>        -0.4868
     27 H2          1.0053    1.8021    0.0021 H         1 <0>         0.1035
     28 H3         -0.5445    1.7859   -0.8732 H         1 <0>         0.0571
     29 H4         -0.5275    1.7763    0.9067 H         1 <0>         0.0574
     30 H5         -2.3329    1.1797    0.0207 H         1 <0>         0.1337
     31 H6         -4.6151   -2.4227    0.0334 H         1 <0>         0.1421
     32 H7          1.3650   -3.6864    1.0998 H         1 <0>         0.0926
     33 H8          0.6878   -2.2033    1.8141 H         1 <0>         0.0436
     34 H9         -0.2648   -3.7070    1.8151 H         1 <0>         0.0442
     35 H10        -4.3845   -4.3050    0.9202 H         1 <0>         0.0578
     36 H11        -4.3978   -4.3036   -0.8597 H         1 <0>         0.0604
     37 H12        -3.7517   -5.7069    0.0243 H         1 <0>         0.1027
     38 H13        -5.6506   -0.2944    0.5572 H         1 <0>         0.0905
     39 H14        -4.6980    1.2092    0.5523 H         1 <0>         0.0844
     40 H15        -5.6613    2.6795    0.1525 H         1 <0>         0.1351
     41 H16        -9.5052    1.9758   -2.8406 H         1 <0>         0.1340
     42 H17        -8.2974   -0.6700   -2.7941 H         1 <0>         0.0880
     43 H18        -8.0190    0.4484   -4.1481 H         1 <0>         0.0801
     44 H19        -6.3004   -1.4157   -3.9349 H         1 <0>         0.0837
     45 H20        -5.6159    0.2311   -3.9273 H         1 <0>         0.0384
     46 H21        -9.6427    4.8053   -1.8736 H         1 <0>         0.3878
     47 H22        -7.1830    5.2541    0.0486 H         1 <0>         0.3869
     48 H23        -4.8370   -1.3257   -2.1257 H         1 <0>         0.3503
@<TRIPOS>BOND
     1    1    2 1
     2    1   27 1
     3    1   28 1
     4    1   29 1
     5    2    3 1
     6    3    8 ar
     7    3    4 ar
     8    4    5 ar
     9    4   30 1
    10    5    6 ar
    11    5   13 1
    12    6    7 ar
    13    6   31 1
    14    7    8 ar
    15    7   11 1
    16    8    9 1
    17    9   10 1
    18   10   32 1
    19   10   33 1
    20   10   34 1
    21   11   12 1
    22   12   35 1
    23   12   36 1
    24   12   37 1
    25   13   14 1
    26   13   38 1
    27   13   39 1
    28   14   15 1
    29   14   24 1
    30   14   16 1
    31   16   21 ar
    32   16   17 ar
    33   17   18 ar
    34   17   40 1
    35   18   19 ar
    36   18   26 1
    37   19   20 ar
    38   19   25 1
    39   20   21 ar
    40   20   41 1
    41   21   22 1
    42   22   23 1
    43   22   42 1
    44   22   43 1
    45   23   24 1
    46   23   44 1
    47   23   45 1
    48   24   48 1
    49   25   46 1
    50   26   47 1
@<TRIPOS>MOLECULE
ZINC05996397
   26    26     0     0     0
SMALL
USER_CHARGES
2-fluoro-3-(1-hydroxy-2-methylamino-ethyl)-phenol
@<TRIPOS>ATOM
      1 C1          3.4944    1.6317   -1.2560 C.3       1 <0>        -0.0436
      2 C2          1.4227    1.6154   -0.0028 C.3       1 <0>        -0.0394
      3 C3         -0.0127    1.0858    0.0080 C.3       1 <0>         0.1366
      4 H1          0.0021   -0.0041    0.0020 H         1 <0>         0.1354
      5 C4         -0.7181    1.5718    1.2479 C.ar      1 <0>        -0.1631
      6 C5         -1.4916    2.7173    1.1990 C.ar      1 <0>        -0.0876
      7 C6         -2.1405    3.1651    2.3342 C.ar      1 <0>        -0.1005
      8 C7         -2.0185    2.4694    3.5223 C.ar      1 <0>        -0.0993
      9 C8         -1.2439    1.3211    3.5759 C.ar      1 <0>         0.0878
     10 C9         -0.5963    0.8691    2.4327 C.ar      1 <0>         0.0847
     11 F1          0.1550   -0.2528    2.4796 F         1 <0>        -0.1284
     12 O1         -1.1225    0.6353    4.7436 O.3       1 <0>        -0.4846
     13 O2         -0.7038    1.5592   -1.1497 O.3       1 <0>        -0.5431
     14 H2          3.9803    1.2663   -2.1607 H         1 <0>         0.1285
     15 H3          3.4940    2.7217   -1.2587 H         1 <0>         0.1229
     16 H4          4.0359    1.2708   -0.3816 H         1 <0>         0.1234
     17 H5          1.4079    2.7053    0.0031 H         1 <0>         0.1389
     18 H6          1.9499    1.2543    0.8802 H         1 <0>         0.1432
     19 H7         -1.5890    3.2626    0.2719 H         1 <0>         0.1390
     20 H8         -2.7441    4.0597    2.2927 H         1 <0>         0.1460
     21 H9         -2.5261    2.8205    4.4086 H         1 <0>         0.1501
     22 H10        -1.7937   -0.0494    4.8691 H         1 <0>         0.4032
     23 H11        -0.7557    2.5229   -1.2101 H         1 <0>         0.3897
     24 N1          2.1058    1.1355   -1.2190 N.4       1 <0>        -0.5150
     25 H12         2.1129    0.1088   -1.2207 H         1 <0>         0.4369
     26 H13         1.6024    1.4756   -2.0467 H         1 <0>         0.4384
@<TRIPOS>BOND
     1    1   14 1
     2    1   15 1
     3    1   16 1
     4    1   24 1
     5    2    3 1
     6    2   17 1
     7    2   18 1
     8    2   24 1
     9    3    4 1
    10    3    5 1
    11    3   13 1
    12    5   10 ar
    13    5    6 ar
    14    6    7 ar
    15    6   19 1
    16    7    8 ar
    17    7   20 1
    18    8    9 ar
    19    8   21 1
    20    9   10 ar
    21    9   12 1
    22   10   11 1
    23   12   22 1
    24   13   23 1
    25   24   25 1
    26   24   26 1
@<TRIPOS>MOLECULE
ZINC05996428
   26    26     0     0     0
SMALL
USER_CHARGES
2-fluoro-3-(1-hydroxy-2-methylamino-ethyl)-phenol
@<TRIPOS>ATOM
      1 C1         -0.0178    1.4648    0.0101 C.3       1 <0>        -0.0436
      2 C2         -1.3620   -0.5491    0.0121 C.3       1 <0>        -0.0390
      3 C3         -1.3005   -2.0779    0.0033 C.3       1 <0>         0.1368
      4 H1         -0.7050   -2.4126   -0.8460 H         1 <0>         0.1345
      5 C4         -2.6956   -2.6361   -0.1102 C.ar      1 <0>        -0.1630
      6 C5         -3.3873   -3.0050    1.0292 C.ar      1 <0>        -0.0872
      7 C6         -4.6692   -3.5121    0.9288 C.ar      1 <0>        -0.1004
      8 C7         -5.2599   -3.6627   -0.3117 C.ar      1 <0>        -0.0993
      9 C8         -4.5680   -3.2995   -1.4567 C.ar      1 <0>         0.0878
     10 C9         -3.2816   -2.7846   -1.3540 C.ar      1 <0>         0.0840
     11 F1         -2.6043   -2.4291   -2.4676 F         1 <0>        -0.1288
     12 O1         -5.1473   -3.4465   -2.6779 O.3       1 <0>        -0.4847
     13 O2         -0.7008   -2.5374    1.2162 O.3       1 <0>        -0.5426
     14 H2          1.0047    1.8421    0.0024 H         1 <0>         0.1285
     15 H3         -0.5450    1.8259   -0.8730 H         1 <0>         0.1234
     16 H4         -0.5280    1.8163    0.9069 H         1 <0>         0.1230
     17 H5         -1.8815   -0.2116    0.9089 H         1 <0>         0.1393
     18 H6         -1.8985   -0.2020   -0.8709 H         1 <0>         0.1425
     19 H7         -2.9266   -2.8925    1.9995 H         1 <0>         0.1393
     20 H8         -5.2084   -3.7954    1.8207 H         1 <0>         0.1461
     21 H9         -6.2600   -4.0628   -0.3889 H         1 <0>         0.1501
     22 H10        -4.9833   -4.3057   -3.0902 H         1 <0>         0.4033
     23 H11        -1.1787   -2.2757    2.0151 H         1 <0>         0.3901
     24 N1          0.0110   -0.0100    0.0019 N.4       1 <0>        -0.5156
     25 H12         0.5120   -0.3437    0.8337 H         1 <0>         0.4390
     26 H13         0.4960   -0.3346   -0.8429 H         1 <0>         0.4367
@<TRIPOS>BOND
     1    1   14 1
     2    1   15 1
     3    1   16 1
     4    1   24 1
     5    2    3 1
     6    2   17 1
     7    2   18 1
     8    2   24 1
     9    3    4 1
    10    3    5 1
    11    3   13 1
    12    5   10 ar
    13    5    6 ar
    14    6    7 ar
    15    6   19 1
    16    7    8 ar
    17    7   20 1
    18    8    9 ar
    19    8   21 1
    20    9   10 ar
    21    9   12 1
    22   10   11 1
    23   12   22 1
    24   13   23 1
    25   24   25 1
    26   24   26 1
@<TRIPOS>MOLECULE
ZINC00405262
   31    31     0     0     0
SMALL
USER_CHARGES
1-(3,4-dichlorophenyl)-2-isopropylamino-ethanol
@<TRIPOS>ATOM
      1 C1         -0.0589    6.1653   -3.4138 C.3       1 <0>        -0.1848
      2 C2          1.3339    6.1160   -2.7826 C.3       1 <0>         0.0270
      3 C3          1.9227    7.5274   -2.7354 C.3       1 <0>        -0.1858
      4 C4          1.2549    4.1122   -1.4256 C.3       1 <0>        -0.0402
      5 C5          1.1497    3.5933    0.0099 C.3       1 <0>         0.1365
      6 H1          0.2175    3.9414    0.4546 H         1 <0>         0.1361
      7 C6          1.1707    2.0865    0.0021 C.ar      1 <0>        -0.1286
      8 C7          2.3777    1.4123   -0.0130 C.ar      1 <0>        -0.0907
      9 C8          2.3983    0.0305   -0.0206 C.ar      1 <0>        -0.0898
     10 C9          1.2107   -0.6791   -0.0131 C.ar      1 <0>        -0.0180
     11 C10         0.0021   -0.0041    0.0020 C.ar      1 <0>        -0.0301
     12 C11        -0.0167    1.3792    0.0096 C.ar      1 <0>        -0.0820
     13 Cl1        -1.4891   -0.8929    0.0109 Cl        1 <0>        -0.0258
     14 Cl2         1.2360   -2.4149   -0.0233 Cl        1 <0>        -0.0237
     15 O1          2.2538    4.0811    0.7748 O.3       1 <0>        -0.5442
     16 H2          0.0149    6.5622   -4.4263 H         1 <0>         0.1072
     17 H3         -0.4784    5.1598   -3.4474 H         1 <0>         0.0796
     18 H4         -0.7055    6.8090   -2.8174 H         1 <0>         0.0834
     19 H5          1.9805    5.4723   -3.3789 H         1 <0>         0.1376
     20 H6          2.9150    7.4922   -2.2857 H         1 <0>         0.0824
     21 H7          1.9965    7.9243   -3.7479 H         1 <0>         0.1074
     22 H8          1.2762    8.1711   -2.1391 H         1 <0>         0.0830
     23 H9          2.1872    3.7641   -1.8704 H         1 <0>         0.1373
     24 H10         0.4128    3.7402   -2.0091 H         1 <0>         0.1443
     25 H11         3.3050    1.9659   -0.0189 H         1 <0>         0.1392
     26 H12         3.3415   -0.4955   -0.0328 H         1 <0>         0.1527
     27 H13        -0.9592    1.9065    0.0169 H         1 <0>         0.1478
     28 H14         3.1177    3.8095    0.4358 H         1 <0>         0.3894
     29 N1          1.2337    5.5871   -1.4092 N.4       1 <0>        -0.5149
     30 H15         0.3553    5.9085   -0.9857 H         1 <0>         0.4322
     31 H16         2.0268    5.9311   -0.8551 H         1 <0>         0.4356
@<TRIPOS>BOND
     1    1    2 1
     2    1   16 1
     3    1   17 1
     4    1   18 1
     5    2    3 1
     6    2   19 1
     7    2   29 1
     8    3   20 1
     9    3   21 1
    10    3   22 1
    11    4    5 1
    12    4   23 1
    13    4   24 1
    14    4   29 1
    15    5    6 1
    16    5    7 1
    17    5   15 1
    18    7   12 ar
    19    7    8 ar
    20    8    9 ar
    21    8   25 1
    22    9   10 ar
    23    9   26 1
    24   10   11 ar
    25   10   14 1
    26   11   12 ar
    27   11   13 1
    28   12   27 1
    29   15   28 1
    30   29   30 1
    31   29   31 1
@<TRIPOS>MOLECULE
ZINC00405263
   31    31     0     0     0
SMALL
USER_CHARGES
1-(3,4-dichlorophenyl)-2-isopropylamino-ethanol
@<TRIPOS>ATOM
      1 C1         -6.3278   -0.3294    2.7310 C.3       1 <0>        -0.1859
      2 C2         -4.8357   -0.0028    2.8195 C.3       1 <0>         0.0268
      3 C3         -4.1198   -1.0989    3.6113 C.3       1 <0>        -0.1844
      4 C4         -3.0733    0.9245    1.4422 C.3       1 <0>        -0.0408
      5 C5         -2.5137    0.9784    0.0192 C.3       1 <0>         0.1368
      6 H1         -2.3327   -0.0352   -0.3386 H         1 <0>         0.1362
      7 C6         -1.2195    1.7504    0.0173 C.ar      1 <0>        -0.1287
      8 C7         -0.0126    1.0758    0.0080 C.ar      1 <0>        -0.0838
      9 C8          1.1750    1.7827    0.0004 C.ar      1 <0>        -0.0910
     10 C9          1.1567    3.1660    0.0076 C.ar      1 <0>        -0.0179
     11 C10        -0.0517    3.8414    0.0223 C.ar      1 <0>        -0.0292
     12 C11        -1.2396    3.1322    0.0298 C.ar      1 <0>        -0.0885
     13 Cl1        -0.0764    5.5772    0.0307 Cl        1 <0>        -0.0264
     14 Cl2         2.6482    4.0544   -0.0013 Cl        1 <0>        -0.0237
     15 O1         -3.4556    1.6254   -0.8388 O.3       1 <0>        -0.5443
     16 H2         -6.4609   -1.2870    2.2277 H         1 <0>         0.0829
     17 H3         -6.7477   -0.3853    3.7353 H         1 <0>         0.1074
     18 H4         -6.8378    0.4515    2.1669 H         1 <0>         0.0825
     19 H5         -4.7025    0.9549    3.3227 H         1 <0>         0.1376
     20 H6         -4.2529   -2.0566    3.1080 H         1 <0>         0.0833
     21 H7         -3.0567   -0.8662    3.6743 H         1 <0>         0.0795
     22 H8         -4.5396   -1.1548    4.6156 H         1 <0>         0.1072
     23 H9         -2.3201    0.5119    2.1135 H         1 <0>         0.1445
     24 H10        -3.3374    1.9309    1.7671 H         1 <0>         0.1369
     25 H11         0.0021   -0.0041    0.0020 H         1 <0>         0.1450
     26 H12         2.1174    1.2551   -0.0107 H         1 <0>         0.1533
     27 H13        -2.1826    3.6585    0.0413 H         1 <0>         0.1418
     28 H14        -3.6645    2.5333   -0.5798 H         1 <0>         0.3901
     29 N1         -4.2739    0.0675    1.4573 N.4       1 <0>        -0.5153
     30 H15        -4.9776    0.4592    0.8205 H         1 <0>         0.4362
     31 H16        -4.0194   -0.8775    1.1468 H         1 <0>         0.4318
@<TRIPOS>BOND
     1    1    2 1
     2    1   16 1
     3    1   17 1
     4    1   18 1
     5    2    3 1
     6    2   19 1
     7    2   29 1
     8    3   20 1
     9    3   21 1
    10    3   22 1
    11    4    5 1
    12    4   23 1
    13    4   24 1
    14    4   29 1
    15    5    6 1
    16    5    7 1
    17    5   15 1
    18    7   12 ar
    19    7    8 ar
    20    8    9 ar
    21    8   25 1
    22    9   10 ar
    23    9   26 1
    24   10   11 ar
    25   10   14 1
    26   11   12 ar
    27   11   13 1
    28   12   27 1
    29   15   28 1
    30   29   30 1
    31   29   31 1
@<TRIPOS>MOLECULE
ZINC13834247
   24    24     0     0     0
SMALL
USER_CHARGES
4-[(1S)-2-amino-1-hydroxy-ethyl]-3,6-difluoro-benzene-1,2-diol
@<TRIPOS>ATOM
      1 C1          3.1231    2.3984    1.1848 C.ar      1 <0>        -0.1080
      2 C2          3.7409    2.6948   -0.0165 C.ar      1 <0>        -0.1458
      3 C3          3.1051    2.4130   -1.2127 C.ar      1 <0>         0.0934
      4 C4          1.8449    1.8314   -1.2086 C.ar      1 <0>         0.0899
      5 C5          1.2242    1.5331   -0.0014 C.ar      1 <0>         0.0992
      6 C6          1.8646    1.8233    1.1953 C.ar      1 <0>         0.0955
      7 F1          1.2613    1.5396    2.3704 F         1 <0>        -0.1109
      8 O1         -0.0110    0.9628    0.0073 O.3       1 <0>        -0.4713
      9 O2          1.2186    1.5534   -2.3840 O.3       1 <0>        -0.4692
     10 F2          3.7107    2.7045   -2.3847 F         1 <0>        -0.1188
     11 C7          5.1092    3.3263   -0.0227 C.3       1 <0>         0.1365
     12 H1          5.6798    2.9488   -0.8712 H         1 <0>         0.1411
     13 C8          4.9691    4.8456   -0.1377 C.3       1 <0>        -0.0375
     14 O3          5.7894    3.0012    1.1913 O.3       1 <0>        -0.5404
     15 H2          3.6220    2.6203    2.1166 H         1 <0>         0.1574
     16 H3          0.0021   -0.0041    0.0020 H         1 <0>         0.4117
     17 H4          0.6672    2.2749   -2.7161 H         1 <0>         0.4078
     18 H5          4.3737    5.0900   -1.0173 H         1 <0>         0.1479
     19 H6          4.4765    5.2336    0.7538 H         1 <0>         0.1423
     20 H7          6.8037    5.0608   -1.0469 H         1 <0>         0.4404
     21 H8          6.2356    6.4558   -0.3418 H         1 <0>         0.4438
     22 H9          5.3374    3.3074    1.9895 H         1 <0>         0.3917
     23 N1          6.3113    5.4449   -0.2421 N.4       1 <0>        -0.6413
     24 H10         6.8435    5.2311    0.6096 H         1 <0>         0.4444
@<TRIPOS>BOND
     1    1    6 ar
     2    1    2 ar
     3    1   15 1
     4    2    3 ar
     5    2   11 1
     6    3    4 ar
     7    3   10 1
     8    4    5 ar
     9    4    9 1
    10    5    6 ar
    11    5    8 1
    12    6    7 1
    13    8   16 1
    14    9   17 1
    15   11   12 1
    16   11   13 1
    17   11   14 1
    18   13   18 1
    19   13   19 1
    20   13   23 1
    21   14   22 1
    22   20   23 1
    23   21   23 1
    24   23   24 1
@<TRIPOS>MOLECULE
ZINC13834248
   24    24     0     0     0
SMALL
USER_CHARGES
4-[(1R)-2-amino-1-hydroxy-ethyl]-3,6-difluoro-benzene-1,2-diol
@<TRIPOS>ATOM
      1 C1          3.1235    2.3975    1.1848 C.ar      1 <0>        -0.1088
      2 C2          3.7409    2.6948   -0.0165 C.ar      1 <0>        -0.1455
      3 C3          3.1051    2.4130   -1.2127 C.ar      1 <0>         0.0938
      4 C4          1.8449    1.8314   -1.2086 C.ar      1 <0>         0.0897
      5 C5          1.2242    1.5331   -0.0014 C.ar      1 <0>         0.0993
      6 C6          1.8646    1.8233    1.1953 C.ar      1 <0>         0.0956
      7 F1          1.2613    1.5396    2.3704 F         1 <0>        -0.1109
      8 O1         -0.0110    0.9628    0.0073 O.3       1 <0>        -0.4699
      9 O2          1.2186    1.5534   -2.3840 O.3       1 <0>        -0.4713
     10 F2          3.7107    2.7045   -2.3847 F         1 <0>        -0.1186
     11 C7          5.1092    3.3263   -0.0227 C.3       1 <0>         0.1368
     12 H1          5.1858    4.0191   -0.8607 H         1 <0>         0.1413
     13 C8          6.1735    2.2362   -0.1633 C.3       1 <0>        -0.0384
     14 O3          5.3122    4.0352    1.2014 O.3       1 <0>        -0.5408
     15 H2          3.6227    2.6188    2.1166 H         1 <0>         0.1573
     16 H3          0.0021   -0.0041    0.0020 H         1 <0>         0.4102
     17 H4          0.6672    2.2749   -2.7161 H         1 <0>         0.4101
     18 H5          6.0969    1.5434    0.6748 H         1 <0>         0.1445
     19 H6          6.0186    1.6955   -1.0970 H         1 <0>         0.1465
     20 H7          7.6506    3.4121    0.6575 H         1 <0>         0.4418
     21 H8          8.2282    2.1519   -0.2612 H         1 <0>         0.4438
     22 H9          5.2578    3.4798    1.9912 H         1 <0>         0.3916
     23 N1          7.5053    2.8661   -0.1901 N.4       1 <0>        -0.6409
     24 H10         7.5680    3.4884   -1.0044 H         1 <0>         0.4427
@<TRIPOS>BOND
     1    1    6 ar
     2    1    2 ar
     3    1   15 1
     4    2    3 ar
     5    2   11 1
     6    3    4 ar
     7    3   10 1
     8    4    5 ar
     9    4    9 1
    10    5    6 ar
    11    5    8 1
    12    6    7 1
    13    8   16 1
    14    9   17 1
    15   11   12 1
    16   11   13 1
    17   11   14 1
    18   13   18 1
    19   13   19 1
    20   13   23 1
    21   14   22 1
    22   20   23 1
    23   21   23 1
    24   23   24 1
@<TRIPOS>MOLECULE
ZINC00575232
   51    52     0     0     0
SMALL
USER_CHARGES

@<TRIPOS>ATOM
      1 C1         -0.0187    1.5258    0.0104 C.3       1 <0>        -0.1842
      2 C2          0.0021   -0.0041    0.0020 C.3       1 <0>         0.0285
      3 H1         -1.0205   -0.3814    0.0098 H         1 <0>         0.1411
      4 C3          0.7421   -0.5109    1.2415 C.3       1 <0>        -0.0935
      5 C4          0.6567   -2.0144    1.2978 C.ar      1 <0>        -0.1663
      6 C5         -0.3968   -2.6218    1.9557 C.ar      1 <0>        -0.0611
      7 C6         -0.4771   -3.9998    2.0091 C.ar      1 <0>        -0.1339
      8 C7          0.5003   -4.7745    1.4014 C.ar      1 <0>         0.1487
      9 C8          1.5561   -4.1627    0.7414 C.ar      1 <0>        -0.2016
     10 C9          1.6291   -2.7842    0.6865 C.ar      1 <0>        -0.0968
     11 O1          0.4238   -6.1304    1.4528 O.3       1 <0>        -0.2884
     12 C10         1.4651   -6.8639    0.8051 C.3       1 <0>         0.0679
     13 C11         1.2138   -8.3411    0.9660 C.2       1 <0>         0.4586
     14 O2          0.2427   -8.7262    1.5730 O.2       1 <0>        -0.4759
     15 O3          2.0689   -9.2291    0.4349 O.3       1 <0>        -0.3484
     16 C12         1.7688  -10.6131    0.6259 C.3       1 <0>         0.0337
     17 N1          0.6897   -0.4778   -1.2066 N.4       1 <0>        -0.5049
     18 C13        -0.0856   -0.0931   -2.3936 C.3       1 <0>        -0.0472
     19 C14         0.6305   -0.5866   -3.6524 C.3       1 <0>         0.1368
     20 H2          0.7239   -1.6719   -3.6155 H         1 <0>         0.1327
     21 C15        -0.1648   -0.1919   -4.8701 C.ar      1 <0>        -0.1295
     22 C16         0.0056    1.0603   -5.4309 C.ar      1 <0>        -0.1033
     23 C17        -0.7235    1.4230   -6.5478 C.ar      1 <0>        -0.0961
     24 C18        -1.6238    0.5339   -7.1044 C.ar      1 <0>        -0.0913
     25 C19        -1.7948   -0.7190   -6.5438 C.ar      1 <0>        -0.0311
     26 C20        -1.0601   -1.0838   -5.4293 C.ar      1 <0>        -0.0950
     27 Cl1        -2.9253   -1.8360   -7.2423 Cl        1 <0>        -0.0478
     28 O4          1.9312    0.0013   -3.7219 O.3       1 <0>        -0.5451
     29 H3          1.0039    1.9031    0.0027 H         1 <0>         0.0841
     30 H4         -0.5459    1.8868   -0.8726 H         1 <0>         0.0817
     31 H5         -0.5289    1.8773    0.9072 H         1 <0>         0.1090
     32 H6          1.7879   -0.2080    1.1895 H         1 <0>         0.0977
     33 H7          0.2852   -0.0874    2.1360 H         1 <0>         0.1218
     34 H8         -1.1575   -2.0183    2.4286 H         1 <0>         0.1390
     35 H9         -1.2999   -4.4738    2.5237 H         1 <0>         0.1434
     36 H10         2.3183   -4.7635    0.2676 H         1 <0>         0.1393
     37 H11         2.4485   -2.3075    0.1691 H         1 <0>         0.1274
     38 H12         1.4820   -6.6116   -0.2551 H         1 <0>         0.1106
     39 H13         2.4242   -6.6074    1.2550 H         1 <0>         0.1122
     40 H14         1.7413  -10.8350    1.6928 H         1 <0>         0.0667
     41 H15         0.7990  -10.8391    0.1827 H         1 <0>         0.0662
     42 H16         2.5372  -11.2208    0.1482 H         1 <0>         0.1115
     43 H17         1.6080   -0.0627   -1.2556 H         1 <0>         0.4282
     44 H18        -1.0777   -0.5415   -2.3406 H         1 <0>         0.1451
     45 H19        -0.1790    0.9922   -2.4305 H         1 <0>         0.1407
     46 H20         0.7084    1.7555   -4.9960 H         1 <0>         0.1299
     47 H21        -0.5899    2.4013   -6.9854 H         1 <0>         0.1425
     48 H22        -2.1940    0.8177   -7.9767 H         1 <0>         0.1433
     49 H23        -1.1899   -2.0635   -4.9938 H         1 <0>         0.1382
     50 H24         1.9246    0.9676   -3.7575 H         1 <0>         0.3886
     51 H25         0.7761   -1.4825   -1.1724 H         1 <0>         0.4263
@<TRIPOS>BOND
     1    1    2 1
     2    1   29 1
     3    1   30 1
     4    1   31 1
     5    2    3 1
     6    2    4 1
     7    2   17 1
     8    4    5 1
     9    4   32 1
    10    4   33 1
    11    5   10 ar
    12    5    6 ar
    13    6    7 ar
    14    6   34 1
    15    7    8 ar
    16    7   35 1
    17    8    9 ar
    18    8   11 1
    19    9   10 ar
    20    9   36 1
    21   10   37 1
    22   11   12 1
    23   12   13 1
    24   12   38 1
    25   12   39 1
    26   13   14 2
    27   13   15 1
    28   15   16 1
    29   16   40 1
    30   16   41 1
    31   16   42 1
    32   17   18 1
    33   17   43 1
    34   17   51 1
    35   18   19 1
    36   18   44 1
    37   18   45 1
    38   19   20 1
    39   19   21 1
    40   19   28 1
    41   21   26 ar
    42   21   22 ar
    43   22   23 ar
    44   22   46 1
    45   23   24 ar
    46   23   47 1
    47   24   25 ar
    48   24   48 1
    49   25   26 ar
    50   25   27 1
    51   26   49 1
    52   28   50 1
@<TRIPOS>MOLECULE
ZINC00020248
   46    48     0     0     0
SMALL
USER_CHARGES

@<TRIPOS>ATOM
      1 C1         -5.6600    1.3618    0.4597 C.3       1 <0>        -0.0474
      2 N1         -5.6471   -0.0878    0.2218 N.4       1 <0>        -0.3867
      3 C2         -6.3574   -0.3850   -1.0293 C.3       1 <0>        -0.0523
      4 C3         -4.2581   -0.5548    0.1191 C.3       1 <0>        -0.0083
      5 C4         -4.2405   -2.0797   -0.0038 C.3       1 <0>        -0.1741
      6 C5         -2.7938   -2.5661   -0.1108 C.3       1 <0>         0.1309
      7 N2         -2.7704   -4.0309   -0.1190 N.pl3     1 <0>        -0.5935
      8 C6         -2.7303   -4.6837   -1.3451 C.ar      1 <0>         0.1859
      9 C7         -1.8260   -4.1660   -2.2811 C.ar      1 <0>        -0.1574
     10 C8         -1.6797   -4.7476   -3.5192 C.ar      1 <0>        -0.0952
     11 C9         -2.4365   -5.8609   -3.8384 C.ar      1 <0>        -0.1332
     12 C10        -3.3330   -6.3646   -2.9249 C.ar      1 <0>        -0.0999
     13 C11        -3.5037   -5.7750   -1.6688 C.ar      1 <0>        -0.1089
     14 C12        -4.5743   -6.4166   -0.8216 C.3       1 <0>        -0.0721
     15 C13        -4.9918   -5.6033    0.3783 C.3       1 <0>        -0.0690
     16 C14        -3.8887   -5.4681    1.3836 C.ar      1 <0>        -0.0980
     17 C15        -2.7839   -4.6994    1.1019 C.ar      1 <0>         0.1741
     18 C16        -1.7322   -4.5882    1.9998 C.ar      1 <0>        -0.1187
     19 C17        -1.8086   -5.2524    3.2126 C.ar      1 <0>        -0.0223
     20 C18        -2.9248   -6.0132    3.5136 C.ar      1 <0>        -0.1131
     21 C19        -3.9754   -6.1256    2.6005 C.ar      1 <0>        -0.0889
     22 Cl1        -0.5058   -5.1313    4.3535 Cl        1 <0>        -0.0554
     23 H1         -6.6906    1.7083    0.5359 H         1 <0>         0.1247
     24 H2         -5.1330    1.5823    1.3879 H         1 <0>         0.1236
     25 H3         -5.1660    1.8703   -0.3683 H         1 <0>         0.1224
     26 H4         -5.8633    0.1235   -1.8572 H         1 <0>         0.1230
     27 H5         -6.3478   -1.4606   -1.2058 H         1 <0>         0.1233
     28 H6         -7.3880   -0.0385   -0.9531 H         1 <0>         0.1247
     29 H7         -3.7907   -0.1139   -0.7614 H         1 <0>         0.1315
     30 H8         -3.7074   -0.2558    1.0110 H         1 <0>         0.1322
     31 H9         -4.7079   -2.5206    0.8766 H         1 <0>         0.0896
     32 H10        -4.7912   -2.3787   -0.8957 H         1 <0>         0.0908
     33 H11        -2.3515   -2.1905   -1.0335 H         1 <0>         0.0902
     34 H12        -2.2229   -2.1984    0.7418 H         1 <0>         0.0815
     35 H13        -1.2357   -3.2979   -2.0274 H         1 <0>         0.1217
     36 H14        -0.9815   -4.3392   -4.2348 H         1 <0>         0.1273
     37 H15        -2.3238   -6.3333   -4.8030 H         1 <0>         0.1262
     38 H16        -3.9182   -7.2346   -3.1839 H         1 <0>         0.1241
     39 H17        -5.4518   -6.5884   -1.4450 H         1 <0>         0.0825
     40 H18        -4.2074   -7.3823   -0.4739 H         1 <0>         0.0763
     41 H19        -5.2905   -4.6094    0.0453 H         1 <0>         0.0673
     42 H20        -5.8457   -6.0866    0.8532 H         1 <0>         0.0790
     43 H21        -0.8653   -3.9919    1.7562 H         1 <0>         0.1372
     44 H22        -2.9858   -6.5230    4.4638 H         1 <0>         0.1382
     45 H23        -4.8449   -6.7215    2.8354 H         1 <0>         0.1390
     46 H24        -6.1044   -0.5585    0.9882 H         1 <0>         0.4269
@<TRIPOS>BOND
     1    1    2 1
     2    1   23 1
     3    1   24 1
     4    1   25 1
     5    2    3 1
     6    2    4 1
     7    2   46 1
     8    3   26 1
     9    3   27 1
    10    3   28 1
    11    4    5 1
    12    4   29 1
    13    4   30 1
    14    5    6 1
    15    5   31 1
    16    5   32 1
    17    6    7 1
    18    6   33 1
    19    6   34 1
    20    7   17 1
    21    7    8 1
    22    8   13 ar
    23    8    9 ar
    24    9   10 ar
    25    9   35 1
    26   10   11 ar
    27   10   36 1
    28   11   12 ar
    29   11   37 1
    30   12   13 ar
    31   12   38 1
    32   13   14 1
    33   14   15 1
    34   14   39 1
    35   14   40 1
    36   15   16 1
    37   15   41 1
    38   15   42 1
    39   16   21 ar
    40   16   17 ar
    41   17   18 ar
    42   18   19 ar
    43   18   43 1
    44   19   20 ar
    45   19   22 1
    46   20   21 ar
    47   20   44 1
    48   21   45 1
@<TRIPOS>MOLECULE
ZINC11422476
   27    27     0     0     0
SMALL
USER_CHARGES
3-fluoro-4-(1-hydroxy-2-methylamino-ethyl)-benzene-1,2-diol
@<TRIPOS>ATOM
      1 C1         -0.0178    1.4648    0.0101 C.3       1 <0>        -0.0435
      2 C2          0.6835   -0.5147   -1.1950 C.3       1 <0>        -0.0394
      3 C3          0.6842   -2.0445   -1.1679 C.3       1 <0>         0.1377
      4 H1         -0.3433   -2.4081   -1.1518 H         1 <0>         0.1363
      5 C4          1.3832   -2.5684   -2.3958 C.ar      1 <0>        -0.1744
      6 C5          2.7268   -2.8900   -2.3406 C.ar      1 <0>        -0.0682
      7 C6          3.3711   -3.3762   -3.4626 C.ar      1 <0>        -0.1313
      8 C7          2.6736   -3.5320   -4.6505 C.ar      1 <0>         0.1346
      9 C8          1.3237   -3.2037   -4.7093 C.ar      1 <0>         0.0559
     10 C9          0.6804   -2.7214   -3.5784 C.ar      1 <0>         0.1037
     11 F1         -0.6309   -2.4009   -3.6317 F         1 <0>        -0.1241
     12 O1          0.6353   -3.3547   -5.8731 O.3       1 <0>        -0.4704
     13 O2          3.3084   -4.0056   -5.7561 O.3       1 <0>        -0.4769
     14 O3          1.3689   -2.4999    0.0008 O.3       1 <0>        -0.5421
     15 H2          1.0047    1.8421    0.0024 H         1 <0>         0.1229
     16 H3         -0.5450    1.8259   -0.8730 H         1 <0>         0.1232
     17 H4         -0.5280    1.8163    0.9069 H         1 <0>         0.1286
     18 H5          0.1612   -0.1674   -2.0864 H         1 <0>         0.1425
     19 H6          1.7110   -0.1512   -1.2111 H         1 <0>         0.1390
     20 H7          3.2732   -2.7648   -1.4175 H         1 <0>         0.1444
     21 H8          4.4196   -3.6307   -3.4151 H         1 <0>         0.1522
     22 H9          0.6475   -2.5725   -6.4416 H         1 <0>         0.3968
     23 H10         3.7029   -3.3168   -6.3084 H         1 <0>         0.4023
     24 H11         2.2910   -2.2132    0.0532 H         1 <0>         0.3895
     25 N1         -0.0022   -0.0103    0.0096 N.4       1 <0>        -0.5154
     26 H12        -0.9677   -0.3592    0.0209 H         1 <0>         0.4373
     27 H13         0.4921   -0.3440    0.8454 H         1 <0>         0.4389
@<TRIPOS>BOND
     1    1   15 1
     2    1   16 1
     3    1   17 1
     4    1   25 1
     5    2    3 1
     6    2   18 1
     7    2   19 1
     8    2   25 1
     9    3    4 1
    10    3    5 1
    11    3   14 1
    12    5   10 ar
    13    5    6 ar
    14    6    7 ar
    15    6   20 1
    16    7    8 ar
    17    7   21 1
    18    8    9 ar
    19    8   13 1
    20    9   10 ar
    21    9   12 1
    22   10   11 1
    23   12   22 1
    24   13   23 1
    25   14   24 1
    26   25   26 1
    27   25   27 1
@<TRIPOS>MOLECULE
ZINC00056652
   33    33     0     0     0
SMALL
USER_CHARGES

@<TRIPOS>ATOM
      1 C1         -0.0187    1.5258    0.0104 C.3       1 <0>        -0.1867
      2 C2          0.0021   -0.0041    0.0020 C.3       1 <0>         0.0237
      3 C3          0.7182   -0.4975   -1.2568 C.3       1 <0>        -0.1847
      4 N1          0.7126   -0.4907    1.1921 N.4       1 <0>        -0.5036
      5 C4         -0.0398   -0.1189    2.3978 C.3       1 <0>        -0.0470
      6 C5          0.7001   -0.6257    3.6373 C.3       1 <0>         0.1381
      7 H1          1.6931   -0.1778    3.6761 H         1 <0>         0.1328
      8 C6         -0.0717   -0.2443    4.8741 C.ar      1 <0>        -0.1371
      9 C7         -1.0976   -1.0545    5.3242 C.ar      1 <0>        -0.0979
     10 C8         -1.8086   -0.7090    6.4582 C.ar      1 <0>        -0.1233
     11 C9         -1.4934    0.4515    7.1468 C.ar      1 <0>         0.1046
     12 C10        -0.4606    1.2667    6.6941 C.ar      1 <0>         0.0899
     13 C11         0.2513    0.9121    5.5594 C.ar      1 <0>        -0.1137
     14 O1         -0.1475    2.4066    7.3664 O.3       1 <0>        -0.4846
     15 O2         -2.1922    0.7931    8.2624 O.3       1 <0>        -0.4850
     16 O3          0.8214   -2.0480    3.5713 O.3       1 <0>        -0.5470
     17 H2          1.0039    1.9031    0.0027 H         1 <0>         0.0830
     18 H3         -0.5459    1.8868   -0.8726 H         1 <0>         0.1073
     19 H4         -0.5289    1.8773    0.9072 H         1 <0>         0.0808
     20 H5         -1.0205   -0.3814    0.0098 H         1 <0>         0.1384
     21 H6          1.7408   -0.1202   -1.2645 H         1 <0>         0.0824
     22 H7          0.7330   -1.5874   -1.2628 H         1 <0>         0.0825
     23 H8          0.1910   -0.1364   -2.1398 H         1 <0>         0.1075
     24 H9          0.7982   -1.4950    1.1455 H         1 <0>         0.4316
     25 H10        -0.1324    0.9660    2.4481 H         1 <0>         0.1461
     26 H11        -1.0328   -0.5668    2.3589 H         1 <0>         0.1375
     27 H12        -1.3442   -1.9592    4.7884 H         1 <0>         0.1307
     28 H13        -2.6100   -1.3433    6.8073 H         1 <0>         0.1434
     29 H14         1.0558    1.5412    5.2081 H         1 <0>         0.1386
     30 H15         0.5171    2.2853    8.0583 H         1 <0>         0.3970
     31 H16        -1.8205    0.4407    9.0826 H         1 <0>         0.3989
     32 H17        -0.0252   -2.5137    3.5341 H         1 <0>         0.3888
     33 H18         1.6317   -0.0761    1.2281 H         1 <0>         0.4270
@<TRIPOS>BOND
     1    1    2 1
     2    1   17 1
     3    1   18 1
     4    1   19 1
     5    2    3 1
     6    2    4 1
     7    2   20 1
     8    3   21 1
     9    3   22 1
    10    3   23 1
    11    4    5 1
    12    4   24 1
    13    4   33 1
    14    5    6 1
    15    5   25 1
    16    5   26 1
    17    6    7 1
    18    6    8 1
    19    6   16 1
    20    8   13 ar
    21    8    9 ar
    22    9   10 ar
    23    9   27 1
    24   10   11 ar
    25   10   28 1
    26   11   12 ar
    27   11   15 1
    28   12   13 ar
    29   12   14 1
    30   13   29 1
    31   14   30 1
    32   15   31 1
    33   16   32 1
@<TRIPOS>MOLECULE
ZINC00056653
   33    33     0     0     0
SMALL
USER_CHARGES

@<TRIPOS>ATOM
      1 C1         -0.0187    1.5258    0.0104 C.3       1 <0>        -0.1860
      2 C2          0.0021   -0.0041    0.0020 C.3       1 <0>         0.0236
      3 C3          0.7182   -0.4975   -1.2568 C.3       1 <0>        -0.1851
      4 N1          0.7126   -0.4907    1.1921 N.4       1 <0>        -0.5047
      5 C4         -0.0398   -0.1189    2.3978 C.3       1 <0>        -0.0461
      6 C5          0.7001   -0.6257    3.6373 C.3       1 <0>         0.1376
      7 H1          0.8710   -1.6983    3.5452 H         1 <0>         0.1318
      8 C6         -0.1305   -0.3530    4.8648 C.ar      1 <0>        -0.1366
      9 C7         -0.1412    0.9117    5.4233 C.ar      1 <0>        -0.0991
     10 C8         -0.9016    1.1669    6.5493 C.ar      1 <0>        -0.1234
     11 C9         -1.6555    0.1542    7.1203 C.ar      1 <0>         0.1047
     12 C10        -1.6451   -1.1185    6.5578 C.ar      1 <0>         0.0901
     13 C11        -0.8845   -1.3664    5.4264 C.ar      1 <0>        -0.1130
     14 O1         -2.3834   -2.1157    7.1146 O.3       1 <0>        -0.4824
     15 O2         -2.4037    0.4035    8.2282 O.3       1 <0>        -0.4834
     16 O3          1.9549    0.0485    3.7518 O.3       1 <0>        -0.5453
     17 H2          1.0039    1.9031    0.0027 H         1 <0>         0.0832
     18 H3         -0.5459    1.8868   -0.8726 H         1 <0>         0.1072
     19 H4         -0.5289    1.8773    0.9072 H         1 <0>         0.0796
     20 H5         -1.0205   -0.3814    0.0098 H         1 <0>         0.1387
     21 H6          1.7408   -0.1202   -1.2645 H         1 <0>         0.0826
     22 H7          0.7330   -1.5874   -1.2628 H         1 <0>         0.0827
     23 H8          0.1910   -0.1364   -2.1398 H         1 <0>         0.1075
     24 H9          0.7982   -1.4950    1.1455 H         1 <0>         0.4292
     25 H10        -0.1324    0.9660    2.4481 H         1 <0>         0.1385
     26 H11        -1.0328   -0.5668    2.3589 H         1 <0>         0.1439
     27 H12         0.4460    1.7018    4.9792 H         1 <0>         0.1304
     28 H13        -0.9077    2.1555    6.9841 H         1 <0>         0.1435
     29 H14        -0.8776   -2.3524    4.9857 H         1 <0>         0.1390
     30 H15        -3.2817   -2.1833    6.7632 H         1 <0>         0.3947
     31 H16        -3.3050    0.6967    8.0364 H         1 <0>         0.3972
     32 H17         1.8791    1.0087    3.8375 H         1 <0>         0.3889
     33 H18         1.6317   -0.0761    1.2281 H         1 <0>         0.4305
@<TRIPOS>BOND
     1    1    2 1
     2    1   17 1
     3    1   18 1
     4    1   19 1
     5    2    3 1
     6    2    4 1
     7    2   20 1
     8    3   21 1
     9    3   22 1
    10    3   23 1
    11    4    5 1
    12    4   24 1
    13    4   33 1
    14    5    6 1
    15    5   25 1
    16    5   26 1
    17    6    7 1
    18    6    8 1
    19    6   16 1
    20    8   13 ar
    21    8    9 ar
    22    9   10 ar
    23    9   27 1
    24   10   11 ar
    25   10   28 1
    26   11   12 ar
    27   11   15 1
    28   12   13 ar
    29   12   14 1
    30   13   29 1
    31   14   30 1
    32   15   31 1
    33   16   32 1
@<TRIPOS>MOLECULE
ZINC13807918
   27    27     0     0     0
SMALL
USER_CHARGES
3-fluoro-4-[(1S)-1-hydroxy-2-methylamino-ethyl]benzene-1,2-diol
@<TRIPOS>ATOM
      1 C1         -3.2287   -2.3834    2.8133 C.3       1 <0>        -0.0438
      2 C2         -1.6544   -1.1502    1.4482 C.3       1 <0>        -0.0399
      3 C3         -1.2934   -0.7739    0.0098 C.3       1 <0>         0.1385
      4 H1         -1.1812   -1.6800   -0.5856 H         1 <0>         0.1351
      5 C4          0.0021   -0.0041    0.0020 C.ar      1 <0>        -0.1746
      6 C5         -0.0167    1.3784    0.0096 C.ar      1 <0>        -0.0677
      7 C6          1.1688    2.0891    0.0021 C.ar      1 <0>        -0.1313
      8 C7          2.3809    1.4165   -0.0132 C.ar      1 <0>         0.1346
      9 C8          2.4017    0.0261   -0.0208 C.ar      1 <0>         0.0559
     10 C9          1.2086   -0.6823   -0.0132 C.ar      1 <0>         0.1034
     11 F1          1.2245   -2.0331   -0.0210 F         1 <0>        -0.1246
     12 O1          3.5889   -0.6380   -0.0362 O.3       1 <0>        -0.4726
     13 O2          3.5476    2.1153   -0.0201 O.3       1 <0>        -0.4785
     14 O3         -2.3318    0.0355   -0.5457 O.3       1 <0>        -0.5424
     15 H2         -2.4093   -2.9338    3.2759 H         1 <0>         0.1235
     16 H3         -3.4387   -1.4866    3.3962 H         1 <0>         0.1232
     17 H4         -4.1177   -3.0133    2.7826 H         1 <0>         0.1285
     18 H5         -0.8242   -1.6920    1.9013 H         1 <0>         0.1428
     19 H6         -1.8535   -0.2449    2.0216 H         1 <0>         0.1398
     20 H7         -0.9599    1.9044    0.0169 H         1 <0>         0.1446
     21 H8          1.1508    3.1689    0.0081 H         1 <0>         0.1521
     22 H9          3.9235   -0.8250   -0.9240 H         1 <0>         0.3992
     23 H10         3.8769    2.3221   -0.9055 H         1 <0>         0.4039
     24 H11        -2.4872    0.8603   -0.0654 H         1 <0>         0.3903
     25 N1         -2.8569   -2.0046    1.4371 N.4       1 <0>        -0.5155
     26 H12        -3.6338   -1.4903    1.0057 H         1 <0>         0.4390
     27 H13        -2.6642   -2.8535    0.8925 H         1 <0>         0.4366
@<TRIPOS>BOND
     1    1   15 1
     2    1   16 1
     3    1   17 1
     4    1   25 1
     5    2    3 1
     6    2   18 1
     7    2   19 1
     8    2   25 1
     9    3    4 1
    10    3    5 1
    11    3   14 1
    12    5   10 ar
    13    5    6 ar
    14    6    7 ar
    15    6   20 1
    16    7    8 ar
    17    7   21 1
    18    8    9 ar
    19    8   13 1
    20    9   10 ar
    21    9   12 1
    22   10   11 1
    23   12   22 1
    24   13   23 1
    25   14   24 1
    26   25   26 1
    27   25   27 1
@<TRIPOS>MOLECULE
ZINC01530741
   42    44     0     0     0
SMALL
USER_CHARGES

@<TRIPOS>ATOM
      1 C1         -0.0178    1.4648    0.0101 C.3       1 <0>        -0.0473
      2 N1          0.0021   -0.0041    0.0020 N.4       1 <0>        -0.5104
      3 C2         -1.3761   -0.5125    0.0124 C.3       1 <0>        -0.0075
      4 C3         -1.3553   -2.0424    0.0040 C.3       1 <0>        -0.1205
      5 C4         -2.7691   -2.5640    0.0147 C.2       1 <0>        -0.1701
      6 C5         -3.1759   -3.4141   -0.9354 C.2       1 <0>         0.0084
      7 C6         -2.2617   -3.8737   -2.0162 C.ar      1 <0>        -0.0603
      8 C7         -1.0502   -4.4584   -1.6510 C.ar      1 <0>        -0.1120
      9 C8         -0.1817   -4.9254   -2.6144 C.ar      1 <0>        -0.1225
     10 C9         -0.5309   -4.8091   -3.9481 C.ar      1 <0>        -0.1072
     11 C10        -1.7216   -4.2226   -4.3099 C.ar      1 <0>        -0.1263
     12 C11        -2.6129   -3.7258   -3.3561 C.ar      1 <0>        -0.0535
     13 C12        -3.8344   -3.0498   -3.9297 C.3       1 <0>        -0.0765
     14 C13        -4.7567   -2.4533   -2.8869 C.3       1 <0>        -0.0806
     15 C14        -5.3648   -3.4987   -1.9877 C.ar      1 <0>        -0.0737
     16 C15        -4.5615   -3.9515   -0.9605 C.ar      1 <0>        -0.0697
     17 C16        -5.0352   -4.8627   -0.0270 C.ar      1 <0>        -0.0955
     18 C17        -6.3272   -5.3414   -0.1696 C.ar      1 <0>        -0.1191
     19 C18        -7.1195   -4.9199   -1.2225 C.ar      1 <0>        -0.1080
     20 C19        -6.6408   -3.9814   -2.1491 C.ar      1 <0>        -0.1083
     21 H1          1.0047    1.8421    0.0024 H         1 <0>         0.1266
     22 H2         -0.5450    1.8259   -0.8730 H         1 <0>         0.1232
     23 H3         -0.5280    1.8163    0.9069 H         1 <0>         0.1239
     24 H4          0.4744   -0.3295   -0.8281 H         1 <0>         0.4301
     25 H5         -1.8863   -0.1610    0.9092 H         1 <0>         0.1332
     26 H6         -1.9033   -0.1515   -0.8706 H         1 <0>         0.1314
     27 H7         -0.8451   -2.3939   -0.8928 H         1 <0>         0.0991
     28 H8         -0.8281   -2.4035    0.8871 H         1 <0>         0.0962
     29 H9         -3.4541   -2.2517    0.7892 H         1 <0>         0.1310
     30 H10        -0.7900   -4.5458   -0.6065 H         1 <0>         0.1235
     31 H11         0.7582   -5.3762   -2.3319 H         1 <0>         0.1290
     32 H12         0.1367   -5.1814   -4.7112 H         1 <0>         0.1265
     33 H13        -1.9733   -4.1443   -5.3573 H         1 <0>         0.1247
     34 H14        -3.5084   -2.2546   -4.6003 H         1 <0>         0.0855
     35 H15        -4.3952   -3.7815   -4.5113 H         1 <0>         0.0834
     36 H16        -4.1905   -1.7497   -2.2766 H         1 <0>         0.0703
     37 H17        -5.5577   -1.9136   -3.3920 H         1 <0>         0.0793
     38 H18        -4.4114   -5.1904    0.7915 H         1 <0>         0.1267
     39 H19        -6.7188   -6.0491    0.5460 H         1 <0>         0.1278
     40 H20        -8.1181   -5.3161   -1.3327 H         1 <0>         0.1275
     41 H21        -7.2557   -3.6486   -2.9723 H         1 <0>         0.1315
     42 H22         0.4901   -0.3383    0.8195 H         1 <0>         0.4302
@<TRIPOS>BOND
     1    1    2 1
     2    1   21 1
     3    1   22 1
     4    1   23 1
     5    2    3 1
     6    2   24 1
     7    2   42 1
     8    3    4 1
     9    3   25 1
    10    3   26 1
    11    4    5 1
    12    4   27 1
    13    4   28 1
    14    5    6 2
    15    5   29 1
    16    6   16 1
    17    6    7 1
    18    7   12 ar
    19    7    8 ar
    20    8    9 ar
    21    8   30 1
    22    9   10 ar
    23    9   31 1
    24   10   11 ar
    25   10   32 1
    26   11   12 ar
    27   11   33 1
    28   12   13 1
    29   13   14 1
    30   13   34 1
    31   13   35 1
    32   14   15 1
    33   14   36 1
    34   14   37 1
    35   15   20 ar
    36   15   16 ar
    37   16   17 ar
    38   17   18 ar
    39   17   38 1
    40   18   19 ar
    41   18   39 1
    42   19   20 ar
    43   19   40 1
    44   20   41 1
@<TRIPOS>MOLECULE
ZINC00056645
   39    40     0     0     0
SMALL
USER_CHARGES

@<TRIPOS>ATOM
      1 C1         -0.0187    1.5258    0.0104 C.3       1 <0>        -0.1852
      2 C2          0.0021   -0.0041    0.0020 C.3       1 <0>         0.0237
      3 C3          0.7421   -0.5109    1.2415 C.3       1 <0>        -0.1864
      4 N1         -1.3761   -0.5125    0.0124 N.4       1 <0>        -0.5019
      5 C4         -1.3591   -1.9758   -0.1163 C.3       1 <0>        -0.0457
      6 C5         -2.7945   -2.5054   -0.1054 C.3       1 <0>         0.0864
      7 H1         -3.3474   -2.0736   -0.9397 H         1 <0>         0.1352
      8 C6         -2.7769   -4.0294   -0.2395 C.3       1 <0>         0.0296
      9 O1         -4.1170   -4.5137   -0.3464 O.3       1 <0>        -0.2971
     10 C7         -4.2793   -5.8568   -0.4731 C.ar      1 <0>         0.1684
     11 C8         -3.1787   -6.6919   -0.4886 C.ar      1 <0>        -0.2422
     12 C9         -3.3422   -8.0637   -0.6174 C.ar      1 <0>        -0.0618
     13 C10        -4.5995   -8.6149   -0.7320 C.ar      1 <0>        -0.1564
     14 C11        -5.7235   -7.7942   -0.7190 C.ar      1 <0>         0.1320
     15 C12        -5.5633   -6.4043   -0.5830 C.ar      1 <0>        -0.1321
     16 C13        -6.9136   -5.8364   -0.5977 C.2       1 <0>        -0.1885
     17 C14        -7.7690   -6.8622   -0.7292 C.2       1 <0>         0.0493
     18 N2         -7.0752   -8.0399   -0.8117 N.pl3     1 <0>        -0.5917
     19 H2         -7.4766   -8.9175   -0.9103 H         1 <0>         0.4219
     20 O2         -3.4268   -2.1426    1.1237 O.3       1 <0>        -0.5433
     21 H3          1.0039    1.9031    0.0027 H         1 <0>         0.1080
     22 H4         -0.5459    1.8868   -0.8726 H         1 <0>         0.0830
     23 H5         -0.5289    1.8773    0.9072 H         1 <0>         0.0828
     24 H6          0.5123   -0.3556   -0.8948 H         1 <0>         0.1398
     25 H7          0.2319   -0.1594    2.1383 H         1 <0>         0.0832
     26 H8          0.7568   -1.6008    1.2356 H         1 <0>         0.0799
     27 H9          1.7647   -0.1336    1.2338 H         1 <0>         0.1077
     28 H10        -1.8225   -0.2564    0.8803 H         1 <0>         0.4311
     29 H11        -0.8769   -2.2525   -1.0538 H         1 <0>         0.1466
     30 H12        -0.8062   -2.4075    0.7180 H         1 <0>         0.1403
     31 H13        -2.2171   -4.3091   -1.1320 H         1 <0>         0.0816
     32 H14        -2.3018   -4.4659    0.6390 H         1 <0>         0.0765
     33 H15        -2.1864   -6.2749   -0.4005 H         1 <0>         0.1238
     34 H16        -2.4743   -8.7063   -0.6282 H         1 <0>         0.1313
     35 H17        -4.7130   -9.6842   -0.8324 H         1 <0>         0.1261
     36 H18        -7.1717   -4.7908   -0.5174 H         1 <0>         0.1484
     37 H19        -8.8443   -6.7714   -0.7728 H         1 <0>         0.1757
     38 H20        -2.9873   -2.4932    1.9105 H         1 <0>         0.3894
     39 H21        -1.8879   -0.1129   -0.7598 H         1 <0>         0.4306
@<TRIPOS>BOND
     1    1    2 1
     2    1   21 1
     3    1   22 1
     4    1   23 1
     5    2    3 1
     6    2    4 1
     7    2   24 1
     8    3   25 1
     9    3   26 1
    10    3   27 1
    11    4    5 1
    12    4   28 1
    13    4   39 1
    14    5    6 1
    15    5   29 1
    16    5   30 1
    17    6    7 1
    18    6    8 1
    19    6   20 1
    20    8    9 1
    21    8   31 1
    22    8   32 1
    23    9   10 1
    24   10   15 ar
    25   10   11 ar
    26   11   12 ar
    27   11   33 1
    28   12   13 ar
    29   12   34 1
    30   13   14 ar
    31   13   35 1
    32   14   18 1
    33   14   15 ar
    34   15   16 1
    35   16   17 2
    36   16   36 1
    37   17   18 1
    38   17   37 1
    39   18   19 1
    40   20   38 1
@<TRIPOS>MOLECULE
ZINC00056646
   39    40     0     0     0
SMALL
USER_CHARGES

@<TRIPOS>ATOM
      1 C1         -0.0187    1.5258    0.0104 C.3       1 <0>        -0.1852
      2 C2          0.0021   -0.0041    0.0020 C.3       1 <0>         0.0239
      3 C3          0.7421   -0.5109    1.2415 C.3       1 <0>        -0.1868
      4 N1         -1.3761   -0.5125    0.0124 N.4       1 <0>        -0.5024
      5 C4         -1.3591   -1.9758   -0.1163 C.3       1 <0>        -0.0454
      6 C5         -2.7945   -2.5054   -0.1054 C.3       1 <0>         0.0867
      7 H1         -3.3047   -2.1538    0.7914 H         1 <0>         0.1341
      8 C6         -2.7738   -4.0352   -0.1138 C.3       1 <0>         0.0295
      9 O1         -4.1082   -4.5304    0.0137 O.3       1 <0>        -0.2971
     10 C7         -4.2671   -5.8798    0.0235 C.ar      1 <0>         0.1684
     11 C8         -3.1678   -6.7103   -0.0810 C.ar      1 <0>        -0.2422
     12 C9         -3.3278   -8.0885   -0.0707 C.ar      1 <0>        -0.0618
     13 C10        -4.5803   -8.6507    0.0429 C.ar      1 <0>        -0.1565
     14 C11        -5.7029   -7.8349    0.1494 C.ar      1 <0>         0.1321
     15 C12        -5.5453   -6.4381    0.1453 C.ar      1 <0>        -0.1321
     16 C13        -6.8920   -5.8771    0.2779 C.2       1 <0>        -0.1885
     17 C14        -7.7423   -6.9125    0.3564 C.2       1 <0>         0.0493
     18 N2         -7.0501   -8.0912    0.2728 N.pl3     1 <0>        -0.5917
     19 H2         -7.4485   -8.9750    0.3061 H         1 <0>         0.4219
     20 O2         -3.4857   -2.0320   -1.2631 O.3       1 <0>        -0.5429
     21 H3          1.0039    1.9031    0.0027 H         1 <0>         0.1080
     22 H4         -0.5459    1.8868   -0.8726 H         1 <0>         0.0830
     23 H5         -0.5289    1.8773    0.9072 H         1 <0>         0.0827
     24 H6          0.5123   -0.3556   -0.8948 H         1 <0>         0.1393
     25 H7          0.2319   -0.1594    2.1383 H         1 <0>         0.0834
     26 H8          0.7568   -1.6008    1.2356 H         1 <0>         0.0805
     27 H9          1.7647   -0.1336    1.2338 H         1 <0>         0.1077
     28 H10        -1.8225   -0.2564    0.8803 H         1 <0>         0.4282
     29 H11        -0.8769   -2.2525   -1.0538 H         1 <0>         0.1400
     30 H12        -0.8062   -2.4075    0.7180 H         1 <0>         0.1468
     31 H13        -2.3435   -4.3876   -1.0513 H         1 <0>         0.0770
     32 H14        -2.1714   -4.3950    0.7203 H         1 <0>         0.0812
     33 H15        -2.1794   -6.2847   -0.1714 H         1 <0>         0.1238
     34 H16        -2.4610   -8.7275   -0.1530 H         1 <0>         0.1313
     35 H17        -4.6912   -9.7250    0.0489 H         1 <0>         0.1261
     36 H18        -7.1514   -4.8291    0.3075 H         1 <0>         0.1484
     37 H19        -8.8140   -6.8286    0.4605 H         1 <0>         0.1757
     38 H20        -3.0863   -2.3073   -2.0996 H         1 <0>         0.3901
     39 H21        -1.8879   -0.1129   -0.7598 H         1 <0>         0.4336
@<TRIPOS>BOND
     1    1    2 1
     2    1   21 1
     3    1   22 1
     4    1   23 1
     5    2    3 1
     6    2    4 1
     7    2   24 1
     8    3   25 1
     9    3   26 1
    10    3   27 1
    11    4    5 1
    12    4   28 1
    13    4   39 1
    14    5    6 1
    15    5   29 1
    16    5   30 1
    17    6    7 1
    18    6    8 1
    19    6   20 1
    20    8    9 1
    21    8   31 1
    22    8   32 1
    23    9   10 1
    24   10   15 ar
    25   10   11 ar
    26   11   12 ar
    27   11   33 1
    28   12   13 ar
    29   12   34 1
    30   13   14 ar
    31   13   35 1
    32   14   18 1
    33   14   15 ar
    34   15   16 1
    35   16   17 2
    36   16   36 1
    37   17   18 1
    38   17   37 1
    39   18   19 1
    40   20   38 1
@<TRIPOS>MOLECULE
ZINC12356005
   47    48     0     0     0
SMALL
USER_CHARGES
(2R)-1-(4-methoxyphenyl)-N-(3-phenylpropyl)propan-2-amine
@<TRIPOS>ATOM
      1 C1         -1.8858    0.6243   -4.0014 C.3       1 <0>        -0.1819
      2 C2         -0.7492    1.5874   -3.6528 C.3       1 <0>         0.0327
      3 H1         -1.1572    2.5829   -3.4782 H         1 <0>         0.1388
      4 C3          0.2476    1.6409   -4.8123 C.3       1 <0>        -0.0952
      5 C4          1.3005    2.6793   -4.5221 C.ar      1 <0>        -0.1687
      6 C5          1.1130    3.9859   -4.9336 C.ar      1 <0>        -0.0606
      7 C6          2.0741    4.9409   -4.6638 C.ar      1 <0>        -0.1985
      8 C7          3.2332    4.5856   -3.9894 C.ar      1 <0>         0.1470
      9 C8          3.4214    3.2727   -3.5825 C.ar      1 <0>        -0.1415
     10 C9          2.4548    2.3227   -3.8497 C.ar      1 <0>        -0.1030
     11 O1          4.1824    5.5222   -3.7273 O.3       1 <0>        -0.3107
     12 C10         3.9213    6.8536   -4.1757 C.3       1 <0>         0.0223
     13 C11        -0.7527    1.5927   -1.2315 C.3       1 <0>        -0.0068
     14 C12        -0.0127    1.0858    0.0080 C.3       1 <0>        -0.1455
     15 C13        -0.7288    1.5792    1.2668 C.3       1 <0>        -0.0724
     16 C14         0.0000    1.0800    2.4877 C.ar      1 <0>        -0.1010
     17 C15        -0.3473   -0.1331    3.0522 C.ar      1 <0>        -0.1154
     18 C16         0.3245   -0.5933    4.1692 C.ar      1 <0>        -0.1156
     19 C17         1.3369    0.1643    4.7277 C.ar      1 <0>        -0.1131
     20 C18         1.6804    1.3801    4.1666 C.ar      1 <0>        -0.1154
     21 C19         1.0121    1.8378    3.0465 C.ar      1 <0>        -0.1154
     22 H2         -2.5960    0.5862   -3.1754 H         1 <0>         0.0819
     23 H3         -2.3934    0.9719   -4.9012 H         1 <0>         0.1071
     24 H4         -1.4778   -0.3712   -4.1760 H         1 <0>         0.0832
     25 H5          0.7213    0.6662   -4.9295 H         1 <0>         0.0967
     26 H6         -0.2773    1.9026   -5.7310 H         1 <0>         0.1194
     27 H7          0.2125    4.2611   -5.4625 H         1 <0>         0.1326
     28 H8          1.9252    5.9623   -4.9816 H         1 <0>         0.1379
     29 H9          4.3227    2.9937   -3.0569 H         1 <0>         0.1403
     30 H10         2.6007    1.3005   -3.5328 H         1 <0>         0.1286
     31 H11         4.7562    7.4991   -3.9030 H         1 <0>         0.1098
     32 H12         3.7998    6.8549   -5.2589 H         1 <0>         0.0617
     33 H13         3.0088    7.2224   -3.7073 H         1 <0>         0.0603
     34 H14        -1.7753    1.2154   -1.2238 H         1 <0>         0.1324
     35 H15        -0.7675    2.6825   -1.2255 H         1 <0>         0.1303
     36 H16         0.0021   -0.0041    0.0020 H         1 <0>         0.0892
     37 H17         1.0099    1.4631    0.0003 H         1 <0>         0.0881
     38 H18        -0.7436    2.6691    1.2728 H         1 <0>         0.0825
     39 H19        -1.7514    1.2020    1.2746 H         1 <0>         0.0831
     40 H20        -1.1411   -0.7231    2.6182 H         1 <0>         0.1215
     41 H21         0.0559   -1.5429    4.6078 H         1 <0>         0.1261
     42 H22         1.8593   -0.1934    5.6027 H         1 <0>         0.1265
     43 H23         2.4712    1.9722    4.6032 H         1 <0>         0.1261
     44 H24         1.2805    2.7877    2.6081 H         1 <0>         0.1212
     45 N1         -0.0563    1.1128   -2.4401 N.4       1 <0>        -0.5219
     46 H25         0.9070    1.4682   -2.4395 H         1 <0>         0.4264
     47 H26        -0.0424    0.0862   -2.4378 H         1 <0>         0.4288
@<TRIPOS>BOND
     1    1    2 1
     2    1   22 1
     3    1   23 1
     4    1   24 1
     5    2    3 1
     6    2    4 1
     7    2   45 1
     8    4    5 1
     9    4   25 1
    10    4   26 1
    11    5   10 ar
    12    5    6 ar
    13    6    7 ar
    14    6   27 1
    15    7    8 ar
    16    7   28 1
    17    8    9 ar
    18    8   11 1
    19    9   10 ar
    20    9   29 1
    21   10   30 1
    22   11   12 1
    23   12   31 1
    24   12   32 1
    25   12   33 1
    26   13   14 1
    27   13   34 1
    28   13   35 1
    29   13   45 1
    30   14   15 1
    31   14   36 1
    32   14   37 1
    33   15   16 1
    34   15   38 1
    35   15   39 1
    36   16   21 ar
    37   16   17 ar
    38   17   18 ar
    39   17   40 1
    40   18   19 ar
    41   18   41 1
    42   19   20 ar
    43   19   42 1
    44   20   21 ar
    45   20   43 1
    46   21   44 1
    47   45   46 1
    48   45   47 1
@<TRIPOS>MOLECULE
ZINC12356006
   47    48     0     0     0
SMALL
USER_CHARGES
(2S)-1-(4-methoxyphenyl)-N-(3-phenylpropyl)propan-2-amine
@<TRIPOS>ATOM
      1 C1         -0.0127    1.0858    0.0080 C.3       1 <0>        -0.1818
      2 C2         -0.7288    1.5792    1.2668 C.3       1 <0>         0.0324
      3 H1         -0.2017    1.2182    2.1499 H         1 <0>         0.1397
      4 C3         -0.7496    3.1091    1.2752 C.3       1 <0>        -0.0953
      5 C4         -1.3445    3.5963    2.5713 C.ar      1 <0>        -0.1680
      6 C5         -2.7067    3.8127    2.6671 C.ar      1 <0>        -0.1013
      7 C6         -3.2552    4.2539    3.8558 C.ar      1 <0>        -0.2001
      8 C7         -2.4366    4.4902    4.9506 C.ar      1 <0>         0.1472
      9 C8         -1.0694    4.2776    4.8502 C.ar      1 <0>        -0.1404
     10 C9         -0.5264    3.8314    3.6609 C.ar      1 <0>        -0.0624
     11 O1         -2.9731    4.9295    6.1194 O.3       1 <0>        -0.3097
     12 C10        -4.3881    5.1264    6.1502 C.3       1 <0>         0.0227
     13 C11        -2.1652   -0.2807    1.8502 C.3       1 <0>        -0.0071
     14 C12        -3.6130   -0.7752    1.8441 C.3       1 <0>        -0.1451
     15 C13        -3.6737   -2.1828    2.4408 C.3       1 <0>        -0.0727
     16 C14        -5.0997   -2.6699    2.4348 C.ar      1 <0>        -0.1008
     17 C15        -5.9169   -2.4295    3.5236 C.ar      1 <0>        -0.1157
     18 C16        -7.2264   -2.8721    3.5160 C.ar      1 <0>        -0.1156
     19 C17        -7.7159   -3.5640    2.4240 C.ar      1 <0>        -0.1131
     20 C18        -6.8971   -3.8094    1.3376 C.ar      1 <0>        -0.1154
     21 C19        -5.5891   -3.3622    1.3429 C.ar      1 <0>        -0.1154
     22 H2          0.0021   -0.0041    0.0020 H         1 <0>         0.0819
     23 H3          1.0099    1.4631    0.0003 H         1 <0>         0.1076
     24 H4         -0.5399    1.4469   -0.8751 H         1 <0>         0.0829
     25 H5          0.2682    3.4868    1.1780 H         1 <0>         0.1203
     26 H6         -1.3519    3.4689    0.4410 H         1 <0>         0.0960
     27 H7         -3.3430    3.6328    1.8132 H         1 <0>         0.1242
     28 H8         -4.3200    4.4182    3.9316 H         1 <0>         0.1372
     29 H9         -0.4300    4.4605    5.7012 H         1 <0>         0.1410
     30 H10         0.5379    3.6658    3.5822 H         1 <0>         0.1373
     31 H11        -4.6681    5.8683    5.4023 H         1 <0>         0.0610
     32 H12        -4.8909    4.1840    5.9332 H         1 <0>         0.0589
     33 H13        -4.6847    5.4772    7.1387 H         1 <0>         0.1097
     34 H14        -1.5486   -0.9544    1.2552 H         1 <0>         0.1328
     35 H15        -1.7935   -0.2573    2.8746 H         1 <0>         0.1308
     36 H16        -4.2296   -0.1015    2.4390 H         1 <0>         0.0870
     37 H17        -3.9847   -0.7986    0.8197 H         1 <0>         0.0890
     38 H18        -3.0571   -2.8565    1.8458 H         1 <0>         0.0835
     39 H19        -3.3020   -2.1594    3.4652 H         1 <0>         0.0828
     40 H20        -5.5332   -1.8925    4.3785 H         1 <0>         0.1210
     41 H21        -7.8660   -2.6807    4.3650 H         1 <0>         0.1259
     42 H22        -8.7379   -3.9131    2.4197 H         1 <0>         0.1266
     43 H23        -7.2794   -4.3503    0.4845 H         1 <0>         0.1263
     44 H24        -4.9494   -3.5540    0.4942 H         1 <0>         0.1217
     45 N1         -2.1155    1.0762    1.2736 N.4       1 <0>        -0.5218
     46 H25        -2.4703    1.0482    0.3105 H         1 <0>         0.4285
     47 H26        -2.7010    1.7048    1.8359 H         1 <0>         0.4258
@<TRIPOS>BOND
     1    1    2 1
     2    1   22 1
     3    1   23 1
     4    1   24 1
     5    2    3 1
     6    2    4 1
     7    2   45 1
     8    4    5 1
     9    4   25 1
    10    4   26 1
    11    5   10 ar
    12    5    6 ar
    13    6    7 ar
    14    6   27 1
    15    7    8 ar
    16    7   28 1
    17    8    9 ar
    18    8   11 1
    19    9   10 ar
    20    9   29 1
    21   10   30 1
    22   11   12 1
    23   12   31 1
    24   12   32 1
    25   12   33 1
    26   13   14 1
    27   13   34 1
    28   13   35 1
    29   13   45 1
    30   14   15 1
    31   14   36 1
    32   14   37 1
    33   15   16 1
    34   15   38 1
    35   15   39 1
    36   16   21 ar
    37   16   17 ar
    38   17   18 ar
    39   17   40 1
    40   18   19 ar
    41   18   41 1
    42   19   20 ar
    43   19   42 1
    44   20   21 ar
    45   20   43 1
    46   21   44 1
    47   45   46 1
    48   45   47 1
@<TRIPOS>MOLECULE
ZINC01853520
   50    52     0     0     0
SMALL
USER_CHARGES
7-(2-hydroxy-3-propylamino-propoxy)-2-phenyl-chromen-4-one
@<TRIPOS>ATOM
      1 C1        -11.0003    3.2196    0.4885 C.3       1 <0>        -0.1572
      2 C2         -9.7182    4.0440    0.3566 C.3       1 <0>        -0.1524
      3 C3         -8.5086    3.1073    0.3434 C.3       1 <0>        -0.0064
      4 C4         -6.0927    3.0306    0.2007 C.3       1 <0>        -0.0381
      5 C5         -4.8332    3.8891    0.0681 C.3       1 <0>         0.0850
      6 H1         -4.7699    4.5745    0.9133 H         1 <0>         0.1372
      7 C6         -3.5991    2.9848    0.0513 C.3       1 <0>         0.0262
      8 O1         -2.4186    3.7901    0.0448 O.3       1 <0>        -0.2932
      9 C7         -1.2280    3.1381    0.0298 C.ar      1 <0>         0.1829
     10 C8         -1.2032    1.7452    0.0172 C.ar      1 <0>        -0.2356
     11 C9         -0.0126    1.0758    0.0080 C.ar      1 <0>         0.0135
     12 C10         1.1845    1.7923    0.0004 C.ar      1 <0>        -0.2510
     13 C11         2.4891    1.1046   -0.0153 C.2       1 <0>         0.4235
     14 O2          2.5640   -0.1131   -0.0222 O.2       1 <0>        -0.4660
     15 C12         3.6507    1.9132   -0.0203 C.2       1 <0>        -0.3129
     16 C13         3.5254    3.2669   -0.0123 C.2       1 <0>         0.2138
     17 O3          2.3323    3.8813    0.0015 O.3       1 <0>        -0.2174
     18 C14         1.1691    3.1975    0.0081 C.ar      1 <0>         0.1938
     19 C15        -0.0481    3.8633    0.0229 C.ar      1 <0>        -0.1725
     20 C16         4.7493    4.0932   -0.0185 C.ar      1 <0>        -0.0801
     21 C17         6.0064    3.4848   -0.0270 C.ar      1 <0>        -0.0781
     22 C18         7.1454    4.2627   -0.0382 C.ar      1 <0>        -0.1195
     23 C19         7.0446    5.6428   -0.0293 C.ar      1 <0>        -0.0888
     24 C20         5.8024    6.2522   -0.0156 C.ar      1 <0>        -0.1230
     25 C21         4.6550    5.4866   -0.0101 C.ar      1 <0>        -0.0789
     26 O4         -4.8924    4.6369   -1.1482 O.3       1 <0>        -0.5434
     27 H2        -11.8621    3.8869    0.4979 H         1 <0>         0.0788
     28 H3        -11.0803    2.5347   -0.3557 H         1 <0>         0.0673
     29 H4        -10.9719    2.6497    1.4172 H         1 <0>         0.0674
     30 H5         -9.6382    4.7289    1.2008 H         1 <0>         0.0875
     31 H6         -9.7466    4.6139   -0.5721 H         1 <0>         0.0875
     32 H7         -8.5886    2.4224   -0.5008 H         1 <0>         0.1313
     33 H8         -8.4802    2.5374    1.2722 H         1 <0>         0.1319
     34 H9         -6.1560    2.3453   -0.6445 H         1 <0>         0.1394
     35 H10        -6.0476    2.4602    1.1285 H         1 <0>         0.1466
     36 H11        -3.6181    2.3607   -0.8422 H         1 <0>         0.0825
     37 H12        -3.6014    2.3505    0.9377 H         1 <0>         0.0876
     38 H13        -2.1305    1.1916    0.0186 H         1 <0>         0.1377
     39 H14         0.0021   -0.0041    0.0020 H         1 <0>         0.1494
     40 H15         4.6300    1.4579   -0.0303 H         1 <0>         0.1658
     41 H16        -0.0753    4.9429    0.0293 H         1 <0>         0.1547
     42 H17         6.0864    2.4078   -0.0291 H         1 <0>         0.1366
     43 H18         8.1181    3.7936   -0.0489 H         1 <0>         0.1364
     44 H19         7.9397    6.2471   -0.0335 H         1 <0>         0.1327
     45 H20         5.7310    7.3298   -0.0095 H         1 <0>         0.1334
     46 H21         3.6861    5.9635    0.0002 H         1 <0>         0.1340
     47 H22        -4.9501    4.0901   -1.9437 H         1 <0>         0.3910
     48 N1         -7.2773    3.9095    0.2162 N.4       1 <0>        -0.5141
     49 H23        -7.2098    4.5549    1.0119 H         1 <0>         0.4353
     50 H24        -7.3119    4.4467   -0.6582 H         1 <0>         0.4378
@<TRIPOS>BOND
     1    1    2 1
     2    1   27 1
     3    1   28 1
     4    1   29 1
     5    2    3 1
     6    2   30 1
     7    2   31 1
     8    3   32 1
     9    3   33 1
    10    3   48 1
    11    4    5 1
    12    4   34 1
    13    4   35 1
    14    4   48 1
    15    5    6 1
    16    5    7 1
    17    5   26 1
    18    7    8 1
    19    7   36 1
    20    7   37 1
    21    8    9 1
    22    9   19 ar
    23    9   10 ar
    24   10   11 ar
    25   10   38 1
    26   11   12 ar
    27   11   39 1
    28   12   18 ar
    29   12   13 1
    30   13   14 2
    31   13   15 1
    32   15   16 2
    33   15   40 1
    34   16   17 1
    35   16   20 1
    36   17   18 1
    37   18   19 ar
    38   19   41 1
    39   20   25 ar
    40   20   21 ar
    41   21   22 ar
    42   21   42 1
    43   22   23 ar
    44   22   43 1
    45   23   24 ar
    46   23   44 1
    47   24   25 ar
    48   24   45 1
    49   25   46 1
    50   26   47 1
    51   48   49 1
    52   48   50 1
@<TRIPOS>MOLECULE
ZINC01853521
   50    52     0     0     0
SMALL
USER_CHARGES
7-(2-hydroxy-3-propylamino-propoxy)-2-phenyl-chromen-4-one
@<TRIPOS>ATOM
      1 C1          5.7394    1.4013    2.3473 C.3       1 <0>        -0.1572
      2 C2          4.2961    0.8940    2.3250 C.3       1 <0>        -0.1524
      3 C3          3.5536    1.5205    1.1430 C.3       1 <0>        -0.0064
      4 C4          1.4227    1.6154   -0.0028 C.3       1 <0>        -0.0379
      5 C5         -0.0127    1.0858    0.0080 C.3       1 <0>         0.0852
      6 H1          0.0021   -0.0041    0.0020 H         1 <0>         0.1362
      7 C6         -0.7527    1.5927   -1.2315 C.3       1 <0>         0.0262
      8 O1         -2.0545    1.0054   -1.2824 O.3       1 <0>        -0.2932
      9 C7         -2.8468    1.3529   -2.3285 C.ar      1 <0>         0.1829
     10 C8         -2.3749    2.2499   -3.2844 C.ar      1 <0>        -0.2357
     11 C9         -3.1590    2.6041   -4.3454 C.ar      1 <0>         0.0136
     12 C10        -4.4434    2.0729   -4.4649 C.ar      1 <0>        -0.2510
     13 C11        -5.3208    2.4362   -5.5934 C.2       1 <0>         0.4235
     14 O2         -4.9523    3.2136   -6.4585 O.2       1 <0>        -0.4660
     15 C12        -6.6074    1.8477   -5.6328 C.2       1 <0>        -0.3129
     16 C13        -6.9810    0.9863   -4.6496 C.2       1 <0>         0.2137
     17 O3         -6.1734    0.6633   -3.6274 O.3       1 <0>        -0.2173
     18 C14        -4.9299    1.1718   -3.5025 C.ar      1 <0>         0.1938
     19 C15        -4.1196    0.8171   -2.4335 C.ar      1 <0>        -0.1725
     20 C16        -8.3276    0.3830   -4.7083 C.ar      1 <0>        -0.0801
     21 C17        -9.1945    0.7027   -5.7556 C.ar      1 <0>        -0.0781
     22 C18       -10.4488    0.1312   -5.8072 C.ar      1 <0>        -0.1196
     23 C19       -10.8533   -0.7479   -4.8180 C.ar      1 <0>        -0.0887
     24 C20       -10.0016   -1.0647   -3.7744 C.ar      1 <0>        -0.1230
     25 C21        -8.7423   -0.5053   -3.7136 C.ar      1 <0>        -0.0789
     26 O4         -0.6816    1.5467    1.1837 O.3       1 <0>        -0.5428
     27 H2          6.2683    0.9549    3.1894 H         1 <0>         0.0787
     28 H3          6.2364    1.1239    1.4178 H         1 <0>         0.0674
     29 H4          5.7416    2.4863    2.4508 H         1 <0>         0.0674
     30 H5          3.7990    1.1714    3.2545 H         1 <0>         0.0875
     31 H6          4.2939   -0.1911    2.2215 H         1 <0>         0.0875
     32 H7          4.0506    1.2432    0.2134 H         1 <0>         0.1319
     33 H8          3.5558    2.6056    1.2465 H         1 <0>         0.1314
     34 H9          1.9050    1.3387   -0.9404 H         1 <0>         0.1461
     35 H10         1.4101    2.7011    0.0927 H         1 <0>         0.1399
     36 H11        -0.8452    2.6775   -1.1811 H         1 <0>         0.0827
     37 H12        -0.1944    1.3168   -2.1261 H         1 <0>         0.0873
     38 H13        -1.3822    2.6641   -3.1883 H         1 <0>         0.1377
     39 H14        -2.7876    3.2964   -5.0865 H         1 <0>         0.1494
     40 H15        -7.2878    2.0815   -6.4383 H         1 <0>         0.1658
     41 H16        -4.4799    0.1255   -1.6864 H         1 <0>         0.1547
     42 H17        -8.8818    1.3924   -6.5256 H         1 <0>         0.1366
     43 H18       -11.1185    0.3741   -6.6189 H         1 <0>         0.1364
     44 H19       -11.8381   -1.1890   -4.8609 H         1 <0>         0.1327
     45 H20       -10.3236   -1.7518   -3.0059 H         1 <0>         0.1334
     46 H21        -8.0783   -0.7540   -2.8989 H         1 <0>         0.1340
     47 H22        -0.7322    2.5097    1.2555 H         1 <0>         0.3915
     48 N1          2.1637    1.0266    1.1286 N.4       1 <0>        -0.5146
     49 H23         1.7024    1.2875    2.0080 H         1 <0>         0.4383
     50 H24         2.1685    0.0042    1.0349 H         1 <0>         0.4349
@<TRIPOS>BOND
     1    1    2 1
     2    1   27 1
     3    1   28 1
     4    1   29 1
     5    2    3 1
     6    2   30 1
     7    2   31 1
     8    3   32 1
     9    3   33 1
    10    3   48 1
    11    4    5 1
    12    4   34 1
    13    4   35 1
    14    4   48 1
    15    5    6 1
    16    5    7 1
    17    5   26 1
    18    7    8 1
    19    7   36 1
    20    7   37 1
    21    8    9 1
    22    9   19 ar
    23    9   10 ar
    24   10   11 ar
    25   10   38 1
    26   11   12 ar
    27   11   39 1
    28   12   18 ar
    29   12   13 1
    30   13   14 2
    31   13   15 1
    32   15   16 2
    33   15   40 1
    34   16   17 1
    35   16   20 1
    36   17   18 1
    37   18   19 ar
    38   19   41 1
    39   20   25 ar
    40   20   21 ar
    41   21   22 ar
    42   21   42 1
    43   22   23 ar
    44   22   43 1
    45   23   24 ar
    46   23   44 1
    47   24   25 ar
    48   24   45 1
    49   25   46 1
    50   26   47 1
    51   48   49 1
    52   48   50 1
@<TRIPOS>MOLECULE
ZINC00033882
   23    23     0     0     0
SMALL
USER_CHARGES

@<TRIPOS>ATOM
      1 C1         -0.0167    1.3779    0.0096 C.ar      1 <0>        -0.1006
      2 C2          1.1696    2.0886    0.0021 C.ar      1 <0>        -0.1264
      3 C3          2.3802    1.4154   -0.0130 C.ar      1 <0>         0.0999
      4 C4          2.3990    0.0236   -0.0206 C.ar      1 <0>         0.0875
      5 C5          1.2071   -0.6822   -0.0130 C.ar      1 <0>        -0.1216
      6 C6          0.0021   -0.0041    0.0020 C.ar      1 <0>        -0.1052
      7 C7         -1.2936   -0.7736    0.0102 C.3       1 <0>        -0.1010
      8 C8         -1.7458   -1.0263   -1.4294 C.3       1 <0>        -0.0078
      9 N1         -3.0088   -1.7764   -1.4215 N.4       1 <0>        -0.6379
     10 O1          3.5850   -0.6417   -0.0359 O.3       1 <0>        -0.4857
     11 O2          3.5476    2.1129   -0.0209 O.3       1 <0>        -0.4857
     12 H1         -0.9598    1.9038    0.0259 H         1 <0>         0.1332
     13 H2          1.1522    3.1684    0.0077 H         1 <0>         0.1416
     14 H3          1.2190   -1.7621   -0.0189 H         1 <0>         0.1358
     15 H4         -1.1467   -1.7271    0.5175 H         1 <0>         0.0975
     16 H5         -2.0555   -0.1967    0.5344 H         1 <0>         0.0990
     17 H6         -1.8927   -0.0728   -1.9368 H         1 <0>         0.1365
     18 H7         -0.9839   -1.6032   -1.9536 H         1 <0>         0.1360
     19 H8         -2.8729   -2.6590   -0.9518 H         1 <0>         0.4357
     20 H9         -3.7141   -1.2424   -0.9362 H         1 <0>         0.4357
     21 H10         3.9367   -0.8389    0.8430 H         1 <0>         0.3958
     22 H11         3.8938    2.3101    0.8602 H         1 <0>         0.3975
     23 H12        -3.3071   -1.9430   -2.3709 H         1 <0>         0.4400
@<TRIPOS>BOND
     1    1    6 ar
     2    1    2 ar
     3    1   12 1
     4    2    3 ar
     5    2   13 1
     6    3    4 ar
     7    3   11 1
     8    4    5 ar
     9    4   10 1
    10    5    6 ar
    11    5   14 1
    12    6    7 1
    13    7    8 1
    14    7   15 1
    15    7   16 1
    16    8    9 1
    17    8   17 1
    18    8   18 1
    19    9   19 1
    20    9   20 1
    21    9   23 1
    22   10   21 1
    23   11   22 1
@<TRIPOS>MOLECULE
ZINC00968257
   45    47     0     0     0
SMALL
USER_CHARGES

@<TRIPOS>ATOM
      1 C1         -0.0178    1.4648    0.0101 C.3       1 <0>        -0.0532
      2 N1          0.0021   -0.0041    0.0020 N.4       1 <0>        -0.3871
      3 C2         -1.3761   -0.5125    0.0124 C.3       1 <0>        -0.0473
      4 C3          0.6897   -0.4778   -1.2066 C.3       1 <0>        -0.0075
      5 C4          2.1588   -0.0534   -1.1571 C.3       1 <0>        -0.1202
      6 C5          2.8641   -0.5394   -2.3970 C.2       1 <0>        -0.1679
      7 C6          3.5250    0.3270   -3.1738 C.2       1 <0>         0.0063
      8 C7          3.5927    1.7771   -2.8453 C.ar      1 <0>        -0.0588
      9 C8          4.0673    2.1470   -1.5880 C.ar      1 <0>        -0.1130
     10 C9          4.1752    3.4781   -1.2462 C.ar      1 <0>        -0.1230
     11 C10         3.8096    4.4415   -2.1695 C.ar      1 <0>        -0.1074
     12 C11         3.3311    4.0773   -3.4068 C.ar      1 <0>        -0.1261
     13 C12         3.1954    2.7364   -3.7740 C.ar      1 <0>        -0.0534
     14 C13         2.5869    2.5170   -5.1377 C.3       1 <0>        -0.0764
     15 C14         2.3799    1.0595   -5.4939 C.3       1 <0>        -0.0807
     16 C15         3.6776    0.3005   -5.5991 C.ar      1 <0>        -0.0737
     17 C16         4.2334   -0.1117   -4.4047 C.ar      1 <0>        -0.0690
     18 C17         5.3905   -0.8775   -4.3777 C.ar      1 <0>        -0.0956
     19 C18         6.0025   -1.1900   -5.5806 C.ar      1 <0>        -0.1191
     20 C19         5.4694   -0.7426   -6.7762 C.ar      1 <0>        -0.1081
     21 C20         4.2868    0.0121   -6.7962 C.ar      1 <0>        -0.1083
     22 H1          1.0047    1.8421    0.0024 H         1 <0>         0.1238
     23 H2         -0.5450    1.8259   -0.8730 H         1 <0>         0.1221
     24 H3         -0.5280    1.8163    0.9069 H         1 <0>         0.1250
     25 H4         -1.9033   -0.1515   -0.8706 H         1 <0>         0.1216
     26 H5         -1.3613   -1.6024    0.0065 H         1 <0>         0.1236
     27 H6         -1.8863   -0.1610    0.9092 H         1 <0>         0.1246
     28 H7          0.6270   -1.5648   -1.2578 H         1 <0>         0.1321
     29 H8          0.2158   -0.0447   -2.0875 H         1 <0>         0.1294
     30 H9          2.2214    1.0336   -1.1059 H         1 <0>         0.0996
     31 H10         2.6326   -0.4865   -0.2761 H         1 <0>         0.0954
     32 H11         2.8363   -1.5868   -2.6585 H         1 <0>         0.1308
     33 H12         4.3519    1.3857   -0.8767 H         1 <0>         0.1233
     34 H13         4.5405    3.7651   -0.2712 H         1 <0>         0.1290
     35 H14         3.9003    5.4876   -1.9168 H         1 <0>         0.1264
     36 H15         3.0534    4.8470   -4.1116 H         1 <0>         0.1247
     37 H16         1.6223    3.0233   -5.1729 H         1 <0>         0.0854
     38 H17         3.2393    2.9678   -5.8855 H         1 <0>         0.0834
     39 H18         1.7604    0.5939   -4.7274 H         1 <0>         0.0703
     40 H19         1.8587    1.0007   -6.4494 H         1 <0>         0.0792
     41 H20         5.8038   -1.2219   -3.4413 H         1 <0>         0.1267
     42 H21         6.9025   -1.7870   -5.5850 H         1 <0>         0.1278
     43 H22         5.9677   -0.9772   -7.7052 H         1 <0>         0.1274
     44 H23         3.8663    0.3630   -7.7270 H         1 <0>         0.1314
     45 H24         0.4901   -0.3383    0.8195 H         1 <0>         0.4266
@<TRIPOS>BOND
     1    1    2 1
     2    1   22 1
     3    1   23 1
     4    1   24 1
     5    2    3 1
     6    2    4 1
     7    2   45 1
     8    3   25 1
     9    3   26 1
    10    3   27 1
    11    4    5 1
    12    4   28 1
    13    4   29 1
    14    5    6 1
    15    5   30 1
    16    5   31 1
    17    6    7 2
    18    6   32 1
    19    7   17 1
    20    7    8 1
    21    8   13 ar
    22    8    9 ar
    23    9   10 ar
    24    9   33 1
    25   10   11 ar
    26   10   34 1
    27   11   12 ar
    28   11   35 1
    29   12   13 ar
    30   12   36 1
    31   13   14 1
    32   14   15 1
    33   14   37 1
    34   14   38 1
    35   15   16 1
    36   15   39 1
    37   15   40 1
    38   16   21 ar
    39   16   17 ar
    40   17   18 ar
    41   18   19 ar
    42   18   41 1
    43   19   20 ar
    44   19   42 1
    45   20   21 ar
    46   20   43 1
    47   21   44 1
@<TRIPOS>MOLECULE
ZINC00039089
   27    27     0     0     0
SMALL
USER_CHARGES

@<TRIPOS>ATOM
      1 C1         -0.0178    1.4648    0.0101 C.3       1 <0>        -0.0480
      2 N1          0.0021   -0.0041    0.0020 N.4       1 <0>        -0.5055
      3 C2          0.7126   -0.4907    1.1921 C.3       1 <0>        -0.0449
      4 C3          0.7333   -2.0205    1.1837 C.3       1 <0>         0.1366
      5 H1          1.2435   -2.3721    0.2869 H         1 <0>         0.1333
      6 C4          1.4622   -2.5197    2.4046 C.ar      1 <0>        -0.1383
      7 C5          0.7829   -2.6724    3.5990 C.ar      1 <0>        -0.0980
      8 C6          1.4470   -3.1300    4.7218 C.ar      1 <0>        -0.1235
      9 C7          2.7964   -3.4372    4.6515 C.ar      1 <0>         0.1051
     10 C8          3.4799   -3.2840    3.4492 C.ar      1 <0>         0.0898
     11 C9          2.8072   -2.8295    2.3263 C.ar      1 <0>        -0.1136
     12 O1          4.8043   -3.5842    3.3751 O.3       1 <0>        -0.4846
     13 O2          3.4513   -3.8871    5.7552 O.3       1 <0>        -0.4850
     14 O3         -0.6073   -2.5152    1.1939 O.3       1 <0>        -0.5473
     15 H2          1.0047    1.8421    0.0024 H         1 <0>         0.1243
     16 H3         -0.5450    1.8259   -0.8730 H         1 <0>         0.1289
     17 H4         -0.5280    1.8163    0.9069 H         1 <0>         0.1236
     18 H5         -0.9445   -0.3533    0.0092 H         1 <0>         0.4339
     19 H6          1.7352   -0.1134    1.1844 H         1 <0>         0.1453
     20 H7          0.2024   -0.1392    2.0889 H         1 <0>         0.1376
     21 H8         -0.2688   -2.4333    3.6552 H         1 <0>         0.1307
     22 H9          0.9143   -3.2477    5.6539 H         1 <0>         0.1435
     23 H10         3.3345   -2.7132    1.3910 H         1 <0>         0.1388
     24 H11         4.9865   -4.5027    3.1336 H         1 <0>         0.3971
     25 H12         3.4399   -4.8489    5.8546 H         1 <0>         0.3991
     26 H13        -1.1219   -2.2410    1.9653 H         1 <0>         0.3892
     27 H14         0.4744   -0.3295   -0.8281 H         1 <0>         0.4317
@<TRIPOS>BOND
     1    1    2 1
     2    1   15 1
     3    1   16 1
     4    1   17 1
     5    2    3 1
     6    2   18 1
     7    2   27 1
     8    3    4 1
     9    3   19 1
    10    3   20 1
    11    4    5 1
    12    4    6 1
    13    4   14 1
    14    6   11 ar
    15    6    7 ar
    16    7    8 ar
    17    7   21 1
    18    8    9 ar
    19    8   22 1
    20    9   10 ar
    21    9   13 1
    22   10   11 ar
    23   10   12 1
    24   11   23 1
    25   12   24 1
    26   13   25 1
    27   14   26 1
@<TRIPOS>MOLECULE
ZINC11422450
   37    38     0     0     0
SMALL
USER_CHARGES
6-isopropylaminotetralin-1,2,5-triol
@<TRIPOS>ATOM
      1 C1          1.9230    1.5230    1.4169 C.3       1 <0>        -0.1843
      2 C2          1.3525    1.5499   -0.0025 C.3       1 <0>         0.0270
      3 C3          2.2336    0.7023   -0.9224 C.3       1 <0>        -0.1822
      4 C4         -0.7955    1.5269   -1.1198 C.3       1 <0>         0.0367
      5 H1         -0.1493    1.6545   -1.9883 H         1 <0>         0.1506
      6 C5         -1.4171    2.8750   -0.7362 C.3       1 <0>        -0.1366
      7 C6         -2.0191    3.5024   -1.9916 C.3       1 <0>        -0.0729
      8 C7         -2.9197    2.5212   -2.6953 C.ar      1 <0>        -0.0829
      9 C8         -2.8709    1.1657   -2.4551 C.ar      1 <0>        -0.1255
     10 C9         -3.7191    0.3113   -3.1477 C.ar      1 <0>        -0.0965
     11 C10        -4.6154    0.8055   -4.0732 C.ar      1 <0>        -0.1234
     12 C11        -4.6726    2.1682   -4.3159 C.ar      1 <0>         0.1060
     13 C12        -3.8241    3.0246   -3.6257 C.ar      1 <0>         0.0857
     14 O1         -3.8777    4.3630   -3.8604 O.3       1 <0>        -0.4807
     15 O2         -5.5546    2.6647   -5.2242 O.3       1 <0>        -0.4830
     16 C13        -1.9234    0.5537   -1.4564 C.3       1 <0>         0.1406
     17 H2         -2.4701    0.3083   -0.5459 H         1 <0>         0.0901
     18 O3         -1.3659   -0.6414   -2.0069 O.3       1 <0>        -0.5626
     19 H3          1.9449    0.4956    1.7802 H         1 <0>         0.0821
     20 H4          2.9351    1.9274    1.4094 H         1 <0>         0.1074
     21 H5          1.2953    2.1268    2.0722 H         1 <0>         0.0816
     22 H6          1.3306    2.5773   -0.3659 H         1 <0>         0.1370
     23 H7          1.8272    0.7215   -1.9337 H         1 <0>         0.0813
     24 H8          3.2457    1.1067   -0.9299 H         1 <0>         0.1055
     25 H9          2.2555   -0.3251   -0.5591 H         1 <0>         0.0827
     26 H10        -2.1988    2.7204    0.0075 H         1 <0>         0.0965
     27 H11        -0.6478    3.5316   -0.3298 H         1 <0>         0.1018
     28 H12        -1.2152    3.7994   -2.6651 H         1 <0>         0.0956
     29 H13        -2.5966    4.3835   -1.7117 H         1 <0>         0.1007
     30 H14        -3.6770   -0.7513   -2.9595 H         1 <0>         0.1323
     31 H15        -5.2698    0.1322   -4.6069 H         1 <0>         0.1444
     32 H16        -4.4993    4.8375   -3.2916 H         1 <0>         0.3927
     33 H17        -6.4158    2.8962   -4.8503 H         1 <0>         0.3975
     34 H18        -2.0239   -1.3085   -2.2458 H         1 <0>         0.4050
     35 N1         -0.0153    0.9979    0.0149 N.4       1 <0>        -0.5153
     36 H19        -0.4755    1.2610    0.8943 H         1 <0>         0.4283
     37 H20         0.0315   -0.0254   -0.0540 H         1 <0>         0.4368
@<TRIPOS>BOND
     1    1    2 1
     2    1   19 1
     3    1   20 1
     4    1   21 1
     5    2    3 1
     6    2   22 1
     7    2   35 1
     8    3   23 1
     9    3   24 1
    10    3   25 1
    11    4    5 1
    12    4   16 1
    13    4    6 1
    14    4   35 1
    15    6    7 1
    16    6   26 1
    17    6   27 1
    18    7    8 1
    19    7   28 1
    20    7   29 1
    21    8   13 ar
    22    8    9 ar
    23    9   10 ar
    24    9   16 1
    25   10   11 ar
    26   10   30 1
    27   11   12 ar
    28   11   31 1
    29   12   13 ar
    30   12   15 1
    31   13   14 1
    32   14   32 1
    33   15   33 1
    34   16   17 1
    35   16   18 1
    36   18   34 1
    37   35   36 1
    38   35   37 1
@<TRIPOS>MOLECULE
ZINC11422302
   28    29     0     0     0
SMALL
USER_CHARGES
6-aminotetralin-1,2,5-triol
@<TRIPOS>ATOM
      1 C1         -2.1299    1.5032    1.2272 C.ar      1 <0>        -0.0968
      2 C2         -2.8610    1.9222    2.3200 C.ar      1 <0>        -0.1232
      3 C3         -2.2068    2.4109    3.4390 C.ar      1 <0>         0.1064
      4 C4         -0.8192    2.4764    3.4489 C.ar      1 <0>         0.0859
      5 C5         -0.0861    2.0544    2.3437 C.ar      1 <0>        -0.0835
      6 C6         -0.7425    1.5660    1.2355 C.ar      1 <0>        -0.1275
      7 C7         -0.0127    1.0858    0.0080 C.3       1 <0>         0.1392
      8 H1          0.0021   -0.0041    0.0020 H         1 <0>         0.0912
      9 C8          1.4221    1.6090   -0.0029 C.3       1 <0>         0.0401
     10 H2          1.4183    2.6882   -0.1557 H         1 <0>         0.1522
     11 C9          2.0664    1.2812    1.3493 C.3       1 <0>        -0.1355
     12 C10         1.4149    2.1567    2.4178 C.3       1 <0>        -0.0775
     13 O1         -0.6939    1.5542   -1.1576 O.3       1 <0>        -0.5647
     14 O2         -0.1732    2.9564    4.5452 O.3       1 <0>        -0.4812
     15 O3         -2.9188    2.8245    4.5213 O.3       1 <0>        -0.4830
     16 H3         -2.6421    1.1224    0.3560 H         1 <0>         0.1322
     17 H4         -3.9396    1.8696    2.3027 H         1 <0>         0.1446
     18 H5          1.9051    0.2298    1.5876 H         1 <0>         0.0969
     19 H6          3.1358    1.4879    1.3063 H         1 <0>         0.1043
     20 H7          1.7492    1.8306    3.4027 H         1 <0>         0.1082
     21 H8          1.7125    3.1939    2.2631 H         1 <0>         0.0920
     22 H9          3.1303    1.2903   -1.1069 H         1 <0>         0.4407
     23 H10         2.1470   -0.0458   -0.9900 H         1 <0>         0.4349
     24 H11        -1.6109    1.2547   -1.2242 H         1 <0>         0.4064
     25 H12        -0.0228    3.9114    4.5263 H         1 <0>         0.3938
     26 H13        -3.1608    3.7604    4.4986 H         1 <0>         0.3979
     27 N1          2.1645    0.9665   -1.1017 N.4       1 <0>        -0.6415
     28 H14         1.7239    1.2126   -1.9959 H         1 <0>         0.4478
@<TRIPOS>BOND
     1    1    6 ar
     2    1    2 ar
     3    1   16 1
     4    2    3 ar
     5    2   17 1
     6    3    4 ar
     7    3   15 1
     8    4    5 ar
     9    4   14 1
    10    5   12 1
    11    5    6 ar
    12    6    7 1
    13    7    8 1
    14    7    9 1
    15    7   13 1
    16    9   10 1
    17    9   11 1
    18    9   27 1
    19   11   12 1
    20   11   18 1
    21   11   19 1
    22   12   20 1
    23   12   21 1
    24   13   24 1
    25   14   25 1
    26   15   26 1
    27   22   27 1
    28   23   27 1
    29   27   28 1
@<TRIPOS>MOLECULE
ZINC01530611
   43    45     0     0     0
SMALL
USER_CHARGES

@<TRIPOS>ATOM
      1 C1         -5.6811    1.3607   -0.3895 C.3       1 <0>        -0.0475
      2 N1         -5.6577   -0.0983   -0.2206 N.4       1 <0>        -0.5096
      3 C2         -4.2653   -0.5656   -0.1914 C.3       1 <0>        -0.0084
      4 C3         -4.2409   -2.0853   -0.0155 C.3       1 <0>        -0.1794
      5 C4         -2.7907   -2.5720    0.0149 C.3       1 <0>         0.1487
      6 N2         -2.7680   -4.0325    0.1272 N.pl3     1 <0>        -0.6107
      7 C5         -2.6913   -4.8424   -1.0108 C.ar      1 <0>         0.1751
      8 C6         -1.6220   -4.6466   -1.8788 C.ar      1 <0>        -0.1410
      9 C7         -1.4736   -5.4397   -2.9971 C.ar      1 <0>        -0.1023
     10 C8         -2.4002   -6.4363   -3.2444 C.ar      1 <0>        -0.1264
     11 C9         -3.4660   -6.6200   -2.3938 C.ar      1 <0>        -0.1102
     12 C10        -3.6460   -5.8156   -1.2664 C.ar      1 <0>        -0.0994
     13 C11        -4.9119   -6.0915   -0.4880 C.3       1 <0>        -0.0689
     14 C12        -5.1138   -5.1475    0.6844 C.3       1 <0>        -0.0774
     15 C13        -4.0023   -5.2798    1.6948 C.ar      1 <0>        -0.0996
     16 C14        -2.8165   -4.6605    1.3756 C.ar      1 <0>         0.1518
     17 C15        -1.7436   -4.6795    2.2507 C.ar      1 <0>        -0.1184
     18 C16        -1.8773   -5.3599    3.4502 C.ar      1 <0>        -0.1095
     19 C17        -3.0600   -6.0057    3.7614 C.ar      1 <0>        -0.1164
     20 C18        -4.1454   -5.9689    2.8764 C.ar      1 <0>        -0.1028
     21 H1         -6.7143    1.7075   -0.4111 H         1 <0>         0.1266
     22 H2         -5.1573    1.8313    0.4426 H         1 <0>         0.1238
     23 H3         -5.1891    1.6261   -1.3252 H         1 <0>         0.1238
     24 H4         -6.1131   -0.3440    0.6456 H         1 <0>         0.4303
     25 H5         -3.7733   -0.3002   -1.1272 H         1 <0>         0.1329
     26 H6         -3.7415   -0.0951    0.6406 H         1 <0>         0.1330
     27 H7         -4.7329   -2.3506    0.9203 H         1 <0>         0.0915
     28 H8         -4.7647   -2.5558   -0.8475 H         1 <0>         0.0913
     29 H9         -2.2869   -2.2703   -0.9034 H         1 <0>         0.0828
     30 H10        -2.2782   -2.1337    0.8713 H         1 <0>         0.0803
     31 H11        -0.9026   -3.8672   -1.6754 H         1 <0>         0.1215
     32 H12        -0.6444   -5.2844   -3.6715 H         1 <0>         0.1277
     33 H13        -2.2869   -7.0730   -4.1093 H         1 <0>         0.1251
     34 H14        -4.1790   -7.4039   -2.6024 H         1 <0>         0.1223
     35 H15        -5.7638   -5.9997   -1.1617 H         1 <0>         0.0796
     36 H16        -4.8754   -7.1138   -0.1117 H         1 <0>         0.0764
     37 H17        -5.1407   -4.1220    0.3160 H         1 <0>         0.0728
     38 H18        -6.0638   -5.3767    1.1673 H         1 <0>         0.0709
     39 H19        -0.8216   -4.1746    2.0032 H         1 <0>         0.1257
     40 H20        -1.0526   -5.3858    4.1470 H         1 <0>         0.1276
     41 H21        -3.1485   -6.5434    4.6939 H         1 <0>         0.1270
     42 H22        -5.0720   -6.4709    3.1123 H         1 <0>         0.1291
     43 H23        -6.1426   -0.5339   -0.9908 H         1 <0>         0.4303
@<TRIPOS>BOND
     1    1    2 1
     2    1   21 1
     3    1   22 1
     4    1   23 1
     5    2    3 1
     6    2   24 1
     7    2   43 1
     8    3    4 1
     9    3   25 1
    10    3   26 1
    11    4    5 1
    12    4   27 1
    13    4   28 1
    14    5    6 1
    15    5   29 1
    16    5   30 1
    17    6   16 1
    18    6    7 1
    19    7   12 ar
    20    7    8 ar
    21    8    9 ar
    22    8   31 1
    23    9   10 ar
    24    9   32 1
    25   10   11 ar
    26   10   33 1
    27   11   12 ar
    28   11   34 1
    29   12   13 1
    30   13   14 1
    31   13   35 1
    32   13   36 1
    33   14   15 1
    34   14   37 1
    35   14   38 1
    36   15   20 ar
    37   15   16 ar
    38   16   17 ar
    39   17   18 ar
    40   17   39 1
    41   18   19 ar
    42   18   40 1
    43   19   20 ar
    44   19   41 1
    45   20   42 1
@<TRIPOS>MOLECULE
ZINC01530579
   57    60     0     0     0
SMALL
USER_CHARGES

@<TRIPOS>ATOM
      1 C1         -0.0173    1.4248    0.0099 C.3       1 <0>         0.0234
      2 O1          0.0021   -0.0041    0.0020 O.3       1 <0>        -0.3124
      3 C2          0.6062   -0.6075   -1.0564 C.ar      1 <0>         0.1102
      4 C3          1.1729    0.1590   -2.0621 C.ar      1 <0>        -0.1707
      5 C4          1.7870   -0.4560   -3.1371 C.ar      1 <0>        -0.0979
      6 C5          1.8372   -1.8356   -3.2121 C.ar      1 <0>        -0.1163
      7 C6          1.2734   -2.6062   -2.2124 C.ar      1 <0>        -0.1651
      8 C7          0.6617   -1.9961   -1.1290 C.ar      1 <0>         0.0803
      9 O2          0.1119   -2.7526   -0.1417 O.3       1 <0>        -0.3185
     10 C8          0.2064   -4.1715   -0.2827 C.3       1 <0>         0.0231
     11 C9         -0.4630   -4.8487    0.9148 C.3       1 <0>         0.0020
     12 N1         -1.9017   -4.5521    0.9040 N.4       1 <0>        -0.5046
     13 C10        -2.5444   -5.2023    2.0538 C.3       1 <0>        -0.0423
     14 C11        -4.0428   -4.8933    2.0425 C.3       1 <0>         0.0852
     15 H1         -4.4843   -5.2687    1.1193 H         1 <0>         0.1354
     16 C12        -4.7123   -5.5706    3.2401 C.3       1 <0>         0.0286
     17 O3         -6.1265   -5.3798    3.1660 O.3       1 <0>        -0.2954
     18 C13        -6.8751   -5.9229    4.1611 C.ar      1 <0>         0.1791
     19 C14        -6.2645   -6.6191    5.1897 C.ar      1 <0>        -0.2456
     20 C15        -7.0273   -7.1730    6.2045 C.ar      1 <0>        -0.0444
     21 C16        -8.3996   -7.0397    6.2043 C.ar      1 <0>        -0.1712
     22 C17        -9.0343   -6.3440    5.1793 C.ar      1 <0>         0.1818
     23 C18        -8.2644   -5.7764    4.1541 C.ar      1 <0>        -0.1299
     24 C19        -9.2097   -5.1108    3.2397 C.ar      1 <0>        -0.0923
     25 C20        -9.0542   -4.3908    2.0573 C.ar      1 <0>        -0.0604
     26 C21       -10.1619   -3.8790    1.4166 C.ar      1 <0>        -0.1468
     27 C22       -11.4283   -4.0780    1.9446 C.ar      1 <0>        -0.0826
     28 C23       -11.5964   -4.7880    3.1139 C.ar      1 <0>        -0.1382
     29 C24       -10.4904   -5.3134    3.7750 C.ar      1 <0>         0.1336
     30 N2        -10.3660   -6.0629    4.9316 N.pl3     1 <0>        -0.6121
     31 H2        -11.1055   -6.3405    5.4947 H         1 <0>         0.4226
     32 O4         -4.2384   -3.4801    2.1238 O.3       1 <0>        -0.5417
     33 H3          1.0053    1.8021    0.0021 H         1 <0>         0.0599
     34 H4         -0.5445    1.7859   -0.8732 H         1 <0>         0.0597
     35 H5         -0.5275    1.7763    0.9067 H         1 <0>         0.1055
     36 H6          1.1344    1.2368   -2.0063 H         1 <0>         0.1417
     37 H7          2.2283    0.1425   -3.9203 H         1 <0>         0.1350
     38 H8          2.3175   -2.3124   -4.0537 H         1 <0>         0.1340
     39 H9          1.3136   -3.6837   -2.2735 H         1 <0>         0.1347
     40 H10        -0.2940   -4.4795   -1.2008 H         1 <0>         0.0872
     41 H11         1.2558   -4.4633   -0.3254 H         1 <0>         0.1106
     42 H12        -0.3138   -5.9267    0.8528 H         1 <0>         0.1526
     43 H13        -0.0216   -4.4734    1.8380 H         1 <0>         0.1440
     44 H14        -2.0398   -3.5542    0.9614 H         1 <0>         0.4417
     45 H15        -2.3952   -6.2803    1.9918 H         1 <0>         0.1479
     46 H16        -2.1030   -4.8270    2.9770 H         1 <0>         0.1411
     47 H17        -4.4883   -6.6372    3.2262 H         1 <0>         0.0830
     48 H18        -4.3343   -5.1319    4.1636 H         1 <0>         0.0784
     49 H19        -5.1904   -6.7310    5.2009 H         1 <0>         0.1279
     50 H20        -6.5426   -7.7147    7.0033 H         1 <0>         0.1351
     51 H21        -8.9834   -7.4765    7.0010 H         1 <0>         0.1305
     52 H22        -8.0687   -4.2338    1.6443 H         1 <0>         0.1254
     53 H23       -10.0429   -3.3206    0.4999 H         1 <0>         0.1275
     54 H24       -12.2904   -3.6728    1.4356 H         1 <0>         0.1319
     55 H25       -12.5872   -4.9370    3.5170 H         1 <0>         0.1270
     56 H26        -3.8700   -3.0774    2.9221 H         1 <0>         0.3907
     57 H27        -2.3103   -4.8995    0.0494 H         1 <0>         0.4299
@<TRIPOS>BOND
     1    1    2 1
     2    1   33 1
     3    1   34 1
     4    1   35 1
     5    2    3 1
     6    3    8 ar
     7    3    4 ar
     8    4    5 ar
     9    4   36 1
    10    5    6 ar
    11    5   37 1
    12    6    7 ar
    13    6   38 1
    14    7    8 ar
    15    7   39 1
    16    8    9 1
    17    9   10 1
    18   10   11 1
    19   10   40 1
    20   10   41 1
    21   11   12 1
    22   11   42 1
    23   11   43 1
    24   12   13 1
    25   12   44 1
    26   12   57 1
    27   13   14 1
    28   13   45 1
    29   13   46 1
    30   14   15 1
    31   14   16 1
    32   14   32 1
    33   16   17 1
    34   16   47 1
    35   16   48 1
    36   17   18 1
    37   18   23 ar
    38   18   19 ar
    39   19   20 ar
    40   19   49 1
    41   20   21 ar
    42   20   50 1
    43   21   22 ar
    44   21   51 1
    45   22   30 1
    46   22   23 ar
    47   23   24 1
    48   24   29 ar
    49   24   25 ar
    50   25   26 ar
    51   25   52 1
    52   26   27 ar
    53   26   53 1
    54   27   28 ar
    55   27   54 1
    56   28   29 ar
    57   28   55 1
    58   29   30 1
    59   30   31 1
    60   32   56 1
