@<TRIPOS>MOLECULE
ZINC00020245
   46    48     0     0     0
SMALL
USER_CHARGES

@<TRIPOS>ATOM
      1 C1         -5.6836    1.3838    0.0162 C.3       1 <0>        -0.0473
      2 N1         -5.6620   -0.0833   -0.0564 N.4       1 <0>        -0.3868
      3 C2         -6.3713   -0.5242   -1.2649 C.3       1 <0>        -0.0522
      4 C3         -4.2702   -0.5505   -0.1076 C.3       1 <0>        -0.0086
      5 C4         -4.2434   -2.0795   -0.0575 C.3       1 <0>        -0.1781
      6 C5         -2.7938   -2.5661   -0.1108 C.3       1 <0>         0.1490
      7 N2         -2.7704   -4.0309   -0.1190 N.pl3     1 <0>        -0.6108
      8 C6         -2.7295   -4.7451   -1.3212 C.ar      1 <0>         0.1758
      9 C7         -1.6865   -4.4783   -2.2022 C.ar      1 <0>        -0.1411
     10 C8         -1.5734   -5.1772   -3.3856 C.ar      1 <0>        -0.1022
     11 C9         -2.5089   -6.1508   -3.6854 C.ar      1 <0>        -0.1266
     12 C10        -3.5489   -6.4041   -2.8209 C.ar      1 <0>        -0.1101
     13 C11        -3.6933   -5.6947   -1.6266 C.ar      1 <0>        -0.0998
     14 C12        -4.9357   -6.0340   -0.8354 C.3       1 <0>        -0.0687
     15 C13        -5.1005   -5.1892    0.4158 C.3       1 <0>        -0.0773
     16 C14        -3.9592   -5.4030    1.3779 C.ar      1 <0>        -0.0996
     17 C15        -2.7824   -4.7590    1.0748 C.ar      1 <0>         0.1523
     18 C16        -1.6837   -4.8488    1.9126 C.ar      1 <0>        -0.1184
     19 C17        -1.7825   -5.6251    3.0560 C.ar      1 <0>        -0.1094
     20 C18        -2.9565   -6.2950    3.3488 C.ar      1 <0>        -0.1165
     21 C19        -4.0679   -6.1865    2.5030 C.ar      1 <0>        -0.1028
     22 H1         -6.7163    1.7305    0.0542 H         1 <0>         0.1245
     23 H2         -5.1573    1.7109    0.9129 H         1 <0>         0.1235
     24 H3         -5.1933    1.7984   -0.8646 H         1 <0>         0.1221
     25 H4         -6.3552   -1.6128   -1.3188 H         1 <0>         0.1231
     26 H5         -7.4040   -0.1775   -1.2269 H         1 <0>         0.1246
     27 H6         -5.8810   -0.1096   -2.1457 H         1 <0>         0.1227
     28 H7         -3.8061   -0.2091   -1.0329 H         1 <0>         0.1308
     29 H8         -3.7207   -0.1494    0.7440 H         1 <0>         0.1320
     30 H9         -4.7075   -2.4209    0.8678 H         1 <0>         0.0908
     31 H10        -4.7929   -2.4806   -0.9091 H         1 <0>         0.0915
     32 H11        -2.3174   -2.1901   -1.0161 H         1 <0>         0.0824
     33 H12        -2.2550   -2.1990    0.7627 H         1 <0>         0.0801
     34 H13        -0.9599   -3.7176   -1.9576 H         1 <0>         0.1215
     35 H14        -0.7646   -4.9667   -4.0697 H         1 <0>         0.1276
     36 H15        -2.4229   -6.7145   -4.6025 H         1 <0>         0.1250
     37 H16        -4.2693   -7.1687   -3.0712 H         1 <0>         0.1222
     38 H17        -5.8074   -5.8880   -1.4734 H         1 <0>         0.0793
     39 H18        -4.8898   -7.0837   -0.5452 H         1 <0>         0.0765
     40 H19        -5.1365   -4.1371    0.1334 H         1 <0>         0.0724
     41 H20        -6.0358   -5.4578    0.9068 H         1 <0>         0.0709
     42 H21        -0.7686   -4.3248    1.6795 H         1 <0>         0.1257
     43 H22        -0.9372   -5.7074    3.7231 H         1 <0>         0.1275
     44 H23        -3.0178   -6.9071    4.2365 H         1 <0>         0.1269
     45 H24        -4.9880   -6.7067    2.7249 H         1 <0>         0.1290
     46 H25        -6.1159   -0.4671    0.7589 H         1 <0>         0.4268
@<TRIPOS>BOND
     1    1    2 1
     2    1   22 1
     3    1   23 1
     4    1   24 1
     5    2    3 1
     6    2    4 1
     7    2   46 1
     8    3   25 1
     9    3   26 1
    10    3   27 1
    11    4    5 1
    12    4   28 1
    13    4   29 1
    14    5    6 1
    15    5   30 1
    16    5   31 1
    17    6    7 1
    18    6   32 1
    19    6   33 1
    20    7   17 1
    21    7    8 1
    22    8   13 ar
    23    8    9 ar
    24    9   10 ar
    25    9   34 1
    26   10   11 ar
    27   10   35 1
    28   11   12 ar
    29   11   36 1
    30   12   13 ar
    31   12   37 1
    32   13   14 1
    33   14   15 1
    34   14   38 1
    35   14   39 1
    36   15   16 1
    37   15   40 1
    38   15   41 1
    39   16   21 ar
    40   16   17 ar
    41   17   18 ar
    42   18   19 ar
    43   18   42 1
    44   19   20 ar
    45   19   43 1
    46   20   21 ar
    47   20   44 1
    48   21   45 1
@<TRIPOS>MOLECULE
ZINC00020240
   41    42     0     0     0
SMALL
USER_CHARGES

@<TRIPOS>ATOM
      1 C1         -0.0187    1.5258    0.0104 C.3       1 <0>        -0.1864
      2 C2          0.0021   -0.0041    0.0020 C.3       1 <0>         0.0237
      3 C3          0.7421   -0.5109    1.2415 C.3       1 <0>        -0.1853
      4 N1         -1.3761   -0.5125    0.0124 N.4       1 <0>        -0.5024
      5 C4         -2.0500   -0.1262   -1.2343 C.3       1 <0>        -0.0455
      6 C5         -3.4854   -0.6557   -1.2235 C.3       1 <0>         0.0867
      7 H1         -3.4743   -1.7319   -1.0509 H         1 <0>         0.1348
      8 C6         -4.1475   -0.3621   -2.5712 C.3       1 <0>         0.0290
      9 O1         -5.4460   -0.9578   -2.6037 O.3       1 <0>        -0.2976
     10 C7         -6.1730   -0.7902   -3.7385 C.ar      1 <0>         0.1358
     11 C8         -5.6568   -0.0834   -4.7882 C.ar      1 <0>        -0.2166
     12 C9         -6.3892    0.0973   -5.9580 C.ar      1 <0>        -0.0839
     13 C10        -7.6399   -0.4245   -6.0915 C.ar      1 <0>        -0.1302
     14 C11        -8.2062   -1.1581   -5.0353 C.ar      1 <0>        -0.0207
     15 C12        -7.4628   -1.3490   -3.8442 C.ar      1 <0>        -0.0669
     16 C13        -8.0269   -2.0859   -2.7904 C.ar      1 <0>        -0.0916
     17 C14        -9.2755   -2.6106   -2.9280 C.ar      1 <0>        -0.1198
     18 C15       -10.0052   -2.4276   -4.1011 C.ar      1 <0>        -0.0996
     19 C16        -9.4946   -1.7103   -5.1390 C.ar      1 <0>        -0.1126
     20 O2         -4.2221   -0.0137   -0.1809 O.3       1 <0>        -0.5426
     21 H2          1.0039    1.9031    0.0027 H         1 <0>         0.1080
     22 H3         -0.5459    1.8868   -0.8726 H         1 <0>         0.0796
     23 H4         -0.5289    1.8773    0.9072 H         1 <0>         0.0835
     24 H5          0.5123   -0.3556   -0.8948 H         1 <0>         0.1399
     25 H6          0.2319   -0.1594    2.1383 H         1 <0>         0.0829
     26 H7          0.7568   -1.6008    1.2356 H         1 <0>         0.0831
     27 H8          1.7647   -0.1336    1.2338 H         1 <0>         0.1084
     28 H9         -1.3629   -1.5185    0.0898 H         1 <0>         0.4304
     29 H10        -2.0643    0.9605   -1.3179 H         1 <0>         0.1411
     30 H11        -1.5132   -0.5489   -2.0836 H         1 <0>         0.1463
     31 H12        -4.2389    0.7159   -2.7039 H         1 <0>         0.0781
     32 H13        -3.5374   -0.7766   -3.3737 H         1 <0>         0.0827
     33 H14        -4.6670    0.3413   -4.7087 H         1 <0>         0.1233
     34 H15        -5.9587    0.6606   -6.7727 H         1 <0>         0.1282
     35 H16        -8.1947   -0.2748   -7.0059 H         1 <0>         0.1330
     36 H17        -7.4729   -2.2360   -1.8755 H         1 <0>         0.1299
     37 H18        -9.7069   -3.1772   -2.1160 H         1 <0>         0.1276
     38 H19       -10.9936   -2.8547   -4.1849 H         1 <0>         0.1293
     39 H20       -10.0715   -1.5762   -6.0421 H         1 <0>         0.1342
     40 H21        -4.2734    0.9478   -0.2701 H         1 <0>         0.3904
     41 H22        -1.8730   -0.1212    0.7986 H         1 <0>         0.4317
@<TRIPOS>BOND
     1    1    2 1
     2    1   21 1
     3    1   22 1
     4    1   23 1
     5    2    3 1
     6    2    4 1
     7    2   24 1
     8    3   25 1
     9    3   26 1
    10    3   27 1
    11    4    5 1
    12    4   28 1
    13    4   41 1
    14    5    6 1
    15    5   29 1
    16    5   30 1
    17    6    7 1
    18    6    8 1
    19    6   20 1
    20    8    9 1
    21    8   31 1
    22    8   32 1
    23    9   10 1
    24   10   15 ar
    25   10   11 ar
    26   11   12 ar
    27   11   33 1
    28   12   13 ar
    29   12   34 1
    30   13   14 ar
    31   13   35 1
    32   14   19 ar
    33   14   15 ar
    34   15   16 ar
    35   16   17 ar
    36   16   36 1
    37   17   18 ar
    38   17   37 1
    39   18   19 ar
    40   18   38 1
    41   19   39 1
    42   20   40 1
@<TRIPOS>MOLECULE
ZINC00056556
   41    42     0     0     0
SMALL
USER_CHARGES

@<TRIPOS>ATOM
      1 C1         -0.0187    1.5258    0.0104 C.3       1 <0>        -0.1868
      2 C2          0.0021   -0.0041    0.0020 C.3       1 <0>         0.0239
      3 C3          0.7421   -0.5109    1.2415 C.3       1 <0>        -0.1852
      4 N1         -1.3761   -0.5125    0.0124 N.4       1 <0>        -0.5018
      5 C4         -2.0500   -0.1262   -1.2343 C.3       1 <0>        -0.0456
      6 C5         -3.4854   -0.6557   -1.2235 C.3       1 <0>         0.0866
      7 H1         -4.0222   -0.2330   -0.3742 H         1 <0>         0.1356
      8 C6         -4.1873   -0.2533   -2.5220 C.3       1 <0>         0.0290
      9 O1         -5.5600   -0.6460   -2.4630 O.3       1 <0>        -0.2976
     10 C7         -6.3301   -0.3603   -3.5445 C.ar      1 <0>         0.1358
     11 C8         -5.7871    0.2702   -4.6286 C.ar      1 <0>        -0.2166
     12 C9         -6.5629    0.5699   -5.7447 C.ar      1 <0>        -0.0839
     13 C10        -7.8843    0.2439   -5.7897 C.ar      1 <0>        -0.1302
     14 C11        -8.4805   -0.4055   -4.6955 C.ar      1 <0>        -0.0207
     15 C12        -7.6937   -0.7172   -3.5589 C.ar      1 <0>        -0.0669
     16 C13        -8.2884   -1.3701   -2.4672 C.ar      1 <0>        -0.0916
     17 C14        -9.6084   -1.6991   -2.5165 C.ar      1 <0>        -0.1198
     18 C15       -10.3815   -1.3976   -3.6361 C.ar      1 <0>        -0.0996
     19 C16        -9.8416   -0.7560   -4.7081 C.ar      1 <0>        -0.1126
     20 O2         -3.4667   -2.0804   -1.1139 O.3       1 <0>        -0.5435
     21 H2          1.0039    1.9031    0.0027 H         1 <0>         0.1081
     22 H3         -0.5459    1.8868   -0.8726 H         1 <0>         0.0803
     23 H4         -0.5289    1.8773    0.9072 H         1 <0>         0.0836
     24 H5          0.5123   -0.3556   -0.8948 H         1 <0>         0.1393
     25 H6          0.2319   -0.1594    2.1383 H         1 <0>         0.0829
     26 H7          0.7568   -1.6008    1.2356 H         1 <0>         0.0831
     27 H8          1.7647   -0.1336    1.2338 H         1 <0>         0.1083
     28 H9         -1.3629   -1.5185    0.0898 H         1 <0>         0.4333
     29 H10        -2.0643    0.9605   -1.3179 H         1 <0>         0.1475
     30 H11        -1.5132   -0.5489   -2.0836 H         1 <0>         0.1398
     31 H12        -4.1237    0.8273   -2.6496 H         1 <0>         0.0828
     32 H13        -3.7039   -0.7477   -3.3646 H         1 <0>         0.0780
     33 H14        -4.7413    0.5399   -4.6191 H         1 <0>         0.1233
     34 H15        -6.1098    1.0693   -6.5883 H         1 <0>         0.1282
     35 H16        -8.4722    0.4840   -6.6634 H         1 <0>         0.1330
     36 H17        -7.7014   -1.6104   -1.5931 H         1 <0>         0.1299
     37 H18       -10.0632   -2.2016   -1.6756 H         1 <0>         0.1276
     38 H19       -11.4266   -1.6698   -3.6500 H         1 <0>         0.1293
     39 H20       -10.4528   -0.5282   -5.5689 H         1 <0>         0.1342
     40 H21        -3.0042   -2.5245   -1.8377 H         1 <0>         0.3902
     41 H22        -1.8730   -0.1212    0.7986 H         1 <0>         0.4286
@<TRIPOS>BOND
     1    1    2 1
     2    1   21 1
     3    1   22 1
     4    1   23 1
     5    2    3 1
     6    2    4 1
     7    2   24 1
     8    3   25 1
     9    3   26 1
    10    3   27 1
    11    4    5 1
    12    4   28 1
    13    4   41 1
    14    5    6 1
    15    5   29 1
    16    5   30 1
    17    6    7 1
    18    6    8 1
    19    6   20 1
    20    8    9 1
    21    8   31 1
    22    8   32 1
    23    9   10 1
    24   10   15 ar
    25   10   11 ar
    26   11   12 ar
    27   11   33 1
    28   12   13 ar
    29   12   34 1
    30   13   14 ar
    31   13   35 1
    32   14   19 ar
    33   14   15 ar
    34   15   16 ar
    35   16   17 ar
    36   16   36 1
    37   17   18 ar
    38   17   37 1
    39   18   19 ar
    40   18   38 1
    41   19   39 1
    42   20   40 1
@<TRIPOS>MOLECULE
ZINC00020248
   46    48     0     0     0
SMALL
USER_CHARGES

@<TRIPOS>ATOM
      1 C1         -5.6600    1.3618    0.4597 C.3       1 <0>        -0.0474
      2 N1         -5.6471   -0.0878    0.2218 N.4       1 <0>        -0.3867
      3 C2         -6.3574   -0.3850   -1.0293 C.3       1 <0>        -0.0523
      4 C3         -4.2581   -0.5548    0.1191 C.3       1 <0>        -0.0083
      5 C4         -4.2405   -2.0797   -0.0038 C.3       1 <0>        -0.1741
      6 C5         -2.7938   -2.5661   -0.1108 C.3       1 <0>         0.1309
      7 N2         -2.7704   -4.0309   -0.1190 N.pl3     1 <0>        -0.5935
      8 C6         -2.7303   -4.6837   -1.3451 C.ar      1 <0>         0.1859
      9 C7         -1.8260   -4.1660   -2.2811 C.ar      1 <0>        -0.1574
     10 C8         -1.6797   -4.7476   -3.5192 C.ar      1 <0>        -0.0952
     11 C9         -2.4365   -5.8609   -3.8384 C.ar      1 <0>        -0.1332
     12 C10        -3.3330   -6.3646   -2.9249 C.ar      1 <0>        -0.0999
     13 C11        -3.5037   -5.7750   -1.6688 C.ar      1 <0>        -0.1089
     14 C12        -4.5743   -6.4166   -0.8216 C.3       1 <0>        -0.0721
     15 C13        -4.9918   -5.6033    0.3783 C.3       1 <0>        -0.0690
     16 C14        -3.8887   -5.4681    1.3836 C.ar      1 <0>        -0.0980
     17 C15        -2.7839   -4.6994    1.1019 C.ar      1 <0>         0.1741
     18 C16        -1.7322   -4.5882    1.9998 C.ar      1 <0>        -0.1187
     19 C17        -1.8086   -5.2524    3.2126 C.ar      1 <0>        -0.0223
     20 C18        -2.9248   -6.0132    3.5136 C.ar      1 <0>        -0.1131
     21 C19        -3.9754   -6.1256    2.6005 C.ar      1 <0>        -0.0889
     22 Cl1        -0.5058   -5.1313    4.3535 Cl        1 <0>        -0.0554
     23 H1         -6.6906    1.7083    0.5359 H         1 <0>         0.1247
     24 H2         -5.1330    1.5823    1.3879 H         1 <0>         0.1236
     25 H3         -5.1660    1.8703   -0.3683 H         1 <0>         0.1224
     26 H4         -5.8633    0.1235   -1.8572 H         1 <0>         0.1230
     27 H5         -6.3478   -1.4606   -1.2058 H         1 <0>         0.1233
     28 H6         -7.3880   -0.0385   -0.9531 H         1 <0>         0.1247
     29 H7         -3.7907   -0.1139   -0.7614 H         1 <0>         0.1315
     30 H8         -3.7074   -0.2558    1.0110 H         1 <0>         0.1322
     31 H9         -4.7079   -2.5206    0.8766 H         1 <0>         0.0896
     32 H10        -4.7912   -2.3787   -0.8957 H         1 <0>         0.0908
     33 H11        -2.3515   -2.1905   -1.0335 H         1 <0>         0.0902
     34 H12        -2.2229   -2.1984    0.7418 H         1 <0>         0.0815
     35 H13        -1.2357   -3.2979   -2.0274 H         1 <0>         0.1217
     36 H14        -0.9815   -4.3392   -4.2348 H         1 <0>         0.1273
     37 H15        -2.3238   -6.3333   -4.8030 H         1 <0>         0.1262
     38 H16        -3.9182   -7.2346   -3.1839 H         1 <0>         0.1241
     39 H17        -5.4518   -6.5884   -1.4450 H         1 <0>         0.0825
     40 H18        -4.2074   -7.3823   -0.4739 H         1 <0>         0.0763
     41 H19        -5.2905   -4.6094    0.0453 H         1 <0>         0.0673
     42 H20        -5.8457   -6.0866    0.8532 H         1 <0>         0.0790
     43 H21        -0.8653   -3.9919    1.7562 H         1 <0>         0.1372
     44 H22        -2.9858   -6.5230    4.4638 H         1 <0>         0.1382
     45 H23        -4.8449   -6.7215    2.8354 H         1 <0>         0.1390
     46 H24        -6.1044   -0.5585    0.9882 H         1 <0>         0.4269
@<TRIPOS>BOND
     1    1    2 1
     2    1   23 1
     3    1   24 1
     4    1   25 1
     5    2    3 1
     6    2    4 1
     7    2   46 1
     8    3   26 1
     9    3   27 1
    10    3   28 1
    11    4    5 1
    12    4   29 1
    13    4   30 1
    14    5    6 1
    15    5   31 1
    16    5   32 1
    17    6    7 1
    18    6   33 1
    19    6   34 1
    20    7   17 1
    21    7    8 1
    22    8   13 ar
    23    8    9 ar
    24    9   10 ar
    25    9   35 1
    26   10   11 ar
    27   10   36 1
    28   11   12 ar
    29   11   37 1
    30   12   13 ar
    31   12   38 1
    32   13   14 1
    33   14   15 1
    34   14   39 1
    35   14   40 1
    36   15   16 1
    37   15   41 1
    38   15   42 1
    39   16   21 ar
    40   16   17 ar
    41   17   18 ar
    42   18   19 ar
    43   18   43 1
    44   19   20 ar
    45   19   22 1
    46   20   21 ar
    47   20   44 1
    48   21   45 1
@<TRIPOS>MOLECULE
ZINC01530741
   42    44     0     0     0
SMALL
USER_CHARGES

@<TRIPOS>ATOM
      1 C1         -0.0178    1.4648    0.0101 C.3       1 <0>        -0.0473
      2 N1          0.0021   -0.0041    0.0020 N.4       1 <0>        -0.5104
      3 C2         -1.3761   -0.5125    0.0124 C.3       1 <0>        -0.0075
      4 C3         -1.3553   -2.0424    0.0040 C.3       1 <0>        -0.1205
      5 C4         -2.7691   -2.5640    0.0147 C.2       1 <0>        -0.1701
      6 C5         -3.1759   -3.4141   -0.9354 C.2       1 <0>         0.0084
      7 C6         -2.2617   -3.8737   -2.0162 C.ar      1 <0>        -0.0603
      8 C7         -1.0502   -4.4584   -1.6510 C.ar      1 <0>        -0.1120
      9 C8         -0.1817   -4.9254   -2.6144 C.ar      1 <0>        -0.1225
     10 C9         -0.5309   -4.8091   -3.9481 C.ar      1 <0>        -0.1072
     11 C10        -1.7216   -4.2226   -4.3099 C.ar      1 <0>        -0.1263
     12 C11        -2.6129   -3.7258   -3.3561 C.ar      1 <0>        -0.0535
     13 C12        -3.8344   -3.0498   -3.9297 C.3       1 <0>        -0.0765
     14 C13        -4.7567   -2.4533   -2.8869 C.3       1 <0>        -0.0806
     15 C14        -5.3648   -3.4987   -1.9877 C.ar      1 <0>        -0.0737
     16 C15        -4.5615   -3.9515   -0.9605 C.ar      1 <0>        -0.0697
     17 C16        -5.0352   -4.8627   -0.0270 C.ar      1 <0>        -0.0955
     18 C17        -6.3272   -5.3414   -0.1696 C.ar      1 <0>        -0.1191
     19 C18        -7.1195   -4.9199   -1.2225 C.ar      1 <0>        -0.1080
     20 C19        -6.6408   -3.9814   -2.1491 C.ar      1 <0>        -0.1083
     21 H1          1.0047    1.8421    0.0024 H         1 <0>         0.1266
     22 H2         -0.5450    1.8259   -0.8730 H         1 <0>         0.1232
     23 H3         -0.5280    1.8163    0.9069 H         1 <0>         0.1239
     24 H4          0.4744   -0.3295   -0.8281 H         1 <0>         0.4301
     25 H5         -1.8863   -0.1610    0.9092 H         1 <0>         0.1332
     26 H6         -1.9033   -0.1515   -0.8706 H         1 <0>         0.1314
     27 H7         -0.8451   -2.3939   -0.8928 H         1 <0>         0.0991
     28 H8         -0.8281   -2.4035    0.8871 H         1 <0>         0.0962
     29 H9         -3.4541   -2.2517    0.7892 H         1 <0>         0.1310
     30 H10        -0.7900   -4.5458   -0.6065 H         1 <0>         0.1235
     31 H11         0.7582   -5.3762   -2.3319 H         1 <0>         0.1290
     32 H12         0.1367   -5.1814   -4.7112 H         1 <0>         0.1265
     33 H13        -1.9733   -4.1443   -5.3573 H         1 <0>         0.1247
     34 H14        -3.5084   -2.2546   -4.6003 H         1 <0>         0.0855
     35 H15        -4.3952   -3.7815   -4.5113 H         1 <0>         0.0834
     36 H16        -4.1905   -1.7497   -2.2766 H         1 <0>         0.0703
     37 H17        -5.5577   -1.9136   -3.3920 H         1 <0>         0.0793
     38 H18        -4.4114   -5.1904    0.7915 H         1 <0>         0.1267
     39 H19        -6.7188   -6.0491    0.5460 H         1 <0>         0.1278
     40 H20        -8.1181   -5.3161   -1.3327 H         1 <0>         0.1275
     41 H21        -7.2557   -3.6486   -2.9723 H         1 <0>         0.1315
     42 H22         0.4901   -0.3383    0.8195 H         1 <0>         0.4302
@<TRIPOS>BOND
     1    1    2 1
     2    1   21 1
     3    1   22 1
     4    1   23 1
     5    2    3 1
     6    2   24 1
     7    2   42 1
     8    3    4 1
     9    3   25 1
    10    3   26 1
    11    4    5 1
    12    4   27 1
    13    4   28 1
    14    5    6 2
    15    5   29 1
    16    6   16 1
    17    6    7 1
    18    7   12 ar
    19    7    8 ar
    20    8    9 ar
    21    8   30 1
    22    9   10 ar
    23    9   31 1
    24   10   11 ar
    25   10   32 1
    26   11   12 ar
    27   11   33 1
    28   12   13 1
    29   13   14 1
    30   13   34 1
    31   13   35 1
    32   14   15 1
    33   14   36 1
    34   14   37 1
    35   15   20 ar
    36   15   16 ar
    37   16   17 ar
    38   17   18 ar
    39   17   38 1
    40   18   19 ar
    41   18   39 1
    42   19   20 ar
    43   19   40 1
    44   20   41 1
@<TRIPOS>MOLECULE
ZINC01853520
   50    52     0     0     0
SMALL
USER_CHARGES
7-(2-hydroxy-3-propylamino-propoxy)-2-phenyl-chromen-4-one
@<TRIPOS>ATOM
      1 C1        -11.0003    3.2196    0.4885 C.3       1 <0>        -0.1572
      2 C2         -9.7182    4.0440    0.3566 C.3       1 <0>        -0.1524
      3 C3         -8.5086    3.1073    0.3434 C.3       1 <0>        -0.0064
      4 C4         -6.0927    3.0306    0.2007 C.3       1 <0>        -0.0381
      5 C5         -4.8332    3.8891    0.0681 C.3       1 <0>         0.0850
      6 H1         -4.7699    4.5745    0.9133 H         1 <0>         0.1372
      7 C6         -3.5991    2.9848    0.0513 C.3       1 <0>         0.0262
      8 O1         -2.4186    3.7901    0.0448 O.3       1 <0>        -0.2932
      9 C7         -1.2280    3.1381    0.0298 C.ar      1 <0>         0.1829
     10 C8         -1.2032    1.7452    0.0172 C.ar      1 <0>        -0.2356
     11 C9         -0.0126    1.0758    0.0080 C.ar      1 <0>         0.0135
     12 C10         1.1845    1.7923    0.0004 C.ar      1 <0>        -0.2510
     13 C11         2.4891    1.1046   -0.0153 C.2       1 <0>         0.4235
     14 O2          2.5640   -0.1131   -0.0222 O.2       1 <0>        -0.4660
     15 C12         3.6507    1.9132   -0.0203 C.2       1 <0>        -0.3129
     16 C13         3.5254    3.2669   -0.0123 C.2       1 <0>         0.2138
     17 O3          2.3323    3.8813    0.0015 O.3       1 <0>        -0.2174
     18 C14         1.1691    3.1975    0.0081 C.ar      1 <0>         0.1938
     19 C15        -0.0481    3.8633    0.0229 C.ar      1 <0>        -0.1725
     20 C16         4.7493    4.0932   -0.0185 C.ar      1 <0>        -0.0801
     21 C17         6.0064    3.4848   -0.0270 C.ar      1 <0>        -0.0781
     22 C18         7.1454    4.2627   -0.0382 C.ar      1 <0>        -0.1195
     23 C19         7.0446    5.6428   -0.0293 C.ar      1 <0>        -0.0888
     24 C20         5.8024    6.2522   -0.0156 C.ar      1 <0>        -0.1230
     25 C21         4.6550    5.4866   -0.0101 C.ar      1 <0>        -0.0789
     26 O4         -4.8924    4.6369   -1.1482 O.3       1 <0>        -0.5434
     27 H2        -11.8621    3.8869    0.4979 H         1 <0>         0.0788
     28 H3        -11.0803    2.5347   -0.3557 H         1 <0>         0.0673
     29 H4        -10.9719    2.6497    1.4172 H         1 <0>         0.0674
     30 H5         -9.6382    4.7289    1.2008 H         1 <0>         0.0875
     31 H6         -9.7466    4.6139   -0.5721 H         1 <0>         0.0875
     32 H7         -8.5886    2.4224   -0.5008 H         1 <0>         0.1313
     33 H8         -8.4802    2.5374    1.2722 H         1 <0>         0.1319
     34 H9         -6.1560    2.3453   -0.6445 H         1 <0>         0.1394
     35 H10        -6.0476    2.4602    1.1285 H         1 <0>         0.1466
     36 H11        -3.6181    2.3607   -0.8422 H         1 <0>         0.0825
     37 H12        -3.6014    2.3505    0.9377 H         1 <0>         0.0876
     38 H13        -2.1305    1.1916    0.0186 H         1 <0>         0.1377
     39 H14         0.0021   -0.0041    0.0020 H         1 <0>         0.1494
     40 H15         4.6300    1.4579   -0.0303 H         1 <0>         0.1658
     41 H16        -0.0753    4.9429    0.0293 H         1 <0>         0.1547
     42 H17         6.0864    2.4078   -0.0291 H         1 <0>         0.1366
     43 H18         8.1181    3.7936   -0.0489 H         1 <0>         0.1364
     44 H19         7.9397    6.2471   -0.0335 H         1 <0>         0.1327
     45 H20         5.7310    7.3298   -0.0095 H         1 <0>         0.1334
     46 H21         3.6861    5.9635    0.0002 H         1 <0>         0.1340
     47 H22        -4.9501    4.0901   -1.9437 H         1 <0>         0.3910
     48 N1         -7.2773    3.9095    0.2162 N.4       1 <0>        -0.5141
     49 H23        -7.2098    4.5549    1.0119 H         1 <0>         0.4353
     50 H24        -7.3119    4.4467   -0.6582 H         1 <0>         0.4378
@<TRIPOS>BOND
     1    1    2 1
     2    1   27 1
     3    1   28 1
     4    1   29 1
     5    2    3 1
     6    2   30 1
     7    2   31 1
     8    3   32 1
     9    3   33 1
    10    3   48 1
    11    4    5 1
    12    4   34 1
    13    4   35 1
    14    4   48 1
    15    5    6 1
    16    5    7 1
    17    5   26 1
    18    7    8 1
    19    7   36 1
    20    7   37 1
    21    8    9 1
    22    9   19 ar
    23    9   10 ar
    24   10   11 ar
    25   10   38 1
    26   11   12 ar
    27   11   39 1
    28   12   18 ar
    29   12   13 1
    30   13   14 2
    31   13   15 1
    32   15   16 2
    33   15   40 1
    34   16   17 1
    35   16   20 1
    36   17   18 1
    37   18   19 ar
    38   19   41 1
    39   20   25 ar
    40   20   21 ar
    41   21   22 ar
    42   21   42 1
    43   22   23 ar
    44   22   43 1
    45   23   24 ar
    46   23   44 1
    47   24   25 ar
    48   24   45 1
    49   25   46 1
    50   26   47 1
    51   48   49 1
    52   48   50 1
@<TRIPOS>MOLECULE
ZINC01853521
   50    52     0     0     0
SMALL
USER_CHARGES
7-(2-hydroxy-3-propylamino-propoxy)-2-phenyl-chromen-4-one
@<TRIPOS>ATOM
      1 C1          5.7394    1.4013    2.3473 C.3       1 <0>        -0.1572
      2 C2          4.2961    0.8940    2.3250 C.3       1 <0>        -0.1524
      3 C3          3.5536    1.5205    1.1430 C.3       1 <0>        -0.0064
      4 C4          1.4227    1.6154   -0.0028 C.3       1 <0>        -0.0379
      5 C5         -0.0127    1.0858    0.0080 C.3       1 <0>         0.0852
      6 H1          0.0021   -0.0041    0.0020 H         1 <0>         0.1362
      7 C6         -0.7527    1.5927   -1.2315 C.3       1 <0>         0.0262
      8 O1         -2.0545    1.0054   -1.2824 O.3       1 <0>        -0.2932
      9 C7         -2.8468    1.3529   -2.3285 C.ar      1 <0>         0.1829
     10 C8         -2.3749    2.2499   -3.2844 C.ar      1 <0>        -0.2357
     11 C9         -3.1590    2.6041   -4.3454 C.ar      1 <0>         0.0136
     12 C10        -4.4434    2.0729   -4.4649 C.ar      1 <0>        -0.2510
     13 C11        -5.3208    2.4362   -5.5934 C.2       1 <0>         0.4235
     14 O2         -4.9523    3.2136   -6.4585 O.2       1 <0>        -0.4660
     15 C12        -6.6074    1.8477   -5.6328 C.2       1 <0>        -0.3129
     16 C13        -6.9810    0.9863   -4.6496 C.2       1 <0>         0.2137
     17 O3         -6.1734    0.6633   -3.6274 O.3       1 <0>        -0.2173
     18 C14        -4.9299    1.1718   -3.5025 C.ar      1 <0>         0.1938
     19 C15        -4.1196    0.8171   -2.4335 C.ar      1 <0>        -0.1725
     20 C16        -8.3276    0.3830   -4.7083 C.ar      1 <0>        -0.0801
     21 C17        -9.1945    0.7027   -5.7556 C.ar      1 <0>        -0.0781
     22 C18       -10.4488    0.1312   -5.8072 C.ar      1 <0>        -0.1196
     23 C19       -10.8533   -0.7479   -4.8180 C.ar      1 <0>        -0.0887
     24 C20       -10.0016   -1.0647   -3.7744 C.ar      1 <0>        -0.1230
     25 C21        -8.7423   -0.5053   -3.7136 C.ar      1 <0>        -0.0789
     26 O4         -0.6816    1.5467    1.1837 O.3       1 <0>        -0.5428
     27 H2          6.2683    0.9549    3.1894 H         1 <0>         0.0787
     28 H3          6.2364    1.1239    1.4178 H         1 <0>         0.0674
     29 H4          5.7416    2.4863    2.4508 H         1 <0>         0.0674
     30 H5          3.7990    1.1714    3.2545 H         1 <0>         0.0875
     31 H6          4.2939   -0.1911    2.2215 H         1 <0>         0.0875
     32 H7          4.0506    1.2432    0.2134 H         1 <0>         0.1319
     33 H8          3.5558    2.6056    1.2465 H         1 <0>         0.1314
     34 H9          1.9050    1.3387   -0.9404 H         1 <0>         0.1461
     35 H10         1.4101    2.7011    0.0927 H         1 <0>         0.1399
     36 H11        -0.8452    2.6775   -1.1811 H         1 <0>         0.0827
     37 H12        -0.1944    1.3168   -2.1261 H         1 <0>         0.0873
     38 H13        -1.3822    2.6641   -3.1883 H         1 <0>         0.1377
     39 H14        -2.7876    3.2964   -5.0865 H         1 <0>         0.1494
     40 H15        -7.2878    2.0815   -6.4383 H         1 <0>         0.1658
     41 H16        -4.4799    0.1255   -1.6864 H         1 <0>         0.1547
     42 H17        -8.8818    1.3924   -6.5256 H         1 <0>         0.1366
     43 H18       -11.1185    0.3741   -6.6189 H         1 <0>         0.1364
     44 H19       -11.8381   -1.1890   -4.8609 H         1 <0>         0.1327
     45 H20       -10.3236   -1.7518   -3.0059 H         1 <0>         0.1334
     46 H21        -8.0783   -0.7540   -2.8989 H         1 <0>         0.1340
     47 H22        -0.7322    2.5097    1.2555 H         1 <0>         0.3915
     48 N1          2.1637    1.0266    1.1286 N.4       1 <0>        -0.5146
     49 H23         1.7024    1.2875    2.0080 H         1 <0>         0.4383
     50 H24         2.1685    0.0042    1.0349 H         1 <0>         0.4349
@<TRIPOS>BOND
     1    1    2 1
     2    1   27 1
     3    1   28 1
     4    1   29 1
     5    2    3 1
     6    2   30 1
     7    2   31 1
     8    3   32 1
     9    3   33 1
    10    3   48 1
    11    4    5 1
    12    4   34 1
    13    4   35 1
    14    4   48 1
    15    5    6 1
    16    5    7 1
    17    5   26 1
    18    7    8 1
    19    7   36 1
    20    7   37 1
    21    8    9 1
    22    9   19 ar
    23    9   10 ar
    24   10   11 ar
    25   10   38 1
    26   11   12 ar
    27   11   39 1
    28   12   18 ar
    29   12   13 1
    30   13   14 2
    31   13   15 1
    32   15   16 2
    33   15   40 1
    34   16   17 1
    35   16   20 1
    36   17   18 1
    37   18   19 ar
    38   19   41 1
    39   20   25 ar
    40   20   21 ar
    41   21   22 ar
    42   21   42 1
    43   22   23 ar
    44   22   43 1
    45   23   24 ar
    46   23   44 1
    47   24   25 ar
    48   24   45 1
    49   25   46 1
    50   26   47 1
    51   48   49 1
    52   48   50 1
@<TRIPOS>MOLECULE
ZINC00968257
   45    47     0     0     0
SMALL
USER_CHARGES

@<TRIPOS>ATOM
      1 C1         -0.0178    1.4648    0.0101 C.3       1 <0>        -0.0532
      2 N1          0.0021   -0.0041    0.0020 N.4       1 <0>        -0.3871
      3 C2         -1.3761   -0.5125    0.0124 C.3       1 <0>        -0.0473
      4 C3          0.6897   -0.4778   -1.2066 C.3       1 <0>        -0.0075
      5 C4          2.1588   -0.0534   -1.1571 C.3       1 <0>        -0.1202
      6 C5          2.8641   -0.5394   -2.3970 C.2       1 <0>        -0.1679
      7 C6          3.5250    0.3270   -3.1738 C.2       1 <0>         0.0063
      8 C7          3.5927    1.7771   -2.8453 C.ar      1 <0>        -0.0588
      9 C8          4.0673    2.1470   -1.5880 C.ar      1 <0>        -0.1130
     10 C9          4.1752    3.4781   -1.2462 C.ar      1 <0>        -0.1230
     11 C10         3.8096    4.4415   -2.1695 C.ar      1 <0>        -0.1074
     12 C11         3.3311    4.0773   -3.4068 C.ar      1 <0>        -0.1261
     13 C12         3.1954    2.7364   -3.7740 C.ar      1 <0>        -0.0534
     14 C13         2.5869    2.5170   -5.1377 C.3       1 <0>        -0.0764
     15 C14         2.3799    1.0595   -5.4939 C.3       1 <0>        -0.0807
     16 C15         3.6776    0.3005   -5.5991 C.ar      1 <0>        -0.0737
     17 C16         4.2334   -0.1117   -4.4047 C.ar      1 <0>        -0.0690
     18 C17         5.3905   -0.8775   -4.3777 C.ar      1 <0>        -0.0956
     19 C18         6.0025   -1.1900   -5.5806 C.ar      1 <0>        -0.1191
     20 C19         5.4694   -0.7426   -6.7762 C.ar      1 <0>        -0.1081
     21 C20         4.2868    0.0121   -6.7962 C.ar      1 <0>        -0.1083
     22 H1          1.0047    1.8421    0.0024 H         1 <0>         0.1238
     23 H2         -0.5450    1.8259   -0.8730 H         1 <0>         0.1221
     24 H3         -0.5280    1.8163    0.9069 H         1 <0>         0.1250
     25 H4         -1.9033   -0.1515   -0.8706 H         1 <0>         0.1216
     26 H5         -1.3613   -1.6024    0.0065 H         1 <0>         0.1236
     27 H6         -1.8863   -0.1610    0.9092 H         1 <0>         0.1246
     28 H7          0.6270   -1.5648   -1.2578 H         1 <0>         0.1321
     29 H8          0.2158   -0.0447   -2.0875 H         1 <0>         0.1294
     30 H9          2.2214    1.0336   -1.1059 H         1 <0>         0.0996
     31 H10         2.6326   -0.4865   -0.2761 H         1 <0>         0.0954
     32 H11         2.8363   -1.5868   -2.6585 H         1 <0>         0.1308
     33 H12         4.3519    1.3857   -0.8767 H         1 <0>         0.1233
     34 H13         4.5405    3.7651   -0.2712 H         1 <0>         0.1290
     35 H14         3.9003    5.4876   -1.9168 H         1 <0>         0.1264
     36 H15         3.0534    4.8470   -4.1116 H         1 <0>         0.1247
     37 H16         1.6223    3.0233   -5.1729 H         1 <0>         0.0854
     38 H17         3.2393    2.9678   -5.8855 H         1 <0>         0.0834
     39 H18         1.7604    0.5939   -4.7274 H         1 <0>         0.0703
     40 H19         1.8587    1.0007   -6.4494 H         1 <0>         0.0792
     41 H20         5.8038   -1.2219   -3.4413 H         1 <0>         0.1267
     42 H21         6.9025   -1.7870   -5.5850 H         1 <0>         0.1278
     43 H22         5.9677   -0.9772   -7.7052 H         1 <0>         0.1274
     44 H23         3.8663    0.3630   -7.7270 H         1 <0>         0.1314
     45 H24         0.4901   -0.3383    0.8195 H         1 <0>         0.4266
@<TRIPOS>BOND
     1    1    2 1
     2    1   22 1
     3    1   23 1
     4    1   24 1
     5    2    3 1
     6    2    4 1
     7    2   45 1
     8    3   25 1
     9    3   26 1
    10    3   27 1
    11    4    5 1
    12    4   28 1
    13    4   29 1
    14    5    6 1
    15    5   30 1
    16    5   31 1
    17    6    7 2
    18    6   32 1
    19    7   17 1
    20    7    8 1
    21    8   13 ar
    22    8    9 ar
    23    9   10 ar
    24    9   33 1
    25   10   11 ar
    26   10   34 1
    27   11   12 ar
    28   11   35 1
    29   12   13 ar
    30   12   36 1
    31   13   14 1
    32   14   15 1
    33   14   37 1
    34   14   38 1
    35   15   16 1
    36   15   39 1
    37   15   40 1
    38   16   21 ar
    39   16   17 ar
    40   17   18 ar
    41   18   19 ar
    42   18   41 1
    43   19   20 ar
    44   19   42 1
    45   20   21 ar
    46   20   43 1
    47   21   44 1
@<TRIPOS>MOLECULE
ZINC01530611
   43    45     0     0     0
SMALL
USER_CHARGES

@<TRIPOS>ATOM
      1 C1         -5.6811    1.3607   -0.3895 C.3       1 <0>        -0.0475
      2 N1         -5.6577   -0.0983   -0.2206 N.4       1 <0>        -0.5096
      3 C2         -4.2653   -0.5656   -0.1914 C.3       1 <0>        -0.0084
      4 C3         -4.2409   -2.0853   -0.0155 C.3       1 <0>        -0.1794
      5 C4         -2.7907   -2.5720    0.0149 C.3       1 <0>         0.1487
      6 N2         -2.7680   -4.0325    0.1272 N.pl3     1 <0>        -0.6107
      7 C5         -2.6913   -4.8424   -1.0108 C.ar      1 <0>         0.1751
      8 C6         -1.6220   -4.6466   -1.8788 C.ar      1 <0>        -0.1410
      9 C7         -1.4736   -5.4397   -2.9971 C.ar      1 <0>        -0.1023
     10 C8         -2.4002   -6.4363   -3.2444 C.ar      1 <0>        -0.1264
     11 C9         -3.4660   -6.6200   -2.3938 C.ar      1 <0>        -0.1102
     12 C10        -3.6460   -5.8156   -1.2664 C.ar      1 <0>        -0.0994
     13 C11        -4.9119   -6.0915   -0.4880 C.3       1 <0>        -0.0689
     14 C12        -5.1138   -5.1475    0.6844 C.3       1 <0>        -0.0774
     15 C13        -4.0023   -5.2798    1.6948 C.ar      1 <0>        -0.0996
     16 C14        -2.8165   -4.6605    1.3756 C.ar      1 <0>         0.1518
     17 C15        -1.7436   -4.6795    2.2507 C.ar      1 <0>        -0.1184
     18 C16        -1.8773   -5.3599    3.4502 C.ar      1 <0>        -0.1095
     19 C17        -3.0600   -6.0057    3.7614 C.ar      1 <0>        -0.1164
     20 C18        -4.1454   -5.9689    2.8764 C.ar      1 <0>        -0.1028
     21 H1         -6.7143    1.7075   -0.4111 H         1 <0>         0.1266
     22 H2         -5.1573    1.8313    0.4426 H         1 <0>         0.1238
     23 H3         -5.1891    1.6261   -1.3252 H         1 <0>         0.1238
     24 H4         -6.1131   -0.3440    0.6456 H         1 <0>         0.4303
     25 H5         -3.7733   -0.3002   -1.1272 H         1 <0>         0.1329
     26 H6         -3.7415   -0.0951    0.6406 H         1 <0>         0.1330
     27 H7         -4.7329   -2.3506    0.9203 H         1 <0>         0.0915
     28 H8         -4.7647   -2.5558   -0.8475 H         1 <0>         0.0913
     29 H9         -2.2869   -2.2703   -0.9034 H         1 <0>         0.0828
     30 H10        -2.2782   -2.1337    0.8713 H         1 <0>         0.0803
     31 H11        -0.9026   -3.8672   -1.6754 H         1 <0>         0.1215
     32 H12        -0.6444   -5.2844   -3.6715 H         1 <0>         0.1277
     33 H13        -2.2869   -7.0730   -4.1093 H         1 <0>         0.1251
     34 H14        -4.1790   -7.4039   -2.6024 H         1 <0>         0.1223
     35 H15        -5.7638   -5.9997   -1.1617 H         1 <0>         0.0796
     36 H16        -4.8754   -7.1138   -0.1117 H         1 <0>         0.0764
     37 H17        -5.1407   -4.1220    0.3160 H         1 <0>         0.0728
     38 H18        -6.0638   -5.3767    1.1673 H         1 <0>         0.0709
     39 H19        -0.8216   -4.1746    2.0032 H         1 <0>         0.1257
     40 H20        -1.0526   -5.3858    4.1470 H         1 <0>         0.1276
     41 H21        -3.1485   -6.5434    4.6939 H         1 <0>         0.1270
     42 H22        -5.0720   -6.4709    3.1123 H         1 <0>         0.1291
     43 H23        -6.1426   -0.5339   -0.9908 H         1 <0>         0.4303
@<TRIPOS>BOND
     1    1    2 1
     2    1   21 1
     3    1   22 1
     4    1   23 1
     5    2    3 1
     6    2   24 1
     7    2   43 1
     8    3    4 1
     9    3   25 1
    10    3   26 1
    11    4    5 1
    12    4   27 1
    13    4   28 1
    14    5    6 1
    15    5   29 1
    16    5   30 1
    17    6   16 1
    18    6    7 1
    19    7   12 ar
    20    7    8 ar
    21    8    9 ar
    22    8   31 1
    23    9   10 ar
    24    9   32 1
    25   10   11 ar
    26   10   33 1
    27   11   12 ar
    28   11   34 1
    29   12   13 1
    30   13   14 1
    31   13   35 1
    32   13   36 1
    33   14   15 1
    34   14   37 1
    35   14   38 1
    36   15   20 ar
    37   15   16 ar
    38   16   17 ar
    39   17   18 ar
    40   17   39 1
    41   18   19 ar
    42   18   40 1
    43   19   20 ar
    44   19   41 1
    45   20   42 1
