@<TRIPOS>MOLECULE
ZINC00056652
   33    33     0     0     0
SMALL
USER_CHARGES

@<TRIPOS>ATOM
      1 C1         -0.0187    1.5258    0.0104 C.3       1 <0>        -0.1867
      2 C2          0.0021   -0.0041    0.0020 C.3       1 <0>         0.0237
      3 C3          0.7182   -0.4975   -1.2568 C.3       1 <0>        -0.1847
      4 N1          0.7126   -0.4907    1.1921 N.4       1 <0>        -0.5036
      5 C4         -0.0398   -0.1189    2.3978 C.3       1 <0>        -0.0470
      6 C5          0.7001   -0.6257    3.6373 C.3       1 <0>         0.1381
      7 H1          1.6931   -0.1778    3.6761 H         1 <0>         0.1328
      8 C6         -0.0717   -0.2443    4.8741 C.ar      1 <0>        -0.1371
      9 C7         -1.0976   -1.0545    5.3242 C.ar      1 <0>        -0.0979
     10 C8         -1.8086   -0.7090    6.4582 C.ar      1 <0>        -0.1233
     11 C9         -1.4934    0.4515    7.1468 C.ar      1 <0>         0.1046
     12 C10        -0.4606    1.2667    6.6941 C.ar      1 <0>         0.0899
     13 C11         0.2513    0.9121    5.5594 C.ar      1 <0>        -0.1137
     14 O1         -0.1475    2.4066    7.3664 O.3       1 <0>        -0.4846
     15 O2         -2.1922    0.7931    8.2624 O.3       1 <0>        -0.4850
     16 O3          0.8214   -2.0480    3.5713 O.3       1 <0>        -0.5470
     17 H2          1.0039    1.9031    0.0027 H         1 <0>         0.0830
     18 H3         -0.5459    1.8868   -0.8726 H         1 <0>         0.1073
     19 H4         -0.5289    1.8773    0.9072 H         1 <0>         0.0808
     20 H5         -1.0205   -0.3814    0.0098 H         1 <0>         0.1384
     21 H6          1.7408   -0.1202   -1.2645 H         1 <0>         0.0824
     22 H7          0.7330   -1.5874   -1.2628 H         1 <0>         0.0825
     23 H8          0.1910   -0.1364   -2.1398 H         1 <0>         0.1075
     24 H9          0.7982   -1.4950    1.1455 H         1 <0>         0.4316
     25 H10        -0.1324    0.9660    2.4481 H         1 <0>         0.1461
     26 H11        -1.0328   -0.5668    2.3589 H         1 <0>         0.1375
     27 H12        -1.3442   -1.9592    4.7884 H         1 <0>         0.1307
     28 H13        -2.6100   -1.3433    6.8073 H         1 <0>         0.1434
     29 H14         1.0558    1.5412    5.2081 H         1 <0>         0.1386
     30 H15         0.5171    2.2853    8.0583 H         1 <0>         0.3970
     31 H16        -1.8205    0.4407    9.0826 H         1 <0>         0.3989
     32 H17        -0.0252   -2.5137    3.5341 H         1 <0>         0.3888
     33 H18         1.6317   -0.0761    1.2281 H         1 <0>         0.4270
@<TRIPOS>BOND
     1    1    2 1
     2    1   17 1
     3    1   18 1
     4    1   19 1
     5    2    3 1
     6    2    4 1
     7    2   20 1
     8    3   21 1
     9    3   22 1
    10    3   23 1
    11    4    5 1
    12    4   24 1
    13    4   33 1
    14    5    6 1
    15    5   25 1
    16    5   26 1
    17    6    7 1
    18    6    8 1
    19    6   16 1
    20    8   13 ar
    21    8    9 ar
    22    9   10 ar
    23    9   27 1
    24   10   11 ar
    25   10   28 1
    26   11   12 ar
    27   11   15 1
    28   12   13 ar
    29   12   14 1
    30   13   29 1
    31   14   30 1
    32   15   31 1
    33   16   32 1
@<TRIPOS>MOLECULE
ZINC00056653
   33    33     0     0     0
SMALL
USER_CHARGES

@<TRIPOS>ATOM
      1 C1         -0.0187    1.5258    0.0104 C.3       1 <0>        -0.1860
      2 C2          0.0021   -0.0041    0.0020 C.3       1 <0>         0.0236
      3 C3          0.7182   -0.4975   -1.2568 C.3       1 <0>        -0.1851
      4 N1          0.7126   -0.4907    1.1921 N.4       1 <0>        -0.5047
      5 C4         -0.0398   -0.1189    2.3978 C.3       1 <0>        -0.0461
      6 C5          0.7001   -0.6257    3.6373 C.3       1 <0>         0.1376
      7 H1          0.8710   -1.6983    3.5452 H         1 <0>         0.1318
      8 C6         -0.1305   -0.3530    4.8648 C.ar      1 <0>        -0.1366
      9 C7         -0.1412    0.9117    5.4233 C.ar      1 <0>        -0.0991
     10 C8         -0.9016    1.1669    6.5493 C.ar      1 <0>        -0.1234
     11 C9         -1.6555    0.1542    7.1203 C.ar      1 <0>         0.1047
     12 C10        -1.6451   -1.1185    6.5578 C.ar      1 <0>         0.0901
     13 C11        -0.8845   -1.3664    5.4264 C.ar      1 <0>        -0.1130
     14 O1         -2.3834   -2.1157    7.1146 O.3       1 <0>        -0.4824
     15 O2         -2.4037    0.4035    8.2282 O.3       1 <0>        -0.4834
     16 O3          1.9549    0.0485    3.7518 O.3       1 <0>        -0.5453
     17 H2          1.0039    1.9031    0.0027 H         1 <0>         0.0832
     18 H3         -0.5459    1.8868   -0.8726 H         1 <0>         0.1072
     19 H4         -0.5289    1.8773    0.9072 H         1 <0>         0.0796
     20 H5         -1.0205   -0.3814    0.0098 H         1 <0>         0.1387
     21 H6          1.7408   -0.1202   -1.2645 H         1 <0>         0.0826
     22 H7          0.7330   -1.5874   -1.2628 H         1 <0>         0.0827
     23 H8          0.1910   -0.1364   -2.1398 H         1 <0>         0.1075
     24 H9          0.7982   -1.4950    1.1455 H         1 <0>         0.4292
     25 H10        -0.1324    0.9660    2.4481 H         1 <0>         0.1385
     26 H11        -1.0328   -0.5668    2.3589 H         1 <0>         0.1439
     27 H12         0.4460    1.7018    4.9792 H         1 <0>         0.1304
     28 H13        -0.9077    2.1555    6.9841 H         1 <0>         0.1435
     29 H14        -0.8776   -2.3524    4.9857 H         1 <0>         0.1390
     30 H15        -3.2817   -2.1833    6.7632 H         1 <0>         0.3947
     31 H16        -3.3050    0.6967    8.0364 H         1 <0>         0.3972
     32 H17         1.8791    1.0087    3.8375 H         1 <0>         0.3889
     33 H18         1.6317   -0.0761    1.2281 H         1 <0>         0.4305
@<TRIPOS>BOND
     1    1    2 1
     2    1   17 1
     3    1   18 1
     4    1   19 1
     5    2    3 1
     6    2    4 1
     7    2   20 1
     8    3   21 1
     9    3   22 1
    10    3   23 1
    11    4    5 1
    12    4   24 1
    13    4   33 1
    14    5    6 1
    15    5   25 1
    16    5   26 1
    17    6    7 1
    18    6    8 1
    19    6   16 1
    20    8   13 ar
    21    8    9 ar
    22    9   10 ar
    23    9   27 1
    24   10   11 ar
    25   10   28 1
    26   11   12 ar
    27   11   15 1
    28   12   13 ar
    29   12   14 1
    30   13   29 1
    31   14   30 1
    32   15   31 1
    33   16   32 1
