@<TRIPOS>MOLECULE
ZINC01636704
   25    25     0     0     0
SMALL
USER_CHARGES

@<TRIPOS>ATOM
      1 C1         -0.0178    1.4636    0.0101 C.3       1 <0>        -0.0435
      2 C2          1.4163    1.9970   -0.0007 C.3       1 <0>         0.0576
      3 H1          1.9452    1.6372    0.8818 H         1 <0>         0.0953
      4 C3          2.1299    1.5015   -1.2619 C.3       1 <0>         0.0740
      5 H2          1.6316    1.9031   -2.1442 H         1 <0>         0.0896
      6 C4          2.0795   -0.0286   -1.2972 C.3       1 <0>         0.1002
      7 H3          2.5366   -0.3867   -2.2197 H         1 <0>         0.1194
      8 C5          0.6208   -0.4870   -1.2383 C.3       1 <0>         0.0442
      9 H4          0.0792   -0.0848   -2.0945 H         1 <0>         0.1594
     10 N1          0.0021   -0.0041    0.0020 N.4       1 <0>        -0.4939
     11 C6          0.5654   -2.0156   -1.2729 C.3       1 <0>         0.0552
     12 O1         -0.7972   -2.4415   -1.3354 O.3       1 <0>        -0.5823
     13 O2          2.7918   -0.5555   -0.1760 O.3       1 <0>        -0.5657
     14 O3          3.4911    1.9360   -1.2427 O.3       1 <0>        -0.5491
     15 O4          1.3941    3.4258    0.0058 O.3       1 <0>        -0.5404
     16 H5         -0.5288    1.8147    0.9066 H         1 <0>         0.1416
     17 H6         -0.5458    1.8242   -0.8727 H         1 <0>         0.1407
     18 H7          0.5329   -0.3366    0.7931 H         1 <0>         0.4344
     19 H8          1.1002   -2.3788   -2.1504 H         1 <0>         0.0978
     20 H9          1.0304   -2.4165   -0.3722 H         1 <0>         0.0847
     21 H10        -0.9084   -3.4018   -1.3601 H         1 <0>         0.4135
     22 H11         3.7244   -0.3017   -0.1479 H         1 <0>         0.4180
     23 H12         3.5970    2.8968   -1.2145 H         1 <0>         0.4076
     24 H13         0.9534    3.8088    0.7767 H         1 <0>         0.4003
     25 H14        -0.9428   -0.3526    0.0632 H         1 <0>         0.4412
@<TRIPOS>BOND
     1    1   10 1
     2    1    2 1
     3    1   16 1
     4    1   17 1
     5    2    3 1
     6    2    4 1
     7    2   15 1
     8    4    5 1
     9    4    6 1
    10    4   14 1
    11    6    7 1
    12    6    8 1
    13    6   13 1
    14    8    9 1
    15    8   10 1
    16    8   11 1
    17   10   18 1
    18   10   25 1
    19   11   12 1
    20   11   19 1
    21   11   20 1
    22   12   21 1
    23   13   22 1
    24   14   23 1
    25   15   24 1
