@<TRIPOS>MOLECULE
ZINC03782818
   51    55     0     0     0
SMALL
USER_CHARGES

@<TRIPOS>ATOM
      1 C1          0.0895   -5.1806   -0.3315 C.3       1 <0>        -0.1532
      2 C2          0.1330   -3.6520   -0.2848 C.3       1 <0>         0.0824
      3 O1          0.3156   -3.1400   -1.6063 O.3       1 <0>        -0.2881
      4 C3          0.3760   -1.7953   -1.7411 C.2       1 <0>         0.4632
      5 N1          0.2859   -0.9373   -0.7589 N.2       1 <0>        -0.5521
      6 C4          0.3865    0.3269   -1.2500 C.ar      1 <0>         0.0540
      7 C5          0.3563    1.5910   -0.6579 C.ar      1 <0>        -0.0950
      8 C6          0.4862    2.7237   -1.4351 C.ar      1 <0>        -0.1326
      9 C7          0.6472    2.6260   -2.8039 C.ar      1 <0>        -0.0984
     10 C8          0.6807    1.3733   -3.4209 C.ar      1 <0>        -0.1052
     11 C9          0.5501    0.2157   -2.6400 C.ar      1 <0>         0.0828
     12 N2          0.5458   -1.1324   -2.9221 N.pl3     1 <0>        -0.4528
     13 C10         0.6925   -1.7423   -4.2461 C.3       1 <0>         0.1335
     14 C11         2.1231   -2.1719   -4.4455 C.ar      1 <0>        -0.0407
     15 C12         3.1417   -1.4986   -3.7952 C.ar      1 <0>        -0.1014
     16 C13         4.4536   -1.8875   -3.9739 C.ar      1 <0>        -0.1027
     17 C14         4.7516   -2.9612   -4.8119 C.ar      1 <0>        -0.0712
     18 C15         3.7208   -3.6359   -5.4646 C.ar      1 <0>         0.0082
     19 C16         2.4122   -3.2416   -5.2737 C.ar      1 <0>        -0.1293
     20 C17         6.1587   -3.3834   -5.0084 C.ar      1 <0>        -0.0192
     21 C18         7.1331   -2.4432   -5.3319 C.ar      1 <0>        -0.1125
     22 C19         8.4423   -2.8406   -5.5141 C.ar      1 <0>        -0.1367
     23 C20         8.7960   -4.1725   -5.3770 C.ar      1 <0>        -0.1319
     24 C21         7.8438   -5.1182   -5.0567 C.ar      1 <0>        -0.1068
     25 C22         6.5180   -4.7340   -4.8635 C.ar      1 <0>         0.0468
     26 C23         5.4946   -5.7426   -4.5146 C.2       1 <0>         0.0721
     27 N3          4.1937   -5.5236   -4.3126 N.2       1 <0>        -0.3355
     28 N4          3.6493   -6.6577   -4.0308 N.2       1 <0>        -0.1935
     29 N5          4.5498   -7.5771   -4.0472 N.2       1 <0>        -0.2018
     30 N6          5.6889   -7.0521   -4.3454 N.2       1 <0>        -0.3731
     31 C24         0.8512    1.2690   -4.8788 C.2       1 <0>         0.5159
     32 O2          0.3623    2.1159   -5.6140 O.co2     1 <0>        -0.6872
     33 O3          1.4820    0.3354   -5.3557 O.co2     1 <0>        -0.6546
     34 H1         -0.7389   -5.5014   -0.9632 H         1 <0>         0.0642
     35 H2          1.0262   -5.5584   -0.7413 H         1 <0>         0.0734
     36 H3         -0.0498   -5.5712    0.6765 H         1 <0>         0.0762
     37 H4         -0.8038   -3.2742    0.1250 H         1 <0>         0.0629
     38 H5          0.9614   -3.3312    0.3469 H         1 <0>         0.0652
     39 H6          0.2307    1.6824    0.4109 H         1 <0>         0.1156
     40 H7          0.4613    3.6973   -0.9684 H         1 <0>         0.1171
     41 H8          0.7472    3.5217   -3.3991 H         1 <0>         0.1246
     42 H9          0.0385   -2.6111   -4.3204 H         1 <0>         0.0722
     43 H10         0.4209   -1.0165   -5.0126 H         1 <0>         0.1566
     44 H11         2.9097   -0.6668   -3.1466 H         1 <0>         0.1020
     45 H12         5.2480   -1.3609   -3.4660 H         1 <0>         0.1026
     46 H13         3.9457   -4.4684   -6.1149 H         1 <0>         0.1062
     47 H14         1.6126   -3.7663   -5.7753 H         1 <0>         0.1063
     48 H15         6.8645   -1.4028   -5.4408 H         1 <0>         0.1208
     49 H16         9.1954   -2.1084   -5.7653 H         1 <0>         0.1130
     50 H17         9.8233   -4.4727   -5.5221 H         1 <0>         0.1131
     51 H18         8.1264   -6.1553   -4.9517 H         1 <0>         0.1246
@<TRIPOS>BOND
     1    1    2 1
     2    1   34 1
     3    1   35 1
     4    1   36 1
     5    2    3 1
     6    2   37 1
     7    2   38 1
     8    3    4 1
     9    4   12 1
    10    4    5 2
    11    5    6 1
    12    6   11 ar
    13    6    7 ar
    14    7    8 ar
    15    7   39 1
    16    8    9 ar
    17    8   40 1
    18    9   10 ar
    19    9   41 1
    20   10   11 ar
    21   10   31 1
    22   11   12 1
    23   12   13 1
    24   13   14 1
    25   13   42 1
    26   13   43 1
    27   14   19 ar
    28   14   15 ar
    29   15   16 ar
    30   15   44 1
    31   16   17 ar
    32   16   45 1
    33   17   18 ar
    34   17   20 1
    35   18   19 ar
    36   18   46 1
    37   19   47 1
    38   20   25 ar
    39   20   21 ar
    40   21   22 ar
    41   21   48 1
    42   22   23 ar
    43   22   49 1
    44   23   24 ar
    45   23   50 1
    46   24   25 ar
    47   24   51 1
    48   25   26 1
    49   26   30 2
    50   26   27 1
    51   27   28 1
    52   28   29 2
    53   29   30 1
    54   31   32 2
    55   31   33 1
@<TRIPOS>MOLECULE
ZINC03782818
   52    56     0     0     0
SMALL
USER_CHARGES

@<TRIPOS>ATOM
      1 C1          0.0895   -5.1806   -0.3315 C.3       1 <0>        -0.1561
      2 C2          0.1330   -3.6520   -0.2848 C.3       1 <0>         0.0431
      3 O1          0.3156   -3.1400   -1.6063 O.3       1 <0>        -0.2529
      4 C3          0.3760   -1.7953   -1.7411 C.cat     1 <0>         0.5549
      5 N1          0.2859   -0.9373   -0.7589 N.pl3     1 <0>        -0.5380
      6 C4          0.3865    0.3269   -1.2500 C.ar      1 <0>         0.0428
      7 C5          0.3563    1.5910   -0.6579 C.ar      1 <0>        -0.1004
      8 C6          0.4862    2.7237   -1.4351 C.ar      1 <0>        -0.0886
      9 C7          0.6472    2.6260   -2.8039 C.ar      1 <0>        -0.0626
     10 C8          0.6807    1.3733   -3.4209 C.ar      1 <0>        -0.0796
     11 C9          0.5501    0.2157   -2.6400 C.ar      1 <0>         0.1123
     12 N2          0.5458   -1.1324   -2.9221 N.pl3     1 <0>        -0.3864
     13 C10         0.6925   -1.7423   -4.2461 C.3       1 <0>         0.1264
     14 C11         2.1231   -2.1719   -4.4455 C.ar      1 <0>        -0.0673
     15 C12         3.1417   -1.4986   -3.7952 C.ar      1 <0>        -0.1124
     16 C13         4.4536   -1.8875   -3.9739 C.ar      1 <0>        -0.1013
     17 C14         4.7516   -2.9612   -4.8119 C.ar      1 <0>        -0.0485
     18 C15         3.7208   -3.6359   -5.4646 C.ar      1 <0>         0.0142
     19 C16         2.4122   -3.2416   -5.2737 C.ar      1 <0>        -0.1183
     20 C17         6.1587   -3.3834   -5.0084 C.ar      1 <0>        -0.0348
     21 C18         7.1331   -2.4432   -5.3319 C.ar      1 <0>        -0.1093
     22 C19         8.4423   -2.8406   -5.5141 C.ar      1 <0>        -0.1346
     23 C20         8.7960   -4.1725   -5.3770 C.ar      1 <0>        -0.1237
     24 C21         7.8438   -5.1182   -5.0567 C.ar      1 <0>        -0.1050
     25 C22         6.5180   -4.7340   -4.8635 C.ar      1 <0>         0.0486
     26 C23         5.4946   -5.7426   -4.5146 C.2       1 <0>         0.0745
     27 N3          4.1937   -5.5236   -4.3126 N.2       1 <0>        -0.3488
     28 N4          3.6493   -6.6577   -4.0308 N.2       1 <0>        -0.1955
     29 N5          4.5498   -7.5771   -4.0472 N.2       1 <0>        -0.1947
     30 N6          5.6889   -7.0521   -4.3454 N.2       1 <0>        -0.3664
     31 C24         0.8512    1.2690   -4.8788 C.2       1 <0>         0.5106
     32 O2          0.3623    2.1159   -5.6140 O.co2     1 <0>        -0.6575
     33 O3          1.4820    0.3354   -5.3557 O.co2     1 <0>        -0.6401
     34 H1         -0.7389   -5.5014   -0.9632 H         1 <0>         0.0782
     35 H2          1.0262   -5.5584   -0.7413 H         1 <0>         0.0871
     36 H3         -0.0498   -5.5712    0.6765 H         1 <0>         0.0948
     37 H4         -0.8038   -3.2742    0.1250 H         1 <0>         0.0803
     38 H5          0.9614   -3.3312    0.3469 H         1 <0>         0.0822
     39 H6          0.2307    1.6824    0.4109 H         1 <0>         0.1397
     40 H7          0.4613    3.6973   -0.9684 H         1 <0>         0.1451
     41 H8          0.7472    3.5217   -3.3991 H         1 <0>         0.1508
     42 H9          0.0385   -2.6111   -4.3204 H         1 <0>         0.0967
     43 H10         0.4209   -1.0165   -5.0126 H         1 <0>         0.1788
     44 H11         2.9097   -0.6668   -3.1466 H         1 <0>         0.0960
     45 H12         5.2480   -1.3609   -3.4660 H         1 <0>         0.1084
     46 H13         3.9457   -4.4684   -6.1149 H         1 <0>         0.1140
     47 H14         1.6126   -3.7663   -5.7753 H         1 <0>         0.1129
     48 H15         6.8645   -1.4028   -5.4408 H         1 <0>         0.1212
     49 H16         9.1954   -2.1084   -5.7653 H         1 <0>         0.1166
     50 H17         9.8233   -4.4727   -5.5221 H         1 <0>         0.1173
     51 H18         8.1264   -6.1553   -4.9517 H         1 <0>         0.1276
     52 H19         0.1656   -1.1668    0.1759 H         1 <0>         0.4474
@<TRIPOS>BOND
     1    1    2 1
     2    1   34 1
     3    1   35 1
     4    1   36 1
     5    2    3 1
     6    2   37 1
     7    2   38 1
     8    3    4 1
     9    4   12 1
    10    4    5 2
    11    5    6 1
    12    5   52 1
    13    6   11 ar
    14    6    7 ar
    15    7    8 ar
    16    7   39 1
    17    8    9 ar
    18    8   40 1
    19    9   10 ar
    20    9   41 1
    21   10   11 ar
    22   10   31 1
    23   11   12 1
    24   12   13 1
    25   13   14 1
    26   13   42 1
    27   13   43 1
    28   14   19 ar
    29   14   15 ar
    30   15   16 ar
    31   15   44 1
    32   16   17 ar
    33   16   45 1
    34   17   18 ar
    35   17   20 1
    36   18   19 ar
    37   18   46 1
    38   19   47 1
    39   20   25 ar
    40   20   21 ar
    41   21   22 ar
    42   21   48 1
    43   22   23 ar
    44   22   49 1
    45   23   24 ar
    46   23   50 1
    47   24   25 ar
    48   24   51 1
    49   25   26 1
    50   26   30 2
    51   26   27 1
    52   27   28 1
    53   28   29 2
    54   29   30 1
    55   31   32 2
    56   31   33 1
@<TRIPOS>MOLECULE
ZINC13745657
   54    57     0     0     0
SMALL
USER_CHARGES
5-isopropenyl-2-propyl-3-[[4-[2-(1H-tetrazol-5-yl)phenyl]phenyl]methyl]imidazole-4-carboxylic acid
@<TRIPOS>ATOM
      1 C1         -2.5714   -1.6655   -1.7624 C.3       1 <0>        -0.1501
      2 C2         -1.3259   -0.7832   -1.6573 C.3       1 <0>        -0.1157
      3 C3         -0.8790   -0.7039   -0.1961 C.3       1 <0>        -0.0355
      4 C4          0.2779    0.2544   -0.0760 C.2       1 <0>         0.1893
      5 N1          1.5269   -0.0433   -0.3132 N.2       1 <0>        -0.4910
      6 C5          2.2967    1.0384   -0.1109 C.2       1 <0>         0.0341
      7 C6          1.4544    2.0760    0.2795 C.2       1 <0>        -0.0211
      8 N2          0.1785    1.5448    0.2917 N.pl3     1 <0>        -0.4102
      9 C7         -1.0536    2.2539    0.6458 C.3       1 <0>         0.1391
     10 C8         -1.3594    2.0319    2.1046 C.ar      1 <0>        -0.0934
     11 C9         -2.2058    1.0050    2.4826 C.ar      1 <0>        -0.1212
     12 C10        -2.4850    0.7934    3.8174 C.ar      1 <0>         0.0039
     13 C11        -1.9210    1.6237    4.7849 C.ar      1 <0>        -0.0567
     14 C12        -1.0732    2.6606    4.3975 C.ar      1 <0>        -0.1072
     15 C13        -0.7972    2.8593    3.0601 C.ar      1 <0>        -0.1102
     16 C14        -2.2217    1.4054    6.2197 C.ar      1 <0>        -0.0200
     17 C15        -1.1872    1.3282    7.1481 C.ar      1 <0>        -0.1123
     18 C16        -1.4719    1.1296    8.4840 C.ar      1 <0>        -0.1321
     19 C17        -2.7832    0.9953    8.9088 C.ar      1 <0>        -0.1303
     20 C18        -3.8211    1.0639    8.0023 C.ar      1 <0>        -0.1022
     21 C19        -3.5524    1.2693    6.6500 C.ar      1 <0>         0.0436
     22 C20        -4.6608    1.3430    5.6745 C.2       1 <0>         0.1237
     23 N3         -6.6303    1.3670    4.7062 N.2       1 <0>        -0.2152
     24 N4         -5.7085    1.5429    3.8226 N.2       1 <0>        -0.1575
     25 N5         -4.5497    1.5311    4.3757 N.2       1 <0>        -0.3731
     26 C21         1.8406    3.4470    0.6095 C.2       1 <0>         0.5242
     27 O1          3.0172    3.7527    0.6575 O.co2     1 <0>        -0.6134
     28 C22         3.7608    1.1131   -0.2718 C.2       1 <0>         0.0145
     29 C23         4.3109    0.8842   -1.4587 C.2       1 <0>        -0.2174
     30 C24         4.6326    1.4492    0.9106 C.3       1 <0>        -0.0955
     31 H1         -3.3724   -1.2366   -1.1603 H         1 <0>         0.0569
     32 H2         -2.8898   -1.7220   -2.8034 H         1 <0>         0.0510
     33 H3         -2.3395   -2.6665   -1.3986 H         1 <0>         0.0535
     34 H4         -1.5578    0.2177   -2.0211 H         1 <0>         0.0591
     35 H5         -0.5249   -1.2122   -2.2594 H         1 <0>         0.0660
     36 H6         -0.5688   -1.6922    0.1431 H         1 <0>         0.0846
     37 H7         -1.7075   -0.3522    0.4186 H         1 <0>         0.0819
     38 H8         -0.9254    3.3202    0.4596 H         1 <0>         0.1309
     39 H9         -1.8773    1.8758    0.0403 H         1 <0>         0.0799
     40 H10        -2.6453    0.3650    1.7320 H         1 <0>         0.1085
     41 H11        -3.1422   -0.0116    4.1117 H         1 <0>         0.1089
     42 H12        -0.6337    3.3072    5.1426 H         1 <0>         0.1095
     43 H13        -0.1406    3.6622    2.7588 H         1 <0>         0.1416
     44 H14        -0.1619    1.4279    6.8236 H         1 <0>         0.1219
     45 H15        -0.6669    1.0740    9.2018 H         1 <0>         0.1152
     46 H16        -2.9946    0.8357    9.9558 H         1 <0>         0.1153
     47 H17        -4.8414    0.9580    8.3403 H         1 <0>         0.1262
     48 H18         5.3735    1.0193   -1.5964 H         1 <0>         0.0937
     49 H19         3.6957    0.5629   -2.2861 H         1 <0>         0.0892
     50 H20         4.0080    1.6025    1.7906 H         1 <0>         0.0595
     51 H21         5.3260    0.6289    1.0956 H         1 <0>         0.0499
     52 H22         5.1943    2.3595    0.7007 H         1 <0>         0.0720
     53 N6         -5.9728    1.2283    5.9219 N.2       1 <0>        -0.4181
     54 O2          0.8920    4.3733    0.8607 O.co2     1 <0>        -0.7484
@<TRIPOS>BOND
     1    1    2 1
     2    1   31 1
     3    1   32 1
     4    1   33 1
     5    2    3 1
     6    2   34 1
     7    2   35 1
     8    3    4 1
     9    3   36 1
    10    3   37 1
    11    4    8 1
    12    4    5 2
    13    5    6 1
    14    6    7 2
    15    6   28 1
    16    7    8 1
    17    7   26 1
    18    8    9 1
    19    9   10 1
    20    9   38 1
    21    9   39 1
    22   10   15 ar
    23   10   11 ar
    24   11   12 ar
    25   11   40 1
    26   12   13 ar
    27   12   41 1
    28   13   14 ar
    29   13   16 1
    30   14   15 ar
    31   14   42 1
    32   15   43 1
    33   16   21 ar
    34   16   17 ar
    35   17   18 ar
    36   17   44 1
    37   18   19 ar
    38   18   45 1
    39   19   20 ar
    40   19   46 1
    41   20   21 ar
    42   20   47 1
    43   21   22 1
    44   22   25 2
    45   22   53 1
    46   23   24 2
    47   23   53 1
    48   24   25 1
    49   26   27 2
    50   26   54 1
    51   28   29 2
    52   28   30 1
    53   29   48 1
    54   29   49 1
    55   30   50 1
    56   30   51 1
    57   30   52 1
@<TRIPOS>MOLECULE
ZINC13745657
   55    58     0     0     0
SMALL
USER_CHARGES
5-isopropenyl-2-propyl-3-[[4-[2-(1H-tetrazol-5-yl)phenyl]phenyl]methyl]imidazole-4-carboxylic acid
@<TRIPOS>ATOM
      1 C1         -2.5714   -1.6655   -1.7624 C.3       1 <0>        -0.1555
      2 C2         -1.3259   -0.7832   -1.6573 C.3       1 <0>        -0.1225
      3 C3         -0.8790   -0.7039   -0.1961 C.3       1 <0>        -0.0761
      4 C4          0.2779    0.2544   -0.0760 C.cat     1 <0>         0.2800
      5 C5          2.2967    1.0384   -0.1109 C.2       1 <0>         0.0648
      6 C6          1.4544    2.0760    0.2795 C.2       1 <0>         0.0606
      7 N1          0.1785    1.5448    0.2917 N.pl3     1 <0>        -0.3585
      8 C7         -1.0536    2.2539    0.6458 C.3       1 <0>         0.1318
      9 C8         -1.3594    2.0319    2.1046 C.ar      1 <0>        -0.1259
     10 C9         -2.2058    1.0050    2.4826 C.ar      1 <0>        -0.1199
     11 C10        -2.4850    0.7934    3.8174 C.ar      1 <0>         0.0058
     12 C11        -1.9210    1.6237    4.7849 C.ar      1 <0>        -0.0300
     13 C12        -1.0732    2.6606    4.3975 C.ar      1 <0>        -0.1065
     14 C13        -0.7972    2.8593    3.0601 C.ar      1 <0>        -0.1033
     15 C14        -2.2217    1.4054    6.2197 C.ar      1 <0>        -0.0377
     16 C15        -1.1872    1.3282    7.1481 C.ar      1 <0>        -0.1093
     17 C16        -1.4719    1.1296    8.4840 C.ar      1 <0>        -0.1312
     18 C17        -2.7832    0.9953    8.9088 C.ar      1 <0>        -0.1213
     19 C18        -3.8211    1.0639    8.0023 C.ar      1 <0>        -0.1006
     20 C19        -3.5524    1.2693    6.6500 C.ar      1 <0>         0.0484
     21 C20        -4.6608    1.3430    5.6745 C.2       1 <0>         0.1224
     22 N2         -6.6303    1.3670    4.7062 N.2       1 <0>        -0.2066
     23 N3         -5.7085    1.5429    3.8226 N.2       1 <0>        -0.1571
     24 N4         -4.5497    1.5311    4.3757 N.2       1 <0>        -0.3847
     25 C21         1.8406    3.4470    0.6095 C.2       1 <0>         0.5141
     26 O1          3.0172    3.7527    0.6575 O.co2     1 <0>        -0.5773
     27 C22         3.7608    1.1131   -0.2718 C.2       1 <0>        -0.0402
     28 C23         4.3109    0.8842   -1.4587 C.2       1 <0>        -0.1662
     29 C24         4.6326    1.4492    0.9106 C.3       1 <0>        -0.1017
     30 H1         -3.3724   -1.2366   -1.1603 H         1 <0>         0.0667
     31 H2         -2.8898   -1.7220   -2.8034 H         1 <0>         0.0645
     32 H3         -2.3395   -2.6665   -1.3986 H         1 <0>         0.0604
     33 H4         -1.5578    0.2177   -2.0211 H         1 <0>         0.0741
     34 H5         -0.5249   -1.2122   -2.2594 H         1 <0>         0.0691
     35 H6         -0.5688   -1.6922    0.1431 H         1 <0>         0.1123
     36 H7         -1.7075   -0.3522    0.4186 H         1 <0>         0.1210
     37 H8         -0.9254    3.3202    0.4596 H         1 <0>         0.1554
     38 H9         -1.8773    1.8758    0.0403 H         1 <0>         0.1062
     39 H10        -2.6453    0.3650    1.7320 H         1 <0>         0.1102
     40 H11        -3.1422   -0.0116    4.1117 H         1 <0>         0.1166
     41 H12        -0.6337    3.3072    5.1426 H         1 <0>         0.1173
     42 H13        -0.1406    3.6622    2.7588 H         1 <0>         0.1435
     43 H14        -0.1619    1.4279    6.8236 H         1 <0>         0.1214
     44 H15        -0.6669    1.0740    9.2018 H         1 <0>         0.1184
     45 H16        -2.9946    0.8357    9.9558 H         1 <0>         0.1196
     46 H17        -4.8414    0.9580    8.3403 H         1 <0>         0.1296
     47 H18         5.3735    1.0193   -1.5964 H         1 <0>         0.1208
     48 H19         3.6957    0.5629   -2.2861 H         1 <0>         0.0966
     49 H20         4.0080    1.6025    1.7906 H         1 <0>         0.0664
     50 H21         5.3260    0.6289    1.0956 H         1 <0>         0.0647
     51 H22         5.1943    2.3595    0.7007 H         1 <0>         0.0872
     52 N5         -5.9728    1.2283    5.9219 N.2       1 <0>        -0.4106
     53 O2          0.8920    4.3733    0.8607 O.co2     1 <0>        -0.7053
     54 N6          1.5274   -0.0447   -0.3136 N.pl3     1 <0>        -0.4840
     55 H23         1.8693   -0.9664   -0.6100 H         1 <0>         0.4620
@<TRIPOS>BOND
     1    1    2 1
     2    1   30 1
     3    1   31 1
     4    1   32 1
     5    2    3 1
     6    2   33 1
     7    2   34 1
     8    3    4 1
     9    3   35 1
    10    3   36 1
    11    4    7 1
    12    4   54 2
    13    5    6 2
    14    5   27 1
    15    5   54 1
    16    6    7 1
    17    6   25 1
    18    7    8 1
    19    8    9 1
    20    8   37 1
    21    8   38 1
    22    9   14 ar
    23    9   10 ar
    24   10   11 ar
    25   10   39 1
    26   11   12 ar
    27   11   40 1
    28   12   13 ar
    29   12   15 1
    30   13   14 ar
    31   13   41 1
    32   14   42 1
    33   15   20 ar
    34   15   16 ar
    35   16   17 ar
    36   16   43 1
    37   17   18 ar
    38   17   44 1
    39   18   19 ar
    40   18   45 1
    41   19   20 ar
    42   19   46 1
    43   20   21 1
    44   21   24 2
    45   21   52 1
    46   22   23 2
    47   22   52 1
    48   23   24 1
    49   25   26 2
    50   25   53 1
    51   27   28 2
    52   27   29 1
    53   28   47 1
    54   28   48 1
    55   29   49 1
    56   29   50 1
    57   29   51 1
    58   54   55 1
@<TRIPOS>MOLECULE
ZINC27076225
   54    57     0     0     0
SMALL
USER_CHARGES
5-ethyl-2-propyl-3-[[4-[2-(2H-tetrazol-5-yl)phenyl]phenyl]methyl]imidazole-4-carboxylic acid
@<TRIPOS>ATOM
      1 C1         -2.7740   -2.0727   -1.4737 C.3       1 <0>        -0.1574
      2 C2         -1.4771   -1.2617   -1.4399 C.3       1 <0>        -0.1228
      3 C3         -1.1660   -0.8571    0.0025 C.3       1 <0>        -0.0758
      4 C4          0.0432    0.0421    0.0223 C.cat     1 <0>         0.2677
      5 N1          1.2881   -0.3615    0.0381 N.pl3     1 <0>        -0.4945
      6 C5          2.1023    0.6935    0.0530 C.2       1 <0>         0.0538
      7 C6          1.3265    1.8197    0.0462 C.2       1 <0>         0.0358
      8 N2          0.0144    1.3864    0.0266 N.pl3     1 <0>        -0.3583
      9 C7         -1.1819    2.2320    0.0184 C.3       1 <0>         0.1299
     10 C8         -1.6835    2.4063    1.4288 C.ar      1 <0>        -0.1247
     11 C9         -2.6994    1.5964    1.9038 C.ar      1 <0>        -0.1187
     12 C10        -3.1588    1.7476    3.1963 C.ar      1 <0>         0.0009
     13 C11        -2.6053    2.7268    4.0198 C.ar      1 <0>        -0.0293
     14 C12        -1.5856    3.5438    3.5337 C.ar      1 <0>        -0.1080
     15 C13        -1.1301    3.3793    2.2415 C.ar      1 <0>        -0.1036
     16 C14        -3.0993    2.8989    5.4068 C.ar      1 <0>        -0.0430
     17 C15        -2.2006    2.9452    6.4694 C.ar      1 <0>        -0.1081
     18 C16        -2.6646    3.1113    7.7586 C.ar      1 <0>        -0.1351
     19 C17        -4.0226    3.2213    8.0051 C.ar      1 <0>        -0.1199
     20 C18        -4.9271    3.1717    6.9636 C.ar      1 <0>        -0.1044
     21 C19        -4.4758    3.0104    5.6568 C.ar      1 <0>         0.0536
     22 C20        -5.4442    2.9561    4.5348 C.2       1 <0>         0.0747
     23 N3         -6.7568    3.0469    4.6221 N.2       1 <0>        -0.3633
     24 N4         -7.2384    2.9559    3.4302 N.2       1 <0>        -0.1967
     25 N5         -6.2734    2.8103    2.5907 N.2       1 <0>        -0.1862
     26 N6         -5.1551    2.8109    3.2335 N.2       1 <0>        -0.3566
     27 C21         1.7936    3.2092    0.0575 C.2       1 <0>         0.5165
     28 O1          2.9854    3.4499    0.0748 O.co2     1 <0>        -0.5861
     29 O2          0.9014    4.2206    0.0487 O.co2     1 <0>        -0.7048
     30 C22         3.6086    0.6528    0.0745 C.3       1 <0>        -0.0556
     31 C23         4.0977    0.6334    1.5241 C.3       1 <0>        -0.1465
     32 H1         -2.9976   -2.3636   -2.5107 H         1 <0>         0.0645
     33 H2         -3.5989   -1.4618   -1.0782 H         1 <0>         0.0667
     34 H3         -2.6579   -2.9758   -0.8565 H         1 <0>         0.0605
     35 H4         -0.6522   -1.8726   -1.8354 H         1 <0>         0.0697
     36 H5         -1.5932   -0.3586   -2.0571 H         1 <0>         0.0737
     37 H6         -2.0280   -0.3218    0.4272 H         1 <0>         0.1206
     38 H7         -0.9630   -1.7579    0.6003 H         1 <0>         0.1117
     39 H8         -0.9327    3.2156   -0.4064 H         1 <0>         0.1553
     40 H9         -1.9632    1.7561   -0.5925 H         1 <0>         0.1049
     41 H10        -3.1307    0.8413    1.2634 H         1 <0>         0.1100
     42 H11        -3.9488    1.1116    3.5676 H         1 <0>         0.1159
     43 H12        -1.1533    4.3043    4.1671 H         1 <0>         0.1165
     44 H13        -0.3402    4.0117    1.8639 H         1 <0>         0.1461
     45 H14        -1.1404    2.8555    6.2843 H         1 <0>         0.1201
     46 H15        -1.9647    3.1513    8.5802 H         1 <0>         0.1175
     47 H16        -4.3761    3.3462    9.0179 H         1 <0>         0.1189
     48 H17        -5.9851    3.2584    7.1627 H         1 <0>         0.1293
     49 H18         3.9583   -0.2529   -0.4426 H         1 <0>         0.0760
     50 H19         4.0068    1.5427   -0.4349 H         1 <0>         0.1240
     51 H20         5.1972    0.6037    1.5397 H         1 <0>         0.0695
     52 H21         3.6996   -0.2565    2.0335 H         1 <0>         0.0466
     53 H22         3.7480    1.5391    2.0412 H         1 <0>         0.0704
     54 H23         1.5176   -1.4373    0.0375 H         1 <0>         0.4781
@<TRIPOS>BOND
     1    1    2 1
     2    1   32 1
     3    1   33 1
     4    1   34 1
     5    2    3 1
     6    2   35 1
     7    2   36 1
     8    3    4 1
     9    3   37 1
    10    3   38 1
    11    4    8 1
    12    4    5 2
    13    5    6 1
    14    5   54 1
    15    6    7 2
    16    6   30 1
    17    7    8 1
    18    7   27 1
    19    8    9 1
    20    9   10 1
    21    9   39 1
    22    9   40 1
    23   10   15 ar
    24   10   11 ar
    25   11   12 ar
    26   11   41 1
    27   12   13 ar
    28   12   42 1
    29   13   14 ar
    30   13   16 1
    31   14   15 ar
    32   14   43 1
    33   15   44 1
    34   16   21 ar
    35   16   17 ar
    36   17   18 ar
    37   17   45 1
    38   18   19 ar
    39   18   46 1
    40   19   20 ar
    41   19   47 1
    42   20   21 ar
    43   20   48 1
    44   21   22 1
    45   22   26 1
    46   22   23 2
    47   23   24 1
    48   24   25 2
    49   25   26 1
    50   27   28 2
    51   27   29 1
    52   30   31 1
    53   30   49 1
    54   30   50 1
    55   31   51 1
    56   31   52 1
    57   31   53 1
@<TRIPOS>MOLECULE
ZINC13298439
   52    55     0     0     0
SMALL
USER_CHARGES

@<TRIPOS>ATOM
      1 C1         -0.0187    1.5258    0.0104 C.3       1 <0>        -0.1520
      2 C2          0.0021   -0.0041    0.0020 C.3       1 <0>        -0.1243
      3 C3         -1.4333   -0.5336    0.0129 C.3       1 <0>        -0.1132
      4 C4         -1.4126   -2.0635    0.0045 C.3       1 <0>        -0.0387
      5 C5         -2.8264   -2.5851    0.0152 C.2       1 <0>         0.2364
      6 N1         -3.5317   -2.8487    1.0813 N.2       1 <0>        -0.4833
      7 C6         -4.7425   -3.2933    0.7126 C.2       1 <0>         0.0724
      8 C7         -4.7893   -3.3058   -0.6341 C.2       1 <0>         0.0070
      9 N2         -3.5749   -2.8515   -1.0765 N.pl3     1 <0>        -0.4283
     10 C8         -3.1642   -2.6880   -2.4732 C.3       1 <0>         0.1504
     11 C9         -2.5320   -3.9650   -2.9637 C.ar      1 <0>        -0.1207
     12 C10        -1.1697   -4.1584   -2.8210 C.ar      1 <0>        -0.1279
     13 C11        -0.5852   -5.3258   -3.2683 C.ar      1 <0>        -0.1070
     14 C12        -1.3705   -6.3112   -3.8649 C.ar      1 <0>        -0.0343
     15 C13        -2.7429   -6.1106   -4.0060 C.ar      1 <0>         0.0104
     16 C14        -3.3171   -4.9416   -3.5498 C.ar      1 <0>        -0.0911
     17 C15        -0.7486   -7.5670   -4.3478 C.ar      1 <0>        -0.0450
     18 C16         0.3817   -7.5216   -5.1593 C.ar      1 <0>        -0.1084
     19 C17         0.9577   -8.6934   -5.6068 C.ar      1 <0>        -0.1383
     20 C18         0.4183   -9.9190   -5.2536 C.ar      1 <0>        -0.1199
     21 C19        -0.7015   -9.9834   -4.4501 C.ar      1 <0>        -0.1062
     22 C20        -1.2929   -8.8103   -3.9843 C.ar      1 <0>         0.0581
     23 C21        -2.4897   -8.8737   -3.1184 C.2       1 <0>         0.0616
     24 N3         -3.1640   -7.8399   -2.6109 N.2       1 <0>        -0.3452
     25 N4         -4.1379   -8.3174   -1.9140 N.2       1 <0>        -0.1738
     26 N5         -4.1044   -9.6030   -1.9618 N.2       1 <0>        -0.1968
     27 N6         -3.1117   -9.9760   -2.6951 N.2       1 <0>        -0.3674
     28 C22        -5.9547   -3.7328   -1.4888 C.3       1 <0>         0.1509
     29 O1         -5.8570   -5.1318   -1.7630 O.3       1 <0>        -0.5319
     30 Cl1        -6.0238   -3.7700    1.7825 Cl        1 <0>        -0.0161
     31 H1          1.0039    1.9031    0.0027 H         1 <0>         0.0535
     32 H2         -0.5459    1.8868   -0.8726 H         1 <0>         0.0526
     33 H3         -0.5289    1.8773    0.9072 H         1 <0>         0.0538
     34 H4          0.5123   -0.3556   -0.8948 H         1 <0>         0.0633
     35 H5          0.5293   -0.3651    0.8851 H         1 <0>         0.0653
     36 H6         -1.9435   -0.1821    0.9097 H         1 <0>         0.0707
     37 H7         -1.9605   -0.1726   -0.8702 H         1 <0>         0.0600
     38 H8         -0.9024   -2.4150   -0.8923 H         1 <0>         0.0847
     39 H9         -0.8854   -2.4246    0.8875 H         1 <0>         0.0966
     40 H10        -4.0369   -2.4567   -3.0839 H         1 <0>         0.0952
     41 H11        -2.4431   -1.8739   -2.5470 H         1 <0>         0.0983
     42 H12        -0.5623   -3.3942   -2.3590 H         1 <0>         0.1109
     43 H13         0.4786   -5.4755   -3.1566 H         1 <0>         0.1139
     44 H14        -3.3562   -6.8705   -4.4674 H         1 <0>         0.1153
     45 H15        -4.3808   -4.7869   -3.6546 H         1 <0>         0.1143
     46 H16         0.8076   -6.5694   -5.4391 H         1 <0>         0.1193
     47 H17         1.8342   -8.6542   -6.2365 H         1 <0>         0.1164
     48 H18         0.8767  -10.8298   -5.6096 H         1 <0>         0.1178
     49 H19        -1.1173  -10.9425   -4.1788 H         1 <0>         0.1287
     50 H20        -6.8863   -3.5303   -0.9604 H         1 <0>         0.0664
     51 H21        -5.9406   -3.1769   -2.4263 H         1 <0>         0.0471
     52 H22        -6.5760   -5.4766   -2.3100 H         1 <0>         0.3784
@<TRIPOS>BOND
     1    1    2 1
     2    1   31 1
     3    1   32 1
     4    1   33 1
     5    2    3 1
     6    2   34 1
     7    2   35 1
     8    3    4 1
     9    3   36 1
    10    3   37 1
    11    4    5 1
    12    4   38 1
    13    4   39 1
    14    5    9 1
    15    5    6 2
    16    6    7 1
    17    7    8 2
    18    7   30 1
    19    8    9 1
    20    8   28 1
    21    9   10 1
    22   10   11 1
    23   10   40 1
    24   10   41 1
    25   11   16 ar
    26   11   12 ar
    27   12   13 ar
    28   12   42 1
    29   13   14 ar
    30   13   43 1
    31   14   15 ar
    32   14   17 1
    33   15   16 ar
    34   15   44 1
    35   16   45 1
    36   17   22 ar
    37   17   18 ar
    38   18   19 ar
    39   18   46 1
    40   19   20 ar
    41   19   47 1
    42   20   21 ar
    43   20   48 1
    44   21   22 ar
    45   21   49 1
    46   22   23 1
    47   23   27 2
    48   23   24 1
    49   24   25 1
    50   25   26 2
    51   26   27 1
    52   28   29 1
    53   28   50 1
    54   28   51 1
    55   29   52 1
@<TRIPOS>MOLECULE
ZINC13760710
   55    59     0     0     0
SMALL
USER_CHARGES

@<TRIPOS>ATOM
      1 C1         -0.9597    1.3515   -3.7393 C.3       1 <0>        -0.1529
      2 C2         -0.5540   -0.0539   -3.2910 C.3       1 <0>         0.0773
      3 O1         -1.7086   -0.7590   -2.8309 O.3       1 <0>        -0.2962
      4 C3         -1.5215   -2.0262   -2.3958 C.2       1 <0>         0.4685
      5 N1         -0.3708   -2.6458   -2.3602 N.2       1 <0>        -0.5340
      6 C4         -0.5463   -3.9015   -1.8686 C.ar      1 <0>         0.0600
      7 C5          0.3239   -4.9656   -1.6229 C.ar      1 <0>        -0.0489
      8 C6         -0.1593   -6.1500   -1.1065 C.ar      1 <0>        -0.1327
      9 C7         -1.5042   -6.3012   -0.8258 C.ar      1 <0>        -0.0495
     10 C8         -2.3943   -5.2528   -1.0629 C.ar      1 <0>        -0.0888
     11 C9         -1.9141   -4.0450   -1.5869 C.ar      1 <0>         0.1036
     12 N2         -2.5048   -2.8460   -1.9230 N.pl3     1 <0>        -0.4609
     13 C10        -3.9264   -2.5142   -1.7994 C.3       1 <0>         0.1345
     14 C11        -4.7102   -3.2645   -2.8453 C.ar      1 <0>        -0.1113
     15 C12        -4.5395   -2.9604   -4.1839 C.ar      1 <0>        -0.1242
     16 C13        -5.2544   -3.6440   -5.1462 C.ar      1 <0>        -0.1047
     17 C14        -6.1501   -4.6428   -4.7668 C.ar      1 <0>        -0.0361
     18 C15        -6.3180   -4.9448   -3.4161 C.ar      1 <0>         0.0059
     19 C16        -5.5933   -4.2583   -2.4632 C.ar      1 <0>        -0.1547
     20 C17        -6.9214   -5.3803   -5.7955 C.ar      1 <0>        -0.0430
     21 C18        -7.6141   -4.6855   -6.7831 C.ar      1 <0>        -0.1092
     22 C19        -8.3311   -5.3762   -7.7392 C.ar      1 <0>        -0.1376
     23 C20        -8.3671   -6.7605   -7.7240 C.ar      1 <0>        -0.1208
     24 C21        -7.6867   -7.4659   -6.7528 C.ar      1 <0>        -0.1056
     25 C22        -6.9528   -6.7850   -5.7830 C.ar      1 <0>         0.0560
     26 C23        -6.2172   -7.5361   -4.7433 C.2       1 <0>         0.0635
     27 N3         -6.1571   -8.8625   -4.6083 N.2       1 <0>        -0.3669
     28 N4         -5.4174   -9.1142   -3.5828 N.2       1 <0>        -0.2006
     29 N5         -5.0114   -8.0061   -3.0694 N.2       1 <0>        -0.1650
     30 N6         -5.4778   -7.0214   -3.7587 N.2       1 <0>        -0.3492
     31 C24        -3.8285   -5.4144   -0.7639 C.2       1 <0>         0.5089
     32 O2         -4.4372   -4.5225   -0.2067 O.2       1 <0>        -0.5238
     33 O3         -4.4647   -6.5513   -1.1086 O.3       1 <0>        -0.2762
     34 C25        -5.8545   -6.6396   -0.7883 C.3       1 <0>         0.0357
     35 H1         -0.0790    1.8894   -4.0903 H         1 <0>         0.0833
     36 H2         -1.6873    1.2791   -4.5478 H         1 <0>         0.0670
     37 H3         -1.4020    1.8873   -2.8994 H         1 <0>         0.0662
     38 H4         -0.1117   -0.5897   -4.1309 H         1 <0>         0.0712
     39 H5          0.1736    0.0185   -2.4826 H         1 <0>         0.0709
     40 H6          1.3771   -4.8613   -1.8379 H         1 <0>         0.1323
     41 H7          0.5206   -6.9681   -0.9198 H         1 <0>         0.1368
     42 H8         -1.8678   -7.2345   -0.4217 H         1 <0>         0.1426
     43 H9         -4.2805   -2.7966   -0.8079 H         1 <0>         0.1307
     44 H10        -4.0631   -1.4423   -1.9423 H         1 <0>         0.0966
     45 H11        -3.8456   -2.1863   -4.4766 H         1 <0>         0.1067
     46 H12        -5.1206   -3.4056   -6.1910 H         1 <0>         0.1122
     47 H13        -7.0104   -5.7175   -3.1164 H         1 <0>         0.1157
     48 H14        -5.7192   -4.4944   -1.4169 H         1 <0>         0.1542
     49 H15        -7.5908   -3.6059   -6.8010 H         1 <0>         0.1185
     50 H16        -8.8675   -4.8337   -8.5036 H         1 <0>         0.1160
     51 H17        -8.9315   -7.2910   -8.4766 H         1 <0>         0.1175
     52 H18        -7.7193   -8.5453   -6.7466 H         1 <0>         0.1286
     53 H19        -6.2431   -7.6027   -1.1192 H         1 <0>         0.0993
     54 H20        -5.9856   -6.5459    0.2897 H         1 <0>         0.0422
     55 H21        -6.3949   -5.8376   -1.2912 H         1 <0>         0.0702
@<TRIPOS>BOND
     1    1    2 1
     2    1   35 1
     3    1   36 1
     4    1   37 1
     5    2    3 1
     6    2   38 1
     7    2   39 1
     8    3    4 1
     9    4   12 1
    10    4    5 2
    11    5    6 1
    12    6   11 ar
    13    6    7 ar
    14    7    8 ar
    15    7   40 1
    16    8    9 ar
    17    8   41 1
    18    9   10 ar
    19    9   42 1
    20   10   11 ar
    21   10   31 1
    22   11   12 1
    23   12   13 1
    24   13   14 1
    25   13   43 1
    26   13   44 1
    27   14   19 ar
    28   14   15 ar
    29   15   16 ar
    30   15   45 1
    31   16   17 ar
    32   16   46 1
    33   17   18 ar
    34   17   20 1
    35   18   19 ar
    36   18   47 1
    37   19   48 1
    38   20   25 ar
    39   20   21 ar
    40   21   22 ar
    41   21   49 1
    42   22   23 ar
    43   22   50 1
    44   23   24 ar
    45   23   51 1
    46   24   25 ar
    47   24   52 1
    48   25   26 1
    49   26   27 2
    50   26   30 1
    51   27   28 1
    52   28   29 2
    53   29   30 1
    54   31   32 2
    55   31   33 1
    56   33   34 1
    57   34   53 1
    58   34   54 1
    59   34   55 1
@<TRIPOS>MOLECULE
ZINC13760707
   56    60     0     0     0
SMALL
USER_CHARGES
methyl 2-ethoxy-3-[[4-[2-(5-hydroxy-1,2,4-oxadiazol-3-yl)phenyl]phenyl]methyl]benzimidazole-4-carboxylate
@<TRIPOS>ATOM
      1 C1          1.2022   -1.1491   18.6938 C.3       1 <0>        -0.1545
      2 C2          1.6795   -2.6007   18.6168 C.3       1 <0>         0.0755
      3 O1          1.7607   -3.0035   17.2482 O.3       1 <0>        -0.2883
      4 C3          2.1703   -4.2695   17.0038 C.2       1 <0>         0.4951
      5 N1          2.4939   -5.1441   17.9200 N.2       1 <0>        -0.5314
      6 C4          2.8569   -6.3118   17.3250 C.ar      1 <0>         0.0769
      7 C5          3.2832   -7.5472   17.8170 C.ar      1 <0>        -0.0462
      8 C6          3.5876   -8.5720   16.9453 C.ar      1 <0>        -0.1282
      9 C7          3.4766   -8.3932   15.5792 C.ar      1 <0>        -0.0640
     10 C8          3.0532   -7.1679   15.0624 C.ar      1 <0>        -0.0984
     11 C9          2.7409   -6.1201   15.9391 C.ar      1 <0>         0.0857
     12 N2          2.3062   -4.8240   15.7642 N.pl3     1 <0>        -0.4722
     13 C10         2.0394   -4.1635   14.4841 C.3       1 <0>         0.1489
     14 C11         0.5516   -4.0966   14.2538 C.ar      1 <0>        -0.1235
     15 C12        -0.1908   -3.0846   14.8355 C.ar      1 <0>        -0.0978
     16 C13        -1.5528   -3.0155   14.6243 C.ar      1 <0>        -0.0168
     17 C14        -2.1820   -3.9745   13.8319 C.ar      1 <0>        -0.0400
     18 C15        -1.4295   -4.9950   13.2526 C.ar      1 <0>        -0.1008
     19 C16        -0.0672   -5.0507   13.4662 C.ar      1 <0>        -0.1182
     20 C17        -3.6457   -3.9095   13.6066 C.ar      1 <0>        -0.0312
     21 C18        -4.1591   -3.9833   12.3144 C.ar      1 <0>        -0.1117
     22 C19        -5.5229   -3.9273   12.1095 C.ar      1 <0>        -0.1204
     23 C20        -6.3868   -3.7871   13.1825 C.ar      1 <0>        -0.1235
     24 C21        -5.8942   -3.7072   14.4693 C.ar      1 <0>        -0.0827
     25 C22        -4.5216   -3.7674   14.6942 C.ar      1 <0>         0.0257
     26 C23        -3.9878   -3.6815   16.0749 C.2       1 <0>         0.1910
     27 N3         -4.7125   -3.5388   17.2068 N.2       1 <0>        -0.5915
     28 C24        -3.8327   -3.5123   18.1869 C.2       1 <0>         0.4364
     29 O2         -2.6211   -3.6285   17.6278 O.3       1 <0>        -0.0315
     30 N4         -2.7274   -3.7239   16.4235 N.2       1 <0>        -0.4122
     31 O3         -4.1011   -3.3864   19.5048 O.3       1 <0>        -0.6596
     32 C25         2.9354   -6.9772   13.6057 C.2       1 <0>         0.5125
     33 O4          2.0280   -7.5067   12.9951 O.2       1 <0>        -0.4840
     34 O5          3.8339   -6.2157   12.9509 O.3       1 <0>        -0.3540
     35 C26         3.6560   -6.0721   11.5170 C.3       1 <0>         0.0252
     36 H1          1.1397   -0.8391   19.7474 H         1 <0>         0.0858
     37 H2          0.2097   -1.0642   18.2271 H         1 <0>         0.0731
     38 H3          1.9140   -0.5004   18.1623 H         1 <0>         0.0629
     39 H4          2.6720   -2.6856   19.0835 H         1 <0>         0.0700
     40 H5          0.9677   -3.2494   19.1483 H         1 <0>         0.0796
     41 H6          3.3744   -7.7007   18.8822 H         1 <0>         0.1370
     42 H7          3.9205   -9.5229   17.3342 H         1 <0>         0.1391
     43 H8          3.7185   -9.2048   14.9090 H         1 <0>         0.1355
     44 H9          2.4535   -3.1446   14.5039 H         1 <0>         0.1029
     45 H10         2.5109   -4.7352   13.6712 H         1 <0>         0.0976
     46 H11         0.2971   -2.3448   15.4528 H         1 <0>         0.1228
     47 H12        -2.1307   -2.2224   15.0753 H         1 <0>         0.1193
     48 H13        -1.9117   -5.7409   12.6381 H         1 <0>         0.1187
     49 H14         0.5168   -5.8408   13.0179 H         1 <0>         0.1188
     50 H15        -3.4904   -4.0882   11.4728 H         1 <0>         0.1237
     51 H16        -5.9181   -3.9886   11.1063 H         1 <0>         0.1214
     52 H17        -7.4521   -3.7397   13.0114 H         1 <0>         0.1236
     53 H18        -6.5735   -3.5975   15.3018 H         1 <0>         0.1367
     54 H19         4.4519   -5.4303   11.1112 H         1 <0>         0.1060
     55 H20         2.6766   -5.6148   11.3130 H         1 <0>         0.0673
     56 H21         3.7047   -7.0623   11.0405 H         1 <0>         0.0675
@<TRIPOS>BOND
     1    1    2 1
     2    1   36 1
     3    1   37 1
     4    1   38 1
     5    2    3 1
     6    2   39 1
     7    2   40 1
     8    3    4 1
     9    4   12 1
    10    4    5 2
    11    5    6 1
    12    6   11 ar
    13    6    7 ar
    14    7    8 ar
    15    7   41 1
    16    8    9 ar
    17    8   42 1
    18    9   10 ar
    19    9   43 1
    20   10   11 ar
    21   10   32 1
    22   11   12 1
    23   12   13 1
    24   13   14 1
    25   13   44 1
    26   13   45 1
    27   14   19 ar
    28   14   15 ar
    29   15   16 ar
    30   15   46 1
    31   16   17 ar
    32   16   47 1
    33   17   18 ar
    34   17   20 1
    35   18   19 ar
    36   18   48 1
    37   19   49 1
    38   20   25 ar
    39   20   21 ar
    40   21   22 ar
    41   21   50 1
    42   22   23 ar
    43   22   51 1
    44   23   24 ar
    45   23   52 1
    46   24   25 ar
    47   24   53 1
    48   25   26 1
    49   26   30 2
    50   26   27 1
    51   27   28 2
    52   28   29 1
    53   28   31 1
    54   29   30 1
    55   32   33 2
    56   32   34 1
    57   34   35 1
    58   35   54 1
    59   35   55 1
    60   35   56 1
@<TRIPOS>MOLECULE
ZINC01916018
   56    60     0     0     0
SMALL
USER_CHARGES
2-butyl-3-[[4-[2-(1H-tetrazol-5-yl)phenyl]phenyl]methyl]benzoimidazole-4-carboxylic acid
@<TRIPOS>ATOM
      1 C1          1.1369    2.0338    6.1820 C.3       1 <0>        -0.1508
      2 C2          1.0119    1.7337    4.6869 C.3       1 <0>        -0.1227
      3 C3          1.4093    0.2798    4.4236 C.3       1 <0>        -0.1131
      4 C4          1.2844   -0.0203    2.9286 C.3       1 <0>        -0.0502
      5 C5          1.8081   -1.4054    2.6488 C.2       1 <0>         0.2770
      6 N1          1.0813   -2.4835    2.6085 N.2       1 <0>        -0.5091
      7 C6          1.8711   -3.5537    2.3316 C.ar      1 <0>         0.0342
      8 C7          1.6207   -4.9193    2.1755 C.ar      1 <0>        -0.0880
      9 C8          2.6554   -5.7841    1.8891 C.ar      1 <0>        -0.1341
     10 C9          3.9499   -5.3169    1.7529 C.ar      1 <0>        -0.0915
     11 C10         4.2268   -3.9584    1.9047 C.ar      1 <0>        -0.0847
     12 C11         3.1820   -3.0692    2.1953 C.ar      1 <0>         0.0767
     13 N2          3.1110   -1.7116    2.4006 N.pl3     1 <0>        -0.4566
     14 C12         4.2312   -0.7684    2.3594 C.3       1 <0>         0.1225
     15 C13         4.0927    0.1235    1.1526 C.ar      1 <0>        -0.0875
     16 C14         4.3765   -0.3728   -0.1071 C.ar      1 <0>        -0.0849
     17 C15         4.2460    0.4375   -1.2164 C.ar      1 <0>         0.0071
     18 C16         3.8388    1.7623   -1.0646 C.ar      1 <0>        -0.0582
     19 C17         3.5597    2.2585    0.2081 C.ar      1 <0>        -0.1123
     20 C18         3.6878    1.4370    1.3094 C.ar      1 <0>        -0.1440
     21 C19         3.7036    2.6397   -2.2514 C.ar      1 <0>        -0.0219
     22 C20         2.5377    3.3743   -2.4498 C.ar      1 <0>        -0.1134
     23 C21         2.4177    4.1939   -3.5539 C.ar      1 <0>        -0.1362
     24 C22         3.4477    4.2839   -4.4753 C.ar      1 <0>        -0.1300
     25 C23         4.6084    3.5593   -4.2978 C.ar      1 <0>        -0.1029
     26 C24         4.7490    2.7306   -3.1859 C.ar      1 <0>         0.0503
     27 C25         5.9903    1.9517   -2.9911 C.2       1 <0>         0.1134
     28 N3          7.9837    1.0580   -3.2032 N.2       1 <0>        -0.2146
     29 N4          7.4219    0.6195   -2.1292 N.2       1 <0>        -0.1418
     30 N5          6.2537    1.1347   -1.9923 N.2       1 <0>        -0.3702
     31 C26         5.6067   -3.4611    1.7599 C.2       1 <0>         0.4850
     32 O1          5.8311   -2.4824    1.0756 O.co2     1 <0>        -0.5950
     33 H1          0.4783    1.3700    6.7421 H         1 <0>         0.0515
     34 H2          2.1676    1.8757    6.4994 H         1 <0>         0.0536
     35 H3          0.8538    3.0696    6.3695 H         1 <0>         0.0507
     36 H4          1.6705    2.3975    4.1268 H         1 <0>         0.0651
     37 H5         -0.0188    1.8918    4.3695 H         1 <0>         0.0624
     38 H6          0.7507   -0.3840    4.9837 H         1 <0>         0.0664
     39 H7          2.4400    0.1217    4.7411 H         1 <0>         0.0620
     40 H8          1.8638    0.7086    2.3620 H         1 <0>         0.0980
     41 H9          0.2370    0.0388    2.6324 H         1 <0>         0.0901
     42 H10         0.6146   -5.2981    2.2791 H         1 <0>         0.1160
     43 H11         2.4535   -6.8388    1.7742 H         1 <0>         0.1187
     44 H12         4.7499   -6.0069    1.5288 H         1 <0>         0.1254
     45 H13         4.2270   -0.1596    3.2635 H         1 <0>         0.0703
     46 H14         5.1690   -1.3204    2.2975 H         1 <0>         0.1491
     47 H15         4.6964   -1.3978   -0.2230 H         1 <0>         0.1432
     48 H16         4.4633    0.0476   -2.1999 H         1 <0>         0.1082
     49 H17         3.2442    3.2840    0.3318 H         1 <0>         0.1073
     50 H18         3.4719    1.8203    2.2958 H         1 <0>         0.1079
     51 H19         1.7287    3.3059   -1.7377 H         1 <0>         0.1197
     52 H20         1.5133    4.7651   -3.7025 H         1 <0>         0.1136
     53 H21         3.3417    4.9249   -5.3381 H         1 <0>         0.1145
     54 H22         5.4076    3.6340   -5.0204 H         1 <0>         0.1264
     55 N6          7.0682    1.9244   -3.7869 N.2       1 <0>        -0.4211
     56 O2          6.6194   -4.0917    2.3865 O.co2     1 <0>        -0.7516
@<TRIPOS>BOND
     1    1    2 1
     2    1   33 1
     3    1   34 1
     4    1   35 1
     5    2    3 1
     6    2   36 1
     7    2   37 1
     8    3    4 1
     9    3   38 1
    10    3   39 1
    11    4    5 1
    12    4   40 1
    13    4   41 1
    14    5   13 1
    15    5    6 2
    16    6    7 1
    17    7   12 ar
    18    7    8 ar
    19    8    9 ar
    20    8   42 1
    21    9   10 ar
    22    9   43 1
    23   10   11 ar
    24   10   44 1
    25   11   12 ar
    26   11   31 1
    27   12   13 1
    28   13   14 1
    29   14   15 1
    30   14   45 1
    31   14   46 1
    32   15   20 ar
    33   15   16 ar
    34   16   17 ar
    35   16   47 1
    36   17   18 ar
    37   17   48 1
    38   18   19 ar
    39   18   21 1
    40   19   20 ar
    41   19   49 1
    42   20   50 1
    43   21   26 ar
    44   21   22 ar
    45   22   23 ar
    46   22   51 1
    47   23   24 ar
    48   23   52 1
    49   24   25 ar
    50   24   53 1
    51   25   26 ar
    52   25   54 1
    53   26   27 1
    54   27   30 2
    55   27   55 1
    56   28   29 2
    57   28   55 1
    58   29   30 1
    59   31   32 2
    60   31   56 1
@<TRIPOS>MOLECULE
ZINC01916018
   57    61     0     0     0
SMALL
USER_CHARGES
2-butyl-3-[[4-[2-(1H-tetrazol-5-yl)phenyl]phenyl]methyl]benzoimidazole-4-carboxylic acid
@<TRIPOS>ATOM
      1 C1          1.1369    2.0338    6.1820 C.3       1 <0>        -0.1551
      2 C2          1.0119    1.7337    4.6869 C.3       1 <0>        -0.1235
      3 C3          1.4093    0.2798    4.4236 C.3       1 <0>        -0.1202
      4 C4          1.2844   -0.0203    2.9286 C.3       1 <0>        -0.0892
      5 C5          1.8081   -1.4054    2.6488 C.cat     1 <0>         0.3711
      6 C6          1.8711   -3.5537    2.3316 C.ar      1 <0>         0.0416
      7 C7          1.6207   -4.9193    2.1755 C.ar      1 <0>        -0.1050
      8 C8          2.6554   -5.7841    1.8891 C.ar      1 <0>        -0.0824
      9 C9          3.9499   -5.3169    1.7529 C.ar      1 <0>        -0.0623
     10 C10         4.2268   -3.9584    1.9047 C.ar      1 <0>        -0.0554
     11 C11         3.1820   -3.0692    2.1953 C.ar      1 <0>         0.0959
     12 N1          3.1110   -1.7116    2.4006 N.pl3     1 <0>        -0.3882
     13 C12         4.2312   -0.7684    2.3594 C.3       1 <0>         0.1121
     14 C13         4.0927    0.1235    1.1526 C.ar      1 <0>        -0.1191
     15 C14         4.3765   -0.3728   -0.1071 C.ar      1 <0>        -0.0832
     16 C15         4.2460    0.4375   -1.2164 C.ar      1 <0>         0.0099
     17 C16         3.8388    1.7623   -1.0646 C.ar      1 <0>        -0.0338
     18 C17         3.5597    2.2585    0.2081 C.ar      1 <0>        -0.1102
     19 C18         3.6878    1.4370    1.3094 C.ar      1 <0>        -0.1419
     20 C19         3.7036    2.6397   -2.2514 C.ar      1 <0>        -0.0391
     21 C20         2.5377    3.3743   -2.4498 C.ar      1 <0>        -0.1107
     22 C21         2.4177    4.1939   -3.5539 C.ar      1 <0>        -0.1352
     23 C22         3.4477    4.2839   -4.4753 C.ar      1 <0>        -0.1212
     24 C23         4.6084    3.5593   -4.2978 C.ar      1 <0>        -0.1011
     25 C24         4.7490    2.7306   -3.1859 C.ar      1 <0>         0.0549
     26 C25         5.9903    1.9517   -2.9911 C.2       1 <0>         0.1122
     27 N2          7.9837    1.0580   -3.2032 N.2       1 <0>        -0.2060
     28 N3          7.4219    0.6195   -2.1292 N.2       1 <0>        -0.1417
     29 N4          6.2537    1.1347   -1.9923 N.2       1 <0>        -0.3817
     30 C26         5.6067   -3.4611    1.7599 C.2       1 <0>         0.4761
     31 O1          5.8311   -2.4824    1.0756 O.co2     1 <0>        -0.5803
     32 H1          0.4783    1.3700    6.7421 H         1 <0>         0.0538
     33 H2          2.1676    1.8757    6.4994 H         1 <0>         0.0575
     34 H3          0.8538    3.0696    6.3695 H         1 <0>         0.0595
     35 H4          1.6705    2.3975    4.1268 H         1 <0>         0.0732
     36 H5         -0.0188    1.8918    4.3695 H         1 <0>         0.0685
     37 H6          0.7507   -0.3840    4.9837 H         1 <0>         0.0731
     38 H7          2.4400    0.1217    4.7411 H         1 <0>         0.0757
     39 H8          1.8638    0.7086    2.3620 H         1 <0>         0.1343
     40 H9          0.2370    0.0388    2.6324 H         1 <0>         0.1150
     41 H10         0.6146   -5.2981    2.2791 H         1 <0>         0.1402
     42 H11         2.4535   -6.8388    1.7742 H         1 <0>         0.1464
     43 H12         4.7499   -6.0069    1.5288 H         1 <0>         0.1514
     44 H13         4.2270   -0.1596    3.2635 H         1 <0>         0.0984
     45 H14         5.1690   -1.3204    2.2975 H         1 <0>         0.1707
     46 H15         4.6964   -1.3978   -0.2230 H         1 <0>         0.1446
     47 H16         4.4633    0.0476   -2.1999 H         1 <0>         0.1158
     48 H17         3.2442    3.2840    0.3318 H         1 <0>         0.1151
     49 H18         3.4719    1.8203    2.2958 H         1 <0>         0.1123
     50 H19         1.7287    3.3059   -1.7377 H         1 <0>         0.1190
     51 H20         1.5133    4.7651   -3.7025 H         1 <0>         0.1167
     52 H21         3.3417    4.9249   -5.3381 H         1 <0>         0.1188
     53 H22         5.4076    3.6340   -5.0204 H         1 <0>         0.1298
     54 N5          7.0682    1.9244   -3.7869 N.2       1 <0>        -0.4134
     55 O2          6.6194   -4.0917    2.3865 O.co2     1 <0>        -0.7196
     56 N6          1.0809   -2.4835    2.6086 N.pl3     1 <0>        -0.5079
     57 H23         0.0664   -2.5200    2.7624 H         1 <0>         0.4638
@<TRIPOS>BOND
     1    1    2 1
     2    1   32 1
     3    1   33 1
     4    1   34 1
     5    2    3 1
     6    2   35 1
     7    2   36 1
     8    3    4 1
     9    3   37 1
    10    3   38 1
    11    4    5 1
    12    4   39 1
    13    4   40 1
    14    5   12 1
    15    5   56 2
    16    6   11 ar
    17    6    7 ar
    18    6   56 1
    19    7    8 ar
    20    7   41 1
    21    8    9 ar
    22    8   42 1
    23    9   10 ar
    24    9   43 1
    25   10   11 ar
    26   10   30 1
    27   11   12 1
    28   12   13 1
    29   13   14 1
    30   13   44 1
    31   13   45 1
    32   14   19 ar
    33   14   15 ar
    34   15   16 ar
    35   15   46 1
    36   16   17 ar
    37   16   47 1
    38   17   18 ar
    39   17   20 1
    40   18   19 ar
    41   18   48 1
    42   19   49 1
    43   20   25 ar
    44   20   21 ar
    45   21   22 ar
    46   21   50 1
    47   22   23 ar
    48   22   51 1
    49   23   24 ar
    50   23   52 1
    51   24   25 ar
    52   24   53 1
    53   25   26 1
    54   26   29 2
    55   26   54 1
    56   27   28 2
    57   27   54 1
    58   28   29 1
    59   30   31 2
    60   30   55 1
    61   56   57 1
@<TRIPOS>MOLECULE
ZINC13760709
   53    57     0     0     0
SMALL
USER_CHARGES

@<TRIPOS>ATOM
      1 C1          0.1189   -5.1906   -0.3232 C.3       1 <0>        -0.1520
      2 C2          0.1642   -3.6620   -0.2768 C.3       1 <0>         0.0799
      3 O1          0.3362   -3.1501   -1.5999 O.3       1 <0>        -0.2942
      4 C3          0.3966   -1.8055   -1.7352 C.2       1 <0>         0.4573
      5 N1          0.3157   -0.9474   -0.7522 N.2       1 <0>        -0.5444
      6 C4          0.4133    0.3166   -1.2442 C.ar      1 <0>         0.0536
      7 C5          0.3894    1.5808   -0.6519 C.ar      1 <0>        -0.0910
      8 C6          0.5137    2.7134   -1.4302 C.ar      1 <0>        -0.1288
      9 C7          0.6631    2.6156   -2.8003 C.ar      1 <0>        -0.0916
     10 C8          0.6902    1.3628   -3.4175 C.ar      1 <0>        -0.1099
     11 C9          0.5651    0.2054   -2.6355 C.ar      1 <0>         0.0814
     12 N2          0.5571   -1.1428   -2.9176 N.pl3     1 <0>        -0.4585
     13 C10         0.6921   -1.7528   -4.2427 C.3       1 <0>         0.1273
     14 C11         2.1205   -2.1840   -4.4541 C.ar      1 <0>        -0.0235
     15 C12         3.1452   -1.5117   -3.8126 C.ar      1 <0>        -0.0830
     16 C13         4.4552   -1.9021   -4.0023 C.ar      1 <0>        -0.0904
     17 C14         4.7448   -2.9766   -4.8421 C.ar      1 <0>        -0.1031
     18 C15         3.7078   -3.6506   -5.4856 C.ar      1 <0>        -0.0447
     19 C16         2.4014   -3.2542   -5.2844 C.ar      1 <0>        -0.1169
     20 C17         6.1498   -3.4004   -5.0503 C.ar      1 <0>         0.0356
     21 C18         7.1224   -2.4614   -5.3828 C.ar      1 <0>        -0.1099
     22 C19         8.4296   -2.8603   -5.5759 C.ar      1 <0>        -0.0816
     23 C20         8.7829   -4.1926   -5.4416 C.ar      1 <0>        -0.1282
     24 C21         7.8323   -5.1370   -5.1126 C.ar      1 <0>        -0.0803
     25 C22         6.5088   -4.7511   -4.9078 C.ar      1 <0>        -0.0625
     26 C23         5.4871   -5.7587   -4.5490 C.2       1 <0>         0.3432
     27 N3          5.7136   -7.1095   -4.3747 N.am      1 <0>        -0.6654
     28 C24         4.5468   -7.7020   -4.0541 C.2       1 <0>         0.6094
     29 O2          4.3817   -8.8861   -3.8309 O.2       1 <0>        -0.4908
     30 O3          3.5980   -6.7507   -4.0246 O.3       1 <0>        -0.1455
     31 N4          4.2251   -5.5195   -4.3391 N.2       1 <0>        -0.2541
     32 C25         0.8483    1.2584   -4.8768 C.2       1 <0>         0.5192
     33 O4          0.3538    2.1057   -5.6078 O.co2     1 <0>        -0.6778
     34 O5          1.4742    0.3243   -5.3590 O.co2     1 <0>        -0.6671
     35 H1         -0.7151   -5.5106   -0.9478 H         1 <0>         0.0655
     36 H2          1.0518   -5.5692   -0.7409 H         1 <0>         0.0668
     37 H3         -0.0122   -5.5810    0.6859 H         1 <0>         0.0797
     38 H4         -0.7687   -3.2833    0.1408 H         1 <0>         0.0671
     39 H5          0.9983   -3.3420    0.3478 H         1 <0>         0.0668
     40 H6          0.2729    1.6724    0.4179 H         1 <0>         0.1190
     41 H7          0.4937    3.6870   -0.9633 H         1 <0>         0.1212
     42 H8          0.7588    3.5111   -3.3963 H         1 <0>         0.1277
     43 H9          0.0365   -2.6209   -4.3116 H         1 <0>         0.0777
     44 H10         0.4149   -1.0267   -5.0069 H         1 <0>         0.1645
     45 H11         2.9197   -0.6795   -3.1622 H         1 <0>         0.1155
     46 H12         5.2545   -1.3760   -3.5014 H         1 <0>         0.1151
     47 H13         3.9263   -4.4836   -6.1373 H         1 <0>         0.1108
     48 H14         1.5970   -3.7782   -5.7792 H         1 <0>         0.1190
     49 H15         6.8540   -1.4208   -5.4900 H         1 <0>         0.1401
     50 H16         9.1814   -2.1290   -5.8337 H         1 <0>         0.1333
     51 H17         9.8084   -4.4941   -5.5956 H         1 <0>         0.1329
     52 H18         8.1145   -6.1744   -5.0097 H         1 <0>         0.1264
     53 H19         6.5692   -7.5569   -4.4678 H         1 <0>         0.4398
@<TRIPOS>BOND
     1    1    2 1
     2    1   35 1
     3    1   36 1
     4    1   37 1
     5    2    3 1
     6    2   38 1
     7    2   39 1
     8    3    4 1
     9    4   12 1
    10    4    5 2
    11    5    6 1
    12    6   11 ar
    13    6    7 ar
    14    7    8 ar
    15    7   40 1
    16    8    9 ar
    17    8   41 1
    18    9   10 ar
    19    9   42 1
    20   10   11 ar
    21   10   32 1
    22   11   12 1
    23   12   13 1
    24   13   14 1
    25   13   43 1
    26   13   44 1
    27   14   19 ar
    28   14   15 ar
    29   15   16 ar
    30   15   45 1
    31   16   17 ar
    32   16   46 1
    33   17   18 ar
    34   17   20 1
    35   18   19 ar
    36   18   47 1
    37   19   48 1
    38   20   25 ar
    39   20   21 ar
    40   21   22 ar
    41   21   49 1
    42   22   23 ar
    43   22   50 1
    44   23   24 ar
    45   23   51 1
    46   24   25 ar
    47   24   52 1
    48   25   26 1
    49   26   31 2
    50   26   27 1
    51   27   28 am
    52   27   53 1
    53   28   29 2
    54   28   30 1
    55   30   31 1
    56   32   33 2
    57   32   34 1
@<TRIPOS>MOLECULE
ZINC13760709
   53    57     0     0     0
SMALL
USER_CHARGES

@<TRIPOS>ATOM
      1 C1          3.8396    1.5038    1.0861 C.3       1 <0>        -0.1530
      2 C2          3.2182    0.1094    1.1871 C.3       1 <0>         0.0771
      3 O1          3.4419   -0.6013   -0.0323 O.3       1 <0>        -0.2967
      4 C3          2.9520   -1.8600   -0.1084 C.2       1 <0>         0.4688
      5 N1          2.2897   -2.4668    0.8416 N.2       1 <0>        -0.5320
      6 C4          1.9484   -3.7170    0.4298 C.ar      1 <0>         0.0608
      7 C5          1.2528   -4.7683    1.0307 C.ar      1 <0>        -0.0478
      8 C6          1.0580   -5.9501    0.3466 C.ar      1 <0>        -0.1311
      9 C7          1.5453   -6.1116   -0.9368 C.ar      1 <0>        -0.0497
     10 C8          2.2442   -5.0762   -1.5591 C.ar      1 <0>        -0.0929
     11 C9          2.4474   -3.8710   -0.8733 C.ar      1 <0>         0.1014
     12 N2          3.0706   -2.6834   -1.1904 N.pl3     1 <0>        -0.4636
     13 C10         3.7401   -2.3649   -2.4539 C.3       1 <0>         0.1369
     14 C11         5.0107   -3.1674   -2.5654 C.ar      1 <0>        -0.1097
     15 C12         6.0518   -2.9351   -1.6846 C.ar      1 <0>        -0.1171
     16 C13         7.2176   -3.6672   -1.7815 C.ar      1 <0>        -0.0996
     17 C14         7.3449   -4.6424   -2.7695 C.ar      1 <0>        -0.0478
     18 C15         6.2924   -4.8721   -3.6543 C.ar      1 <0>        -0.0131
     19 C16         5.1294   -4.1374   -3.5444 C.ar      1 <0>        -0.1351
     20 C17         8.5949   -5.4318   -2.8791 C.ar      1 <0>        -0.0223
     21 C18         9.8295   -4.7884   -2.9012 C.ar      1 <0>        -0.1159
     22 C19        10.9908   -5.5273   -3.0029 C.ar      1 <0>        -0.1134
     23 C20        10.9370   -6.9085   -3.0838 C.ar      1 <0>        -0.1276
     24 C21         9.7214   -7.5620   -3.0637 C.ar      1 <0>        -0.0725
     25 C22         8.5407   -6.8323   -2.9553 C.ar      1 <0>         0.0060
     26 C23         7.2328   -7.5304   -2.9270 C.2       1 <0>         0.2799
     27 N3          6.0598   -6.9515   -2.8395 N.2       1 <0>        -0.3916
     28 O2          5.0931   -7.9910   -2.8457 O.3       1 <0>        -0.1670
     29 C24         5.7754   -9.1428   -2.9387 C.2       1 <0>         0.5063
     30 O3          5.2361  -10.3807   -2.9761 O.3       1 <0>        -0.6567
     31 N4          7.0538   -8.8612   -2.9928 N.2       1 <0>        -0.6455
     32 C25         2.7642   -5.2487   -2.9274 C.2       1 <0>         0.5242
     33 O4          2.5830   -4.3823   -3.7599 O.2       1 <0>        -0.5284
     34 O5          3.4405   -6.3672   -3.2551 O.3       1 <0>        -0.4407
     35 H1          4.9114    1.4121    0.9104 H         1 <0>         0.0670
     36 H2          3.3812    2.0469    0.2597 H         1 <0>         0.0664
     37 H3          3.6689    2.0459    2.0162 H         1 <0>         0.0839
     38 H4          3.6766   -0.4337    2.0135 H         1 <0>         0.0717
     39 H5          2.1463    0.2011    1.3627 H         1 <0>         0.0715
     40 H6          0.8669   -4.6559    2.0331 H         1 <0>         0.1335
     41 H7          0.5192   -6.7582    0.8189 H         1 <0>         0.1382
     42 H8          1.3850   -7.0427   -1.4599 H         1 <0>         0.1431
     43 H9          3.0808   -2.6108   -3.2864 H         1 <0>         0.1266
     44 H10         3.9783   -1.3016   -2.4810 H         1 <0>         0.1003
     45 H11         5.9522   -2.1791   -0.9198 H         1 <0>         0.1108
     46 H12         8.0299   -3.4847   -1.0935 H         1 <0>         0.1169
     47 H13         6.3856   -5.6261   -4.4219 H         1 <0>         0.1214
     48 H14         4.3116   -4.3176   -4.2265 H         1 <0>         0.1449
     49 H15         9.8784   -3.7113   -2.8392 H         1 <0>         0.1242
     50 H16        11.9469   -5.0253   -3.0198 H         1 <0>         0.1221
     51 H17        11.8513   -7.4778   -3.1635 H         1 <0>         0.1246
     52 H18         9.6864   -8.6395   -3.1275 H         1 <0>         0.1398
     53 H19         3.7418   -6.3897   -4.1737 H         1 <0>         0.4023
@<TRIPOS>BOND
     1    1    2 1
     2    1   35 1
     3    1   36 1
     4    1   37 1
     5    2    3 1
     6    2   38 1
     7    2   39 1
     8    3    4 1
     9    4   12 1
    10    4    5 2
    11    5    6 1
    12    6   11 ar
    13    6    7 ar
    14    7    8 ar
    15    7   40 1
    16    8    9 ar
    17    8   41 1
    18    9   10 ar
    19    9   42 1
    20   10   11 ar
    21   10   32 1
    22   11   12 1
    23   12   13 1
    24   13   14 1
    25   13   43 1
    26   13   44 1
    27   14   19 ar
    28   14   15 ar
    29   15   16 ar
    30   15   45 1
    31   16   17 ar
    32   16   46 1
    33   17   18 ar
    34   17   20 1
    35   18   19 ar
    36   18   47 1
    37   19   48 1
    38   20   25 ar
    39   20   21 ar
    40   21   22 ar
    41   21   49 1
    42   22   23 ar
    43   22   50 1
    44   23   24 ar
    45   23   51 1
    46   24   25 ar
    47   24   52 1
    48   25   26 1
    49   26   31 1
    50   26   27 2
    51   27   28 1
    52   28   29 1
    53   29   30 1
    54   29   31 2
    55   32   33 2
    56   32   34 1
    57   34   53 1
@<TRIPOS>MOLECULE
ZINC13760709
   54    58     0     0     0
SMALL
USER_CHARGES

@<TRIPOS>ATOM
      1 C1         -2.8875    1.3802    2.8039 C.3       1 <0>        -0.1540
      2 C2         -2.6404    0.0002    2.1912 C.3       1 <0>         0.0767
      3 O1         -1.6805   -0.7061    2.9797 O.3       1 <0>        -0.2966
      4 C3         -1.3478   -1.9522    2.5715 C.2       1 <0>         0.4739
      5 N1         -1.8315   -2.5504    1.5145 N.2       1 <0>        -0.5278
      6 C4         -1.2815   -3.7889    1.4021 C.ar      1 <0>         0.0647
      7 C5         -1.4376   -4.8280    0.4823 C.ar      1 <0>        -0.0406
      8 C6         -0.7254   -5.9995    0.6336 C.ar      1 <0>        -0.1320
      9 C7          0.1488   -6.1625    1.6918 C.ar      1 <0>        -0.0502
     10 C8          0.3222   -5.1393    2.6248 C.ar      1 <0>        -0.1019
     11 C9         -0.3960   -3.9446    2.4803 C.ar      1 <0>         0.0993
     12 N2         -0.4527   -2.7697    3.1985 N.pl3     1 <0>        -0.4674
     13 C10         0.3049   -2.4575    4.4129 C.3       1 <0>         0.1322
     14 C11        -0.2159   -3.2882    5.5574 C.ar      1 <0>        -0.0968
     15 C12        -1.5004   -3.0837    6.0284 C.ar      1 <0>        -0.1050
     16 C13        -1.9826   -3.8410    7.0764 C.ar      1 <0>        -0.0912
     17 C14        -1.1725   -4.8140    7.6604 C.ar      1 <0>        -0.0679
     18 C15         0.1211   -5.0158    7.1811 C.ar      1 <0>        -0.0411
     19 C16         0.5905   -4.2559    6.1291 C.ar      1 <0>        -0.1296
     20 C17        -1.6844   -5.6303    8.7866 C.ar      1 <0>         0.0129
     21 C18        -2.2866   -5.0146    9.8805 C.ar      1 <0>        -0.1072
     22 C19        -2.7615   -5.7785   10.9275 C.ar      1 <0>        -0.0812
     23 C20        -2.6437   -7.1580   10.8984 C.ar      1 <0>        -0.1175
     24 C21        -2.0502   -7.7853    9.8222 C.ar      1 <0>        -0.0783
     25 C22        -1.5699   -7.0301    8.7539 C.ar      1 <0>        -0.0545
     26 C23        -0.9378   -7.6980    7.5954 C.2       1 <0>         0.3436
     27 N3         -0.4451   -7.1001    6.5496 N.2       1 <0>        -0.2716
     28 O2          0.0615   -8.0975    5.6797 O.3       1 <0>        -0.1204
     29 C24        -0.1585   -9.2875    6.2642 C.2       1 <0>         0.6043
     30 O3          0.1422  -10.3752    5.8110 O.2       1 <0>        -0.4822
     31 N4         -0.7665   -9.0597    7.4449 N.am      1 <0>        -0.6659
     32 C25         1.2541   -5.3135    3.7534 C.2       1 <0>         0.5285
     33 O4          2.0490   -4.4358    4.0260 O.2       1 <0>        -0.5151
     34 O5          1.2246   -6.4462    4.4829 O.3       1 <0>        -0.4646
     35 H1         -1.9528    1.9405    2.8263 H         1 <0>         0.0678
     36 H2         -3.6197    1.9190    2.2025 H         1 <0>         0.0868
     37 H3         -3.2661    1.2644    3.8195 H         1 <0>         0.0670
     38 H4         -3.5752   -0.5600    2.1689 H         1 <0>         0.0731
     39 H5         -2.2619    0.1161    1.1757 H         1 <0>         0.0739
     40 H6         -2.1176   -4.7142   -0.3490 H         1 <0>         0.1372
     41 H7         -0.8525   -6.7982   -0.0822 H         1 <0>         0.1404
     42 H8          0.6996   -7.0856    1.7972 H         1 <0>         0.1421
     43 H9          1.3592   -2.6821    4.2512 H         1 <0>         0.1291
     44 H10         0.1911   -1.3998    4.6503 H         1 <0>         0.1069
     45 H11        -2.1269   -2.3298    5.5753 H         1 <0>         0.1202
     46 H12        -2.9853   -3.6801    7.4438 H         1 <0>         0.1246
     47 H13         0.7530   -5.7680    7.6295 H         1 <0>         0.1202
     48 H14         1.5910   -4.4141    5.7543 H         1 <0>         0.1508
     49 H15        -2.3819   -3.9392    9.9101 H         1 <0>         0.1382
     50 H16        -3.2275   -5.2974   11.7747 H         1 <0>         0.1366
     51 H17        -3.0183   -7.7463   11.7230 H         1 <0>         0.1376
     52 H18        -1.9615   -8.8616    9.8059 H         1 <0>         0.1308
     53 H19         1.8721   -6.4686    5.2007 H         1 <0>         0.4005
     54 H20        -1.0399   -9.7387    8.0814 H         1 <0>         0.4408
@<TRIPOS>BOND
     1    1    2 1
     2    1   35 1
     3    1   36 1
     4    1   37 1
     5    2    3 1
     6    2   38 1
     7    2   39 1
     8    3    4 1
     9    4   12 1
    10    4    5 2
    11    5    6 1
    12    6   11 ar
    13    6    7 ar
    14    7    8 ar
    15    7   40 1
    16    8    9 ar
    17    8   41 1
    18    9   10 ar
    19    9   42 1
    20   10   11 ar
    21   10   32 1
    22   11   12 1
    23   12   13 1
    24   13   14 1
    25   13   43 1
    26   13   44 1
    27   14   19 ar
    28   14   15 ar
    29   15   16 ar
    30   15   45 1
    31   16   17 ar
    32   16   46 1
    33   17   18 ar
    34   17   20 1
    35   18   19 ar
    36   18   47 1
    37   19   48 1
    38   20   25 ar
    39   20   21 ar
    40   21   22 ar
    41   21   49 1
    42   22   23 ar
    43   22   50 1
    44   23   24 ar
    45   23   51 1
    46   24   25 ar
    47   24   52 1
    48   25   26 1
    49   26   31 1
    50   26   27 2
    51   27   28 1
    52   28   29 1
    53   29   30 2
    54   29   31 am
    55   31   54 1
    56   32   33 2
    57   32   34 1
    58   34   53 1
@<TRIPOS>MOLECULE
ZINC01551889
   52    55     0     0     0
SMALL
USER_CHARGES
2-[4-[(2-butylbenzoimidazol-1-yl)methyl]phenyl]benzoic acid
@<TRIPOS>ATOM
      1 C1         -1.9165   -0.3515    2.9624 C.3       1 <0>        -0.1521
      2 C2         -1.9356   -0.0073    1.4717 C.3       1 <0>        -0.1241
      3 C3         -1.7948    1.5060    1.2959 C.3       1 <0>        -0.1121
      4 C4         -1.8138    1.8501   -0.1948 C.3       1 <0>        -0.0468
      5 C5         -1.5539    3.3237   -0.3735 C.2       1 <0>         0.2895
      6 N1         -0.3751    3.8728   -0.4162 N.2       1 <0>        -0.4964
      7 C6         -0.5022    5.2140   -0.5861 C.ar      1 <0>         0.0464
      8 C7          0.4149    6.2626   -0.6967 C.ar      1 <0>        -0.0679
      9 C8         -0.0317    7.5424   -0.8659 C.ar      1 <0>        -0.1300
     10 C9         -1.3909    7.8153   -0.9292 C.ar      1 <0>        -0.1054
     11 C10        -2.3138    6.7975   -0.8172 C.ar      1 <0>        -0.1027
     12 C11        -1.8784    5.4897   -0.6505 C.ar      1 <0>         0.0566
     13 N2         -2.5175    4.2738   -0.5130 N.pl3     1 <0>        -0.4771
     14 C12        -3.9650    4.0483   -0.5170 C.3       1 <0>         0.1575
     15 C13        -4.4357    3.8309   -1.9320 C.ar      1 <0>        -0.1280
     16 C14        -4.8704    4.9060   -2.6863 C.ar      1 <0>        -0.1065
     17 C15        -5.2972    4.7139   -3.9844 C.ar      1 <0>        -0.0268
     18 C16        -5.3004    3.4314   -4.5318 C.ar      1 <0>         0.0010
     19 C17        -4.8663    2.3509   -3.7646 C.ar      1 <0>        -0.1130
     20 C18        -4.4365    2.5562   -2.4695 C.ar      1 <0>        -0.1148
     21 C19        -5.7627    3.2177   -5.9233 C.ar      1 <0>        -0.0336
     22 C20        -6.8282    2.3605   -6.1834 C.ar      1 <0>        -0.1234
     23 C21        -7.2554    2.1638   -7.4811 C.ar      1 <0>        -0.1260
     24 C22        -6.6311    2.8155   -8.5321 C.ar      1 <0>        -0.1359
     25 C23        -5.5741    3.6690   -8.2951 C.ar      1 <0>        -0.0799
     26 C24        -5.1312    3.8842   -6.9891 C.ar      1 <0>        -0.1005
     27 C25        -4.0052    4.8006   -6.7286 C.2       1 <0>         0.4831
     28 O1         -3.5495    4.8996   -5.6067 O.co2     1 <0>        -0.6080
     29 H1         -0.9744   -0.0209    3.3996 H         1 <0>         0.0541
     30 H2         -2.7449    0.1510    3.4619 H         1 <0>         0.0526
     31 H3         -2.0168   -1.4296    3.0877 H         1 <0>         0.0537
     32 H4         -2.8777   -0.3379    1.0345 H         1 <0>         0.0634
     33 H5         -1.1072   -0.5098    0.9723 H         1 <0>         0.0657
     34 H6         -0.8527    1.8365    1.7331 H         1 <0>         0.0720
     35 H7         -2.6232    2.0084    1.7953 H         1 <0>         0.0613
     36 H8         -2.7888    1.5998   -0.6131 H         1 <0>         0.0848
     37 H9         -1.0405    1.2797   -0.7093 H         1 <0>         0.0990
     38 H10         1.4749    6.0614   -0.6488 H         1 <0>         0.1245
     39 H11         0.6802    8.3501   -0.9510 H         1 <0>         0.1254
     40 H12        -1.7280    8.8327   -1.0626 H         1 <0>         0.1268
     41 H13        -3.3705    7.0158   -0.8630 H         1 <0>         0.1185
     42 H14        -4.1973    3.1681    0.0825 H         1 <0>         0.0966
     43 H15        -4.4694    4.9180   -0.0959 H         1 <0>         0.0933
     44 H16        -4.8720    5.8981   -2.2597 H         1 <0>         0.1119
     45 H17        -5.6322    5.5546   -4.5739 H         1 <0>         0.1149
     46 H18        -4.8663    1.3554   -4.1834 H         1 <0>         0.1164
     47 H19        -4.0998    1.7201   -1.8745 H         1 <0>         0.1136
     48 H20        -7.3205    1.8489   -5.3695 H         1 <0>         0.1177
     49 H21        -8.0823    1.4976   -7.6784 H         1 <0>         0.1161
     50 H22        -6.9744    2.6544   -9.5433 H         1 <0>         0.1167
     51 H23        -5.0917    4.1735   -9.1192 H         1 <0>         0.1314
     52 O2         -3.4818    5.5279   -7.7350 O.co2     1 <0>        -0.7534
@<TRIPOS>BOND
     1    1    2 1
     2    1   29 1
     3    1   30 1
     4    1   31 1
     5    2    3 1
     6    2   32 1
     7    2   33 1
     8    3    4 1
     9    3   34 1
    10    3   35 1
    11    4    5 1
    12    4   36 1
    13    4   37 1
    14    5   13 1
    15    5    6 2
    16    6    7 1
    17    7   12 ar
    18    7    8 ar
    19    8    9 ar
    20    8   38 1
    21    9   10 ar
    22    9   39 1
    23   10   11 ar
    24   10   40 1
    25   11   12 ar
    26   11   41 1
    27   12   13 1
    28   13   14 1
    29   14   15 1
    30   14   42 1
    31   14   43 1
    32   15   20 ar
    33   15   16 ar
    34   16   17 ar
    35   16   44 1
    36   17   18 ar
    37   17   45 1
    38   18   19 ar
    39   18   21 1
    40   19   20 ar
    41   19   46 1
    42   20   47 1
    43   21   26 ar
    44   21   22 ar
    45   22   23 ar
    46   22   48 1
    47   23   24 ar
    48   23   49 1
    49   24   25 ar
    50   24   50 1
    51   25   26 ar
    52   25   51 1
    53   26   27 1
    54   27   28 2
    55   27   52 1
@<TRIPOS>MOLECULE
ZINC01551889
   53    56     0     0     0
SMALL
USER_CHARGES
2-[4-[(2-butylbenzoimidazol-1-yl)methyl]phenyl]benzoic acid
@<TRIPOS>ATOM
      1 C1         -1.9165   -0.3515    2.9624 C.3       1 <0>        -0.1565
      2 C2         -1.9356   -0.0073    1.4717 C.3       1 <0>        -0.1251
      3 C3         -1.7948    1.5060    1.2959 C.3       1 <0>        -0.1197
      4 C4         -1.8138    1.8501   -0.1948 C.3       1 <0>        -0.0879
      5 C5         -1.5539    3.3237   -0.3735 C.cat     1 <0>         0.3911
      6 C6         -0.5022    5.2140   -0.5861 C.ar      1 <0>         0.0476
      7 C7          0.4149    6.2626   -0.6967 C.ar      1 <0>        -0.0811
      8 C8         -0.0317    7.5424   -0.8659 C.ar      1 <0>        -0.0820
      9 C9         -1.3909    7.8153   -0.9292 C.ar      1 <0>        -0.0702
     10 C10        -2.3138    6.7975   -0.8172 C.ar      1 <0>        -0.0816
     11 C11        -1.8784    5.4897   -0.6505 C.ar      1 <0>         0.0861
     12 N1         -2.5175    4.2738   -0.5130 N.pl3     1 <0>        -0.4148
     13 C12        -3.9650    4.0483   -0.5170 C.3       1 <0>         0.1476
     14 C13        -4.4357    3.8309   -1.9320 C.ar      1 <0>        -0.1582
     15 C14        -4.8704    4.9060   -2.6863 C.ar      1 <0>        -0.1007
     16 C15        -5.2972    4.7139   -3.9844 C.ar      1 <0>        -0.0243
     17 C16        -5.3004    3.4314   -4.5318 C.ar      1 <0>         0.0279
     18 C17        -4.8663    2.3509   -3.7646 C.ar      1 <0>        -0.1141
     19 C18        -4.4365    2.5562   -2.4695 C.ar      1 <0>        -0.1106
     20 C19        -5.7627    3.2177   -5.9233 C.ar      1 <0>        -0.0494
     21 C20        -6.8282    2.3605   -6.1834 C.ar      1 <0>        -0.1200
     22 C21        -7.2554    2.1638   -7.4811 C.ar      1 <0>        -0.1224
     23 C22        -6.6311    2.8155   -8.5321 C.ar      1 <0>        -0.1280
     24 C23        -5.5741    3.6690   -8.2951 C.ar      1 <0>        -0.0784
     25 C24        -5.1312    3.8842   -6.9891 C.ar      1 <0>        -0.1002
     26 C25        -4.0052    4.8006   -6.7286 C.2       1 <0>         0.4873
     27 O1         -3.5495    4.8996   -5.6067 O.co2     1 <0>        -0.6228
     28 H1         -0.9744   -0.0209    3.3996 H         1 <0>         0.0559
     29 H2         -2.7449    0.1510    3.4619 H         1 <0>         0.0571
     30 H3         -2.0168   -1.4296    3.0877 H         1 <0>         0.0627
     31 H4         -2.8777   -0.3379    1.0345 H         1 <0>         0.0727
     32 H5         -1.1072   -0.5098    0.9723 H         1 <0>         0.0711
     33 H6         -0.8527    1.8365    1.7331 H         1 <0>         0.0744
     34 H7         -2.6232    2.0084    1.7953 H         1 <0>         0.0777
     35 H8         -2.7888    1.5998   -0.6131 H         1 <0>         0.1237
     36 H9         -1.0405    1.2797   -0.7093 H         1 <0>         0.1257
     37 H10         1.4749    6.0614   -0.6488 H         1 <0>         0.1479
     38 H11         0.6802    8.3501   -0.9510 H         1 <0>         0.1524
     39 H12        -1.7280    8.8327   -1.0626 H         1 <0>         0.1536
     40 H13        -3.3705    7.0158   -0.8630 H         1 <0>         0.1481
     41 H14        -4.1973    3.1681    0.0825 H         1 <0>         0.1188
     42 H15        -4.4694    4.9180   -0.0959 H         1 <0>         0.1216
     43 H16        -4.8720    5.8981   -2.2597 H         1 <0>         0.1157
     44 H17        -5.6322    5.5546   -4.5739 H         1 <0>         0.1220
     45 H18        -4.8663    1.3554   -4.1834 H         1 <0>         0.1232
     46 H19        -4.0998    1.7201   -1.8745 H         1 <0>         0.1142
     47 H20        -7.3205    1.8489   -5.3695 H         1 <0>         0.1190
     48 H21        -8.0823    1.4976   -7.6784 H         1 <0>         0.1202
     49 H22        -6.9744    2.6544   -9.5433 H         1 <0>         0.1211
     50 H23        -5.0917    4.1735   -9.1192 H         1 <0>         0.1342
     51 O2         -3.4818    5.5279   -7.7350 O.co2     1 <0>        -0.7437
     52 N2         -0.3742    3.8723   -0.4161 N.pl3     1 <0>        -0.5007
     53 H24         0.5165    3.3682   -0.3339 H         1 <0>         0.4716
@<TRIPOS>BOND
     1    1    2 1
     2    1   28 1
     3    1   29 1
     4    1   30 1
     5    2    3 1
     6    2   31 1
     7    2   32 1
     8    3    4 1
     9    3   33 1
    10    3   34 1
    11    4    5 1
    12    4   35 1
    13    4   36 1
    14    5   12 1
    15    5   52 2
    16    6   11 ar
    17    6    7 ar
    18    6   52 1
    19    7    8 ar
    20    7   37 1
    21    8    9 ar
    22    8   38 1
    23    9   10 ar
    24    9   39 1
    25   10   11 ar
    26   10   40 1
    27   11   12 1
    28   12   13 1
    29   13   14 1
    30   13   41 1
    31   13   42 1
    32   14   19 ar
    33   14   15 ar
    34   15   16 ar
    35   15   43 1
    36   16   17 ar
    37   16   44 1
    38   17   18 ar
    39   17   20 1
    40   18   19 ar
    41   18   45 1
    42   19   46 1
    43   20   25 ar
    44   20   21 ar
    45   21   22 ar
    46   21   47 1
    47   22   23 ar
    48   22   48 1
    49   23   24 ar
    50   23   49 1
    51   24   25 ar
    52   24   50 1
    53   25   26 1
    54   26   27 2
    55   26   51 1
    56   52   53 1
@<TRIPOS>MOLECULE
ZINC13451137
   54    58     0     0     0
SMALL
USER_CHARGES
2-butyl-1-[[4-[2-(1H-tetrazol-5-yl)phenyl]phenyl]methyl]benzimidazole
@<TRIPOS>ATOM
      1 C1         -0.6455   -0.2582    3.2377 C.3       1 <0>        -0.1527
      2 C2         -0.7829    0.1470    1.7688 C.3       1 <0>        -0.1236
      3 C3         -0.9702    1.6625    1.6732 C.3       1 <0>        -0.1134
      4 C4         -1.1076    2.0678    0.2043 C.3       1 <0>        -0.0461
      5 C5         -1.1931    3.5690    0.1032 C.2       1 <0>         0.2905
      6 N1         -0.1706    4.3722    0.0550 N.2       1 <0>        -0.4988
      7 C6         -0.6028    5.6564   -0.0326 C.ar      1 <0>         0.0454
      8 C7          0.0499    6.8896   -0.1113 C.ar      1 <0>        -0.0701
      9 C8         -0.6795    8.0418   -0.1917 C.ar      1 <0>        -0.1303
     10 C9         -2.0667    8.0026   -0.1957 C.ar      1 <0>        -0.1079
     11 C10        -2.7318    6.7979   -0.1136 C.ar      1 <0>        -0.1036
     12 C11        -2.0072    5.6162   -0.0371 C.ar      1 <0>         0.0540
     13 N2         -2.3505    4.2818    0.0499 N.pl3     1 <0>        -0.4753
     14 C12        -3.7092    3.7349    0.0789 C.3       1 <0>         0.1539
     15 C13        -4.1969    3.5260   -1.3316 C.ar      1 <0>        -0.1139
     16 C14        -4.7777    4.5745   -2.0222 C.ar      1 <0>        -0.1082
     17 C15        -5.2209    4.3907   -3.3161 C.ar      1 <0>         0.0161
     18 C16        -5.0923    3.1423   -3.9233 C.ar      1 <0>        -0.0382
     19 C17        -4.5113    2.0878   -3.2203 C.ar      1 <0>        -0.1025
     20 C18        -4.0670    2.2849   -1.9288 C.ar      1 <0>        -0.1289
     21 C19        -5.5719    2.9368   -5.3106 C.ar      1 <0>        -0.0362
     22 C20        -4.7400    2.3483   -6.2591 C.ar      1 <0>        -0.1100
     23 C21        -5.1922    2.1544   -7.5487 C.ar      1 <0>        -0.1313
     24 C22        -6.4684    2.5517   -7.9111 C.ar      1 <0>        -0.1217
     25 C23        -7.3050    3.1415   -6.9860 C.ar      1 <0>        -0.1002
     26 C24        -6.8669    3.3402   -5.6777 C.ar      1 <0>         0.0479
     27 C25        -7.7591    3.9721   -4.6825 C.2       1 <0>         0.1224
     28 N3         -9.4516    4.9249   -3.6604 N.2       1 <0>        -0.2059
     29 N4         -8.4726    4.7758   -2.8354 N.2       1 <0>        -0.1569
     30 N5         -7.4744    4.2189   -3.4206 N.2       1 <0>        -0.3856
     31 H1         -1.5453    0.0316    3.7803 H         1 <0>         0.0534
     32 H2         -0.5121   -1.3379    3.3058 H         1 <0>         0.0540
     33 H3          0.2188    0.2428    3.6736 H         1 <0>         0.0538
     34 H4         -1.6473   -0.3541    1.3330 H         1 <0>         0.0641
     35 H5          0.1169   -0.1428    1.2262 H         1 <0>         0.0652
     36 H6         -0.1059    2.1636    2.1090 H         1 <0>         0.0714
     37 H7         -1.8700    1.9524    2.2158 H         1 <0>         0.0622
     38 H8         -2.0117    1.6235   -0.2121 H         1 <0>         0.0860
     39 H9         -0.2396    1.7149   -0.3527 H         1 <0>         0.0985
     40 H10         1.1291    6.9316   -0.1089 H         1 <0>         0.1240
     41 H11        -0.1714    8.9929   -0.2523 H         1 <0>         0.1250
     42 H12        -2.6290    8.9225   -0.2590 H         1 <0>         0.1272
     43 H13        -3.8116    6.7733   -0.1130 H         1 <0>         0.1222
     44 H14        -3.7059    2.7814    0.6071 H         1 <0>         0.0978
     45 H15        -4.3708    4.4325    0.5925 H         1 <0>         0.0962
     46 H16        -4.8804    5.5400   -1.5493 H         1 <0>         0.1103
     47 H17        -5.6700    5.2113   -3.8559 H         1 <0>         0.1154
     48 H18        -4.4094    1.1184   -3.6855 H         1 <0>         0.1152
     49 H19        -3.6167    1.4688   -1.3833 H         1 <0>         0.1119
     50 H20        -3.7420    2.0396   -5.9847 H         1 <0>         0.1209
     51 H21        -4.5452    1.6940   -8.2807 H         1 <0>         0.1182
     52 H22        -6.8106    2.3994   -8.9241 H         1 <0>         0.1197
     53 H23        -8.2989    3.4493   -7.2754 H         1 <0>         0.1296
     54 N6         -9.0097    4.4138   -4.8740 N.2       1 <0>        -0.4107
@<TRIPOS>BOND
     1    1    2 1
     2    1   31 1
     3    1   32 1
     4    1   33 1
     5    2    3 1
     6    2   34 1
     7    2   35 1
     8    3    4 1
     9    3   36 1
    10    3   37 1
    11    4    5 1
    12    4   38 1
    13    4   39 1
    14    5   13 1
    15    5    6 2
    16    6    7 1
    17    7   12 ar
    18    7    8 ar
    19    8    9 ar
    20    8   40 1
    21    9   10 ar
    22    9   41 1
    23   10   11 ar
    24   10   42 1
    25   11   12 ar
    26   11   43 1
    27   12   13 1
    28   13   14 1
    29   14   15 1
    30   14   44 1
    31   14   45 1
    32   15   20 ar
    33   15   16 ar
    34   16   17 ar
    35   16   46 1
    36   17   18 ar
    37   17   47 1
    38   18   19 ar
    39   18   21 1
    40   19   20 ar
    41   19   48 1
    42   20   49 1
    43   21   26 ar
    44   21   22 ar
    45   22   23 ar
    46   22   50 1
    47   23   24 ar
    48   23   51 1
    49   24   25 ar
    50   24   52 1
    51   25   26 ar
    52   25   53 1
    53   26   27 1
    54   27   30 2
    55   27   54 1
    56   28   29 2
    57   28   54 1
    58   29   30 1
@<TRIPOS>MOLECULE
ZINC14952767
   50    53     0     0     0
SMALL
USER_CHARGES
2-butyl-5-chloro-3-[[4-[2-(1H-tetrazol-5-yl)phenyl]phenyl]methyl]imidazole-4-carboxylic acid
@<TRIPOS>ATOM
      1 C1         -3.0849   -2.4707   -2.9197 C.3       1 <0>        -0.1509
      2 C2         -2.7736   -2.0679   -1.4768 C.3       1 <0>        -0.1258
      3 C3         -1.4760   -1.2579   -1.4421 C.3       1 <0>        -0.1125
      4 C4         -1.1647   -0.8552    0.0007 C.3       1 <0>        -0.0373
      5 C5          0.0452    0.0430    0.0216 C.2       1 <0>         0.2055
      6 N1          1.2884   -0.3644    0.0372 N.2       1 <0>        -0.4965
      7 C6          2.1083    0.6875    0.0538 C.2       1 <0>         0.0672
      8 C7          1.3268    1.8242    0.0482 C.2       1 <0>        -0.0159
      9 N2          0.0142    1.3870    0.0277 N.pl3     1 <0>        -0.4055
     10 C8         -1.1839    2.2300    0.0202 C.3       1 <0>         0.1384
     11 C9         -1.6857    2.4022    1.4308 C.ar      1 <0>        -0.0955
     12 C10        -2.7003    1.5902    1.9050 C.ar      1 <0>        -0.1212
     13 C11        -3.1600    1.7394    3.1976 C.ar      1 <0>         0.0028
     14 C12        -2.6073    2.7182    4.0224 C.ar      1 <0>        -0.0555
     15 C13        -1.5889    3.5374    3.5370 C.ar      1 <0>        -0.1075
     16 C14        -1.1338    3.3754    2.2444 C.ar      1 <0>        -0.1097
     17 C15        -3.1008    2.8876    5.4097 C.ar      1 <0>        -0.0206
     18 C16        -2.2021    2.9334    6.4719 C.ar      1 <0>        -0.1124
     19 C17        -2.6655    3.0961    7.7618 C.ar      1 <0>        -0.1320
     20 C18        -4.0237    3.2039    8.0102 C.ar      1 <0>        -0.1303
     21 C19        -4.9295    3.1554    6.9706 C.ar      1 <0>        -0.1019
     22 C20        -4.4790    2.9969    5.6611 C.ar      1 <0>         0.0415
     23 C21        -5.4453    2.9438    4.5435 C.2       1 <0>         0.1209
     24 N3         -6.7957    3.0304    4.6399 N.2       1 <0>        -0.4142
     25 N4         -7.2666    2.9324    3.3188 N.2       1 <0>        -0.2211
     26 N5         -6.2324    2.7928    2.5624 N.2       1 <0>        -0.1519
     27 N6         -5.1585    2.7977    3.2665 N.2       1 <0>        -0.3713
     28 C22         1.7922    3.2123    0.0619 C.2       1 <0>         0.5226
     29 O1          2.9841    3.4541    0.0798 O.co2     1 <0>        -0.6057
     30 O2          0.8990    4.2232    0.0546 O.co2     1 <0>        -0.7432
     31 Cl1         3.8433    0.6355    0.0788 Cl        1 <0>        -0.0173
     32 H1         -4.0178   -3.0530   -2.9447 H         1 <0>         0.0505
     33 H2         -2.2605   -3.0818   -3.3158 H         1 <0>         0.0513
     34 H3         -3.2002   -1.5668   -3.5359 H         1 <0>         0.0535
     35 H4         -3.5980   -1.4568   -1.0807 H         1 <0>         0.0658
     36 H5         -2.6583   -2.9717   -0.8605 H         1 <0>         0.0621
     37 H6         -0.6516   -1.8690   -1.8383 H         1 <0>         0.0677
     38 H7         -1.5914   -0.3540   -2.0583 H         1 <0>         0.0611
     39 H8         -2.0263   -0.3197    0.4259 H         1 <0>         0.0864
     40 H9         -0.9624   -1.7568    0.5975 H         1 <0>         0.0885
     41 H10        -0.9369    3.2144   -0.4039 H         1 <0>         0.1344
     42 H11        -1.9642    1.7528   -0.5909 H         1 <0>         0.0836
     43 H12        -3.1304    0.8350    1.2639 H         1 <0>         0.1087
     44 H13        -3.9489    1.1017    3.5683 H         1 <0>         0.1092
     45 H14        -1.1573    4.2976    4.1713 H         1 <0>         0.1097
     46 H15        -0.3450    4.0094    1.8673 H         1 <0>         0.1455
     47 H16        -1.1418    2.8459    6.2861 H         1 <0>         0.1219
     48 H17        -1.9650    3.1350    8.5829 H         1 <0>         0.1151
     49 H18        -4.3759    3.3264    9.0238 H         1 <0>         0.1152
     50 H19        -5.9873    3.2397    7.1715 H         1 <0>         0.1262
@<TRIPOS>BOND
     1    1    2 1
     2    1   32 1
     3    1   33 1
     4    1   34 1
     5    2    3 1
     6    2   35 1
     7    2   36 1
     8    3    4 1
     9    3   37 1
    10    3   38 1
    11    4    5 1
    12    4   39 1
    13    4   40 1
    14    5    9 1
    15    5    6 2
    16    6    7 1
    17    7    8 2
    18    7   31 1
    19    8    9 1
    20    8   28 1
    21    9   10 1
    22   10   11 1
    23   10   41 1
    24   10   42 1
    25   11   16 ar
    26   11   12 ar
    27   12   13 ar
    28   12   43 1
    29   13   14 ar
    30   13   44 1
    31   14   15 ar
    32   14   17 1
    33   15   16 ar
    34   15   45 1
    35   16   46 1
    36   17   22 ar
    37   17   18 ar
    38   18   19 ar
    39   18   47 1
    40   19   20 ar
    41   19   48 1
    42   20   21 ar
    43   20   49 1
    44   21   22 ar
    45   21   50 1
    46   22   23 1
    47   23   27 2
    48   23   24 1
    49   24   25 1
    50   25   26 2
    51   26   27 1
    52   28   29 2
    53   28   30 1
