@<TRIPOS>MOLECULE
ZINC03784334
   58    62     0     0     0
SMALL
USER_CHARGES

@<TRIPOS>ATOM
      1 C1         -0.0187    1.5258    0.0104 C.3       1 <0>        -0.1413
      2 C2          0.0021   -0.0041    0.0020 C.3       1 <0>        -0.0715
      3 C3         -1.4117   -0.5257    0.0127 C.ar      1 <0>         0.1611
      4 C4         -1.8203   -1.4070   -0.9688 C.ar      1 <0>        -0.2164
      5 C5         -3.1300   -1.8756   -0.9465 C.ar      1 <0>         0.2286
      6 C6         -3.9702   -1.4518    0.0789 C.ar      1 <0>        -0.1830
      7 C7         -3.4895   -0.5671    1.0199 C.ar      1 <0>         0.1690
      8 N1         -2.2414   -0.1385    0.9630 N.ar      1 <0>        -0.4997
      9 C8         -4.3939   -0.0886    2.1263 C.3       1 <0>        -0.0743
     10 C9         -4.2773   -1.0327    3.3246 C.3       1 <0>        -0.1462
     11 C10        -5.3798   -1.9729    0.1641 C.3       1 <0>        -0.0743
     12 C11        -5.9192   -2.2285   -1.2439 C.3       1 <0>        -0.1357
     13 C12        -4.9089   -3.0041   -2.0471 C.2       1 <0>         0.5207
     14 O1         -5.2858   -3.8578   -2.8216 O.2       1 <0>        -0.5007
     15 N2         -3.5928   -2.7597   -1.9149 N.am      1 <0>        -0.5423
     16 C13        -2.6378   -3.4311   -2.8000 C.3       1 <0>         0.1486
     17 C14        -2.2041   -4.7326   -2.1762 C.ar      1 <0>        -0.1131
     18 C15        -1.1040   -4.7620   -1.3381 C.ar      1 <0>        -0.1284
     19 C16        -0.7021   -5.9509   -0.7641 C.ar      1 <0>        -0.1071
     20 C17        -1.4072   -7.1237   -1.0303 C.ar      1 <0>        -0.0401
     21 C18        -2.5152   -7.0879   -1.8758 C.ar      1 <0>         0.0068
     22 C19        -2.9111   -5.8921   -2.4396 C.ar      1 <0>        -0.1024
     23 C20        -0.9804   -8.4039   -0.4172 C.ar      1 <0>        -0.0409
     24 C21         0.3506   -8.8055   -0.4900 C.ar      1 <0>        -0.1090
     25 C22         0.7440   -9.9984    0.0823 C.ar      1 <0>        -0.1367
     26 C23        -0.1783  -10.8023    0.7310 C.ar      1 <0>        -0.1212
     27 C24        -1.5017  -10.4204    0.8130 C.ar      1 <0>        -0.1049
     28 C25        -1.9155   -9.2163    0.2459 C.ar      1 <0>         0.0543
     29 C26        -3.3313   -8.7996    0.3357 C.2       1 <0>         0.0684
     30 N3         -3.8697   -7.6866   -0.1667 N.2       1 <0>        -0.3485
     31 N4         -5.1250   -7.6972    0.1267 N.2       1 <0>        -0.1888
     32 N5         -5.3975   -8.7659    0.7899 N.2       1 <0>        -0.1926
     33 N6         -4.3236   -9.4652    0.9303 N.2       1 <0>        -0.3656
     34 H1          1.0039    1.9031    0.0027 H         1 <0>         0.0560
     35 H2         -0.5459    1.8868   -0.8726 H         1 <0>         0.0505
     36 H3         -0.5289    1.8773    0.9072 H         1 <0>         0.0656
     37 H4          0.5123   -0.3556   -0.8948 H         1 <0>         0.0770
     38 H5          0.5293   -0.3651    0.8851 H         1 <0>         0.0826
     39 H6         -1.1353   -1.7266   -1.7403 H         1 <0>         0.1384
     40 H7         -4.1002    0.9173    2.4263 H         1 <0>         0.0819
     41 H8         -5.4249   -0.0758    1.7728 H         1 <0>         0.0823
     42 H9         -3.2462   -1.0454    3.6781 H         1 <0>         0.0585
     43 H10        -4.9315   -0.6866    4.1249 H         1 <0>         0.0619
     44 H11        -4.5710   -2.0386    3.0247 H         1 <0>         0.0580
     45 H12        -5.3888   -2.9041    0.7307 H         1 <0>         0.0885
     46 H13        -6.0088   -1.2375    0.6657 H         1 <0>         0.0940
     47 H14        -6.8453   -2.7997   -1.1786 H         1 <0>         0.1112
     48 H15        -6.1171   -1.2754   -1.7343 H         1 <0>         0.0989
     49 H16        -3.1110   -3.6290   -3.7618 H         1 <0>         0.0966
     50 H17        -1.7678   -2.7914   -2.9479 H         1 <0>         0.0888
     51 H18        -0.5583   -3.8529   -1.1329 H         1 <0>         0.1090
     52 H19         0.1572   -5.9727   -0.1102 H         1 <0>         0.1120
     53 H20        -3.0653   -7.9933   -2.0856 H         1 <0>         0.1136
     54 H21        -3.7718   -5.8623   -3.0912 H         1 <0>         0.1186
     55 H22         1.0754   -8.1839   -0.9946 H         1 <0>         0.1197
     56 H23         1.7774  -10.3068    0.0236 H         1 <0>         0.1167
     57 H24         0.1400  -11.7339    1.1751 H         1 <0>         0.1181
     58 H25        -2.2158  -11.0523    1.3201 H         1 <0>         0.1287
@<TRIPOS>BOND
     1    1    2 1
     2    1   34 1
     3    1   35 1
     4    1   36 1
     5    2    3 1
     6    2   37 1
     7    2   38 1
     8    3    8 ar
     9    3    4 ar
    10    4    5 ar
    11    4   39 1
    12    5   15 1
    13    5    6 ar
    14    6    7 ar
    15    6   11 1
    16    7    8 ar
    17    7    9 1
    18    9   10 1
    19    9   40 1
    20    9   41 1
    21   10   42 1
    22   10   43 1
    23   10   44 1
    24   11   12 1
    25   11   45 1
    26   11   46 1
    27   12   13 1
    28   12   47 1
    29   12   48 1
    30   13   14 2
    31   13   15 am
    32   15   16 1
    33   16   17 1
    34   16   49 1
    35   16   50 1
    36   17   22 ar
    37   17   18 ar
    38   18   19 ar
    39   18   51 1
    40   19   20 ar
    41   19   52 1
    42   20   21 ar
    43   20   23 1
    44   21   22 ar
    45   21   53 1
    46   22   54 1
    47   23   28 ar
    48   23   24 ar
    49   24   25 ar
    50   24   55 1
    51   25   26 ar
    52   25   56 1
    53   26   27 ar
    54   26   57 1
    55   27   28 ar
    56   27   58 1
    57   28   29 1
    58   29   33 2
    59   29   30 1
    60   30   31 1
    61   31   32 2
    62   32   33 1
