@<TRIPOS>MOLECULE
ZINC03918293
   77    80     0     0     0
SMALL
USER_CHARGES

@<TRIPOS>ATOM
      1 C1          0.0376    1.5380    0.0199 C.3       1 <0>        -0.1497
      2 C2          0.0530    0.0081    0.0098 C.3       1 <0>        -0.1205
      3 C3          0.7884   -0.5027    1.2504 C.3       1 <0>        -0.1237
      4 C4          0.8038   -2.0326    1.2403 C.3       1 <0>         0.0815
      5 O1          1.4906   -2.5097    2.3990 O.3       1 <0>        -0.3327
      6 C5          1.5937   -3.8485    2.5427 C.2       1 <0>         0.6373
      7 O2          2.2306   -4.3653    3.6154 O.3       1 <0>        -0.6932
      8 N1          1.0803   -4.6388    1.6495 N.2       1 <0>        -1.1080
      9 S1          1.2067   -6.2805    1.8258 S.o2      1 <0>         2.7087
     10 O3          2.5873   -6.5963    1.7100 O.2       1 <0>        -0.9885
     11 O4          0.4395   -6.6262    2.9708 O.2       1 <0>        -0.9872
     12 C6          0.4038   -7.0165    0.4407 C.2       1 <0>        -0.6890
     13 C7          0.2415   -8.3408    0.1438 C.2       1 <0>         0.0305
     14 C8         -0.4373   -8.6812   -1.0224 C.2       1 <0>        -0.1670
     15 C9         -0.9106   -7.6955   -1.8177 C.2       1 <0>        -0.1348
     16 S2         -0.4151   -6.2260   -0.9343 S.3       1 <0>         0.1799
     17 C10        -1.6679   -7.8088   -3.1156 C.3       1 <0>        -0.0331
     18 C11        -3.1697   -7.8580   -2.8273 C.3       1 <0>        -0.0941
     19 C12        -3.9431   -7.8472   -4.1473 C.3       1 <0>        -0.1458
     20 C13        -3.4988   -9.1363   -2.0537 C.3       1 <0>        -0.1523
     21 C14         0.7772   -9.3914    1.0440 C.ar      1 <0>        -0.0478
     22 C15         2.0986   -9.3296    1.4824 C.ar      1 <0>        -0.1177
     23 C16         2.5915  -10.3094    2.3201 C.ar      1 <0>        -0.0800
     24 C17         1.7767  -11.3516    2.7243 C.ar      1 <0>        -0.1200
     25 C18         0.4645  -11.4182    2.2919 C.ar      1 <0>        -0.1053
     26 C19        -0.0408  -10.4405    1.4590 C.ar      1 <0>        -0.0979
     27 C20         2.3209  -12.4187    3.6387 C.3       1 <0>         0.1576
     28 N2          2.2092  -11.9732    5.0299 N.pl3     1 <0>        -0.4722
     29 C21         1.1989  -12.2708    5.8922 C.2       1 <0>         0.2922
     30 N3          1.4171  -11.7116    7.0465 N.2       1 <0>        -0.4801
     31 C22         2.5823  -11.0181    7.0006 C.ar      1 <0>        -0.0043
     32 C23         3.1108  -11.1808    5.7073 C.ar      1 <0>         0.2563
     33 N4          4.2585  -10.6110    5.3770 N.ar      1 <0>        -0.4849
     34 C24         4.9398   -9.8829    6.2375 C.ar      1 <0>         0.1713
     35 C25         4.4844   -9.6804    7.5305 C.ar      1 <0>        -0.1873
     36 C26         3.2873  -10.2454    7.9281 C.ar      1 <0>         0.0136
     37 C27         2.7646  -10.0473    9.3276 C.3       1 <0>        -0.1091
     38 C28         6.2417   -9.2576    5.8072 C.3       1 <0>        -0.1030
     39 C29         0.0017  -13.1230    5.5583 C.3       1 <0>        -0.0475
     40 C30         0.2654  -14.5659    5.9936 C.3       1 <0>        -0.1454
     41 H1          1.0615    1.9117    0.0149 H         1 <0>         0.0535
     42 H2         -0.4863    1.9019   -0.8640 H         1 <0>         0.0520
     43 H3         -0.4734    1.8903    0.9159 H         1 <0>         0.0535
     44 H4         -0.9710   -0.3656    0.0148 H         1 <0>         0.0638
     45 H5          0.5639   -0.3442   -0.8863 H         1 <0>         0.0639
     46 H6          1.8123   -0.1290    1.2454 H         1 <0>         0.0682
     47 H7          0.2774   -0.1504    2.1464 H         1 <0>         0.0681
     48 H8         -0.2202   -2.4063    1.2453 H         1 <0>         0.0610
     49 H9          1.3147   -2.3849    0.3442 H         1 <0>         0.0614
     50 H10        -0.5837   -9.7177   -1.2884 H         1 <0>         0.1365
     51 H11        -1.4464   -6.9448   -3.7421 H         1 <0>         0.0823
     52 H12        -1.3673   -8.7196   -3.6334 H         1 <0>         0.0868
     53 H13        -3.4541   -6.9900   -2.2325 H         1 <0>         0.0756
     54 H14        -3.6587   -8.7152   -4.7421 H         1 <0>         0.0553
     55 H15        -5.0130   -7.8823   -3.9419 H         1 <0>         0.0571
     56 H16        -3.7086   -6.9365   -4.6984 H         1 <0>         0.0561
     57 H17        -4.5687   -9.1714   -1.8483 H         1 <0>         0.0547
     58 H18        -3.2144  -10.0043   -2.6485 H         1 <0>         0.0543
     59 H19        -2.9478   -9.1440   -1.1133 H         1 <0>         0.0607
     60 H20         2.7358   -8.5168    1.1668 H         1 <0>         0.1599
     61 H21         3.6154  -10.2625    2.6604 H         1 <0>         0.1343
     62 H22        -0.1672  -12.2343    2.6104 H         1 <0>         0.1247
     63 H23        -1.0669  -10.4909    1.1259 H         1 <0>         0.1270
     64 H24         1.7503  -13.3377    3.5046 H         1 <0>         0.1017
     65 H25         3.3681  -12.6030    3.3992 H         1 <0>         0.1024
     66 H26         5.0580   -9.0799    8.2211 H         1 <0>         0.1419
     67 H27         3.1490  -10.8363    9.9741 H         1 <0>         0.0744
     68 H28         3.0913   -9.0779    9.7037 H         1 <0>         0.0717
     69 H29         1.6752  -10.0847    9.3173 H         1 <0>         0.0760
     70 H30         6.0500   -8.2675    5.3936 H         1 <0>         0.0860
     71 H31         6.9045   -9.1697    6.6680 H         1 <0>         0.0766
     72 H32         6.7121   -9.8834    5.0488 H         1 <0>         0.0759
     73 H33        -0.8743  -12.7399    6.0817 H         1 <0>         0.1027
     74 H34        -0.1761  -13.0945    4.4833 H         1 <0>         0.0845
     75 H35         1.0861  -14.9782    5.4067 H         1 <0>         0.0543
     76 H36         0.5299  -14.5838    7.0509 H         1 <0>         0.0651
     77 H37        -0.6320  -15.1635    5.8334 H         1 <0>         0.0691
@<TRIPOS>BOND
     1    1    2 1
     2    1   41 1
     3    1   42 1
     4    1   43 1
     5    2    3 1
     6    2   44 1
     7    2   45 1
     8    3    4 1
     9    3   46 1
    10    3   47 1
    11    4    5 1
    12    4   48 1
    13    4   49 1
    14    5    6 1
    15    6    7 1
    16    6    8 2
    17    8    9 1
    18    9   10 2
    19    9   11 2
    20    9   12 1
    21   12   16 1
    22   12   13 2
    23   13   14 1
    24   13   21 1
    25   14   15 2
    26   14   50 1
    27   15   16 1
    28   15   17 1
    29   17   18 1
    30   17   51 1
    31   17   52 1
    32   18   19 1
    33   18   20 1
    34   18   53 1
    35   19   54 1
    36   19   55 1
    37   19   56 1
    38   20   57 1
    39   20   58 1
    40   20   59 1
    41   21   26 ar
    42   21   22 ar
    43   22   23 ar
    44   22   60 1
    45   23   24 ar
    46   23   61 1
    47   24   25 ar
    48   24   27 1
    49   25   26 ar
    50   25   62 1
    51   26   63 1
    52   27   28 1
    53   27   64 1
    54   27   65 1
    55   28   32 1
    56   28   29 1
    57   29   30 2
    58   29   39 1
    59   30   31 1
    60   31   36 ar
    61   31   32 ar
    62   32   33 ar
    63   33   34 ar
    64   34   35 ar
    65   34   38 1
    66   35   36 ar
    67   35   66 1
    68   36   37 1
    69   37   67 1
    70   37   68 1
    71   37   69 1
    72   38   70 1
    73   38   71 1
    74   38   72 1
    75   39   40 1
    76   39   73 1
    77   39   74 1
    78   40   75 1
    79   40   76 1
    80   40   77 1
