@<TRIPOS>MOLECULE
ZINC00006787
   29    30     0     0     0
SMALL
USER_CHARGES

@<TRIPOS>ATOM
      1 C1         -0.0169    1.3936    0.0097 C.ar      1 <0>        -0.0880
      2 C2          1.1682    2.0965    0.0022 C.ar      1 <0>        -0.1444
      3 C3          2.3804    1.4185   -0.0131 C.ar      1 <0>         0.1088
      4 C4          2.4043    0.0297   -0.0212 C.ar      1 <0>        -0.1437
      5 C5          1.2244   -0.6820   -0.0142 C.ar      1 <0>        -0.0943
      6 C6          0.0021   -0.0041    0.0020 C.ar      1 <0>        -0.0701
      7 C7         -1.2624   -0.7604    0.0105 C.2       1 <0>        -0.0946
      8 C8         -1.2417   -2.1029    0.0031 C.2       1 <0>        -0.1125
      9 C9         -2.5067   -2.8595    0.0116 C.ar      1 <0>        -0.0208
     10 C10        -3.7282   -2.1821    0.0216 C.ar      1 <0>        -0.1505
     11 C11        -4.9138   -2.8974    0.0296 C.ar      1 <0>         0.1270
     12 C12        -4.8898   -4.2848    0.0277 C.ar      1 <0>        -0.1731
     13 C13        -3.6788   -4.9623    0.0183 C.ar      1 <0>         0.1263
     14 C14        -2.4878   -4.2561    0.0039 C.ar      1 <0>        -0.1438
     15 O1         -3.6617   -6.3213    0.0174 O.3       1 <0>        -0.4960
     16 O2         -6.1029   -2.2395    0.0398 O.3       1 <0>        -0.4960
     17 O3          3.5463    2.1158   -0.0204 O.3       1 <0>        -0.4996
     18 H1         -0.9588    1.9217    0.0260 H         1 <0>         0.1307
     19 H2          1.1546    3.1764    0.0077 H         1 <0>         0.1317
     20 H3          3.3492   -0.4932   -0.0334 H         1 <0>         0.1314
     21 H4          1.2440   -1.7618   -0.0209 H         1 <0>         0.1307
     22 H5         -2.2059   -0.2349    0.0227 H         1 <0>         0.1259
     23 H6         -0.2983   -2.6284   -0.0091 H         1 <0>         0.1276
     24 H7         -3.7479   -1.1023    0.0234 H         1 <0>         0.1351
     25 H8         -5.8166   -4.8392    0.0340 H         1 <0>         0.1362
     26 H9         -1.5459   -4.7843   -0.0083 H         1 <0>         0.1350
     27 H10        -3.6634   -6.7141   -0.8663 H         1 <0>         0.3942
     28 H11        -6.4539   -2.0477   -0.8406 H         1 <0>         0.3942
     29 H12         3.8923    2.3129    0.8608 H         1 <0>         0.3928
@<TRIPOS>BOND
     1    1    6 ar
     2    1    2 ar
     3    1   18 1
     4    2    3 ar
     5    2   19 1
     6    3    4 ar
     7    3   17 1
     8    4    5 ar
     9    4   20 1
    10    5    6 ar
    11    5   21 1
    12    6    7 1
    13    7    8 2
    14    7   22 1
    15    8    9 1
    16    8   23 1
    17    9   14 ar
    18    9   10 ar
    19   10   11 ar
    20   10   24 1
    21   11   12 ar
    22   11   16 1
    23   12   13 ar
    24   12   25 1
    25   13   14 ar
    26   13   15 1
    27   14   26 1
    28   15   27 1
    29   16   28 1
    30   17   29 1
@<TRIPOS>MOLECULE
ZINC36159921
   26    27     0     0     0
SMALL
USER_CHARGES

@<TRIPOS>ATOM
      1 C1         -0.0169    1.3932    0.0097 C.ar      1 <0>        -0.0917
      2 C2          1.1696    2.0957    0.0021 C.ar      1 <0>        -0.1091
      3 C3          2.3783    1.4196   -0.0135 C.ar      1 <0>        -0.0318
      4 C4          2.4042    0.0348   -0.0212 C.ar      1 <0>        -0.1083
      5 C5          1.2251   -0.6800   -0.0133 C.ar      1 <0>        -0.0986
      6 C6          0.0021   -0.0041    0.0020 C.ar      1 <0>        -0.0573
      7 C7         -1.2622   -0.7615    0.0105 C.2       1 <0>        -0.0928
      8 C8         -1.2405   -2.1038    0.0031 C.2       1 <0>        -0.1087
      9 C9         -2.5049   -2.8613    0.0116 C.ar      1 <0>        -0.0277
     10 C10        -3.7277   -2.1855    0.0215 C.ar      1 <0>        -0.1034
     11 C11        -4.9082   -2.9011    0.0289 C.ar      1 <0>        -0.0196
     12 C12        -4.8822   -4.2856    0.0270 C.ar      1 <0>        -0.1038
     13 C13        -3.6738   -4.9617    0.0172 C.ar      1 <0>        -0.0205
     14 C14        -2.4860   -4.2584    0.0039 C.ar      1 <0>        -0.0957
     15 Cl1        -3.6525   -6.6975    0.0149 Cl        1 <0>        -0.0515
     16 Cl2        -6.4287   -2.0635    0.0413 Cl        1 <0>        -0.0520
     17 Cl3         3.8674    2.3118   -0.0241 Cl        1 <0>        -0.0660
     18 H1         -0.9586    1.9216    0.0260 H         1 <0>         0.1363
     19 H2          1.1564    3.1756    0.0081 H         1 <0>         0.1369
     20 H3          3.3501   -0.4863   -0.0337 H         1 <0>         0.1366
     21 H4          1.2467   -1.7597   -0.0197 H         1 <0>         0.1358
     22 H5         -2.2060   -0.2367    0.0227 H         1 <0>         0.1281
     23 H6         -0.2967   -2.6286   -0.0091 H         1 <0>         0.1318
     24 H7         -3.7494   -1.1057    0.0237 H         1 <0>         0.1432
     25 H8         -5.8086   -4.8407    0.0336 H         1 <0>         0.1460
     26 H9         -1.5442   -4.7868   -0.0079 H         1 <0>         0.1439
@<TRIPOS>BOND
     1    1    6 ar
     2    1    2 ar
     3    1   18 1
     4    2    3 ar
     5    2   19 1
     6    3    4 ar
     7    3   17 1
     8    4    5 ar
     9    4   20 1
    10    5    6 ar
    11    5   21 1
    12    6    7 1
    13    7    8 2
    14    7   22 1
    15    8    9 1
    16    8   23 1
    17    9   14 ar
    18    9   10 ar
    19   10   11 ar
    20   10   24 1
    21   11   12 ar
    22   11   16 1
    23   12   13 ar
    24   12   25 1
    25   13   14 ar
    26   13   15 1
    27   14   26 1
@<TRIPOS>MOLECULE
ZINC13607321
   30    31     0     0     0
SMALL
USER_CHARGES
1,3-dichloro-5-[(Z)-2-(4-methoxyphenyl)vinyl]benzene
@<TRIPOS>ATOM
      1 C1         -3.7153    7.8052    0.3730 C.3       1 <0>         0.0259
      2 O1         -2.5440    8.5920    0.1468 O.3       1 <0>        -0.3153
      3 C2         -1.3538    7.9371    0.1358 C.ar      1 <0>         0.1382
      4 C3         -0.1770    8.6432   -0.0786 C.ar      1 <0>        -0.1505
      5 C4          1.0326    7.9832   -0.0911 C.ar      1 <0>        -0.0574
      6 C5          1.0741    6.6009    0.1125 C.ar      1 <0>        -0.1117
      7 C6         -0.1133    5.8939    0.3227 C.ar      1 <0>        -0.0652
      8 C7         -1.3175    6.5634    0.3387 C.ar      1 <0>        -0.2108
      9 C8          2.3649    5.8905    0.0996 C.2       1 <0>        -0.0809
     10 C9          3.4538    6.4668    0.6335 C.2       1 <0>        -0.1234
     11 C10         3.3219    7.7102    1.4137 C.ar      1 <0>        -0.0290
     12 C11         2.2073    7.9101    2.2324 C.ar      1 <0>        -0.0871
     13 C12         2.0898    9.0772    2.9601 C.ar      1 <0>        -0.0224
     14 C13         3.0759   10.0464    2.8842 C.ar      1 <0>        -0.1050
     15 C14         4.1805    9.8570    2.0708 C.ar      1 <0>        -0.0231
     16 C15         4.3106    8.6946    1.3378 C.ar      1 <0>        -0.1024
     17 Cl1         5.4079   11.0812    1.9784 Cl        1 <0>        -0.0556
     18 Cl2         0.7061    9.3274    3.9782 Cl        1 <0>        -0.0545
     19 H1         -3.8031    7.0512   -0.4093 H         1 <0>         0.0567
     20 H2         -3.6418    7.3149    1.3437 H         1 <0>         0.0568
     21 H3         -4.5944    8.4495    0.3569 H         1 <0>         0.1016
     22 H4         -0.2101    9.7112   -0.2355 H         1 <0>         0.1311
     23 H5          1.9470    8.5330   -0.2583 H         1 <0>         0.1292
     24 H6         -0.0865    4.8252    0.4760 H         1 <0>         0.1285
     25 H7         -2.2351    6.0186    0.5050 H         1 <0>         0.1300
     26 H8          2.4351    4.9062   -0.3394 H         1 <0>         0.1323
     27 H9          4.4263    6.0192    0.4913 H         1 <0>         0.1357
     28 H10         1.4396    7.1530    2.2959 H         1 <0>         0.1426
     29 H11         2.9812   10.9558    3.4591 H         1 <0>         0.1436
     30 H12         5.1747    8.5462    0.7072 H         1 <0>         0.1423
@<TRIPOS>BOND
     1    1    2 1
     2    1   19 1
     3    1   20 1
     4    1   21 1
     5    2    3 1
     6    3    8 ar
     7    3    4 ar
     8    4    5 ar
     9    4   22 1
    10    5    6 ar
    11    5   23 1
    12    6    7 ar
    13    6    9 1
    14    7    8 ar
    15    7   24 1
    16    8   25 1
    17    9   10 2
    18    9   26 1
    19   10   11 1
    20   10   27 1
    21   11   16 ar
    22   11   12 ar
    23   12   13 ar
    24   12   28 1
    25   13   14 ar
    26   13   18 1
    27   14   15 ar
    28   14   29 1
    29   15   16 ar
    30   15   17 1
    31   16   30 1
@<TRIPOS>MOLECULE
ZINC36159909
   29    30     0     0     0
SMALL
USER_CHARGES

@<TRIPOS>ATOM
      1 C1         -0.0169    1.3931    0.0097 C.ar      1 <0>        -0.1069
      2 C2          1.1701    2.0955    0.0021 C.ar      1 <0>        -0.0675
      3 C3          2.3776    1.4199   -0.0130 C.ar      1 <0>        -0.1820
      4 C4          2.4042    0.0364   -0.0212 C.ar      1 <0>        -0.0666
      5 C5          1.2253   -0.6794   -0.0142 C.ar      1 <0>        -0.1146
      6 C6          0.0021   -0.0041    0.0020 C.ar      1 <0>        -0.0258
      7 C7         -1.2621   -0.7619    0.0105 C.2       1 <0>        -0.1032
      8 C8         -1.2401   -2.1041    0.0031 C.2       1 <0>        -0.0966
      9 C9         -2.5043   -2.8619    0.0116 C.ar      1 <0>        -0.0320
     10 C10        -3.7273   -2.1864    0.0215 C.ar      1 <0>        -0.1011
     11 C11        -4.9076   -2.9023    0.0289 C.ar      1 <0>        -0.0204
     12 C12        -4.8813   -4.2867    0.0270 C.ar      1 <0>        -0.1014
     13 C13        -3.6727   -4.9625    0.0172 C.ar      1 <0>        -0.0213
     14 C14        -2.4851   -4.2589    0.0039 C.ar      1 <0>        -0.0934
     15 Cl1        -3.6511   -6.6984    0.0149 Cl        1 <0>        -0.0505
     16 Cl2        -6.4283   -2.0650    0.0413 Cl        1 <0>        -0.0509
     17 C15         3.6702    2.1947   -0.0212 C.3       1 <0>         0.5073
     18 F1          4.0827    2.4274    1.2952 F         1 <0>        -0.1755
     19 F2          4.6511    1.4583   -0.6941 F         1 <0>        -0.1762
     20 F3          3.4766    3.4178   -0.6723 F         1 <0>        -0.1762
     21 H1         -0.9586    1.9217    0.0260 H         1 <0>         0.1393
     22 H2          1.1570    3.1754    0.0077 H         1 <0>         0.1394
     23 H3          3.3504   -0.4841   -0.0333 H         1 <0>         0.1391
     24 H4          1.2475   -1.7591   -0.0209 H         1 <0>         0.1384
     25 H5         -2.2061   -0.2373    0.0227 H         1 <0>         0.1306
     26 H6         -0.2962   -2.6286   -0.0091 H         1 <0>         0.1332
     27 H7         -3.7492   -1.1066    0.0237 H         1 <0>         0.1437
     28 H8         -5.8076   -4.8420    0.0336 H         1 <0>         0.1466
     29 H9         -1.5432   -4.7872   -0.0083 H         1 <0>         0.1445
@<TRIPOS>BOND
     1    1    6 ar
     2    1    2 ar
     3    1   21 1
     4    2    3 ar
     5    2   22 1
     6    3    4 ar
     7    3   17 1
     8    4    5 ar
     9    4   23 1
    10    5    6 ar
    11    5   24 1
    12    6    7 1
    13    7    8 2
    14    7   25 1
    15    8    9 1
    16    8   26 1
    17    9   14 ar
    18    9   10 ar
    19   10   11 ar
    20   10   27 1
    21   11   12 ar
    22   11   16 1
    23   12   13 ar
    24   12   28 1
    25   13   14 ar
    26   13   15 1
    27   14   29 1
    28   17   18 1
    29   17   19 1
    30   17   20 1
@<TRIPOS>MOLECULE
ZINC13607308
   30    31     0     0     0
SMALL
USER_CHARGES
1,3-dichloro-5-[(E)-2-(4-methoxyphenyl)vinyl]benzene
@<TRIPOS>ATOM
      1 C1         -5.9044   -2.5619    0.0177 C.3       1 <0>         0.0254
      2 O1         -5.9985   -1.1360    0.0254 O.3       1 <0>        -0.3157
      3 C2         -4.8313   -0.4408    0.0231 C.ar      1 <0>         0.1353
      4 C3         -4.8527    0.9480    0.0303 C.ar      1 <0>        -0.1521
      5 C4         -3.6715    1.6575    0.0285 C.ar      1 <0>        -0.0611
      6 C5         -2.4503    0.9774    0.0190 C.ar      1 <0>        -0.1046
      7 C6         -2.4339   -0.4203    0.0055 C.ar      1 <0>        -0.0662
      8 C7         -3.6203   -1.1211    0.0132 C.ar      1 <0>        -0.2086
      9 C8         -1.1844    1.7313    0.0171 C.2       1 <0>        -0.0766
     10 C9         -0.0126    1.0758    0.0080 C.2       1 <0>        -0.1276
     11 C10         1.2536    1.8300   -0.0001 C.ar      1 <0>        -0.0210
     12 C11         1.2382    3.2272    0.0017 C.ar      1 <0>        -0.1068
     13 C12         2.4279    3.9274   -0.0010 C.ar      1 <0>        -0.0183
     14 C13         3.6346    3.2483   -0.0162 C.ar      1 <0>        -0.1075
     15 C14         3.6570    1.8637   -0.0233 C.ar      1 <0>        -0.0193
     16 C15         2.4748    1.1511   -0.0154 C.ar      1 <0>        -0.0994
     17 Cl1         5.1753    1.0222   -0.0429 Cl        1 <0>        -0.0535
     18 Cl2         2.4112    5.6633    0.0073 Cl        1 <0>        -0.0534
     19 H1         -5.3633   -2.8950    0.9033 H         1 <0>         0.0573
     20 H2         -6.9058   -2.9921    0.0205 H         1 <0>         0.1026
     21 H3         -5.3721   -2.8860   -0.8766 H         1 <0>         0.0573
     22 H4         -5.7967    1.4727    0.0376 H         1 <0>         0.1346
     23 H5         -3.6891    2.7374    0.0340 H         1 <0>         0.1341
     24 H6         -1.4929   -0.9501   -0.0067 H         1 <0>         0.1293
     25 H7         -3.6087   -2.2010    0.0073 H         1 <0>         0.1312
     26 H8         -1.1991    2.8112    0.0230 H         1 <0>         0.1250
     27 H9          0.0021   -0.0041    0.0020 H         1 <0>         0.1292
     28 H10         0.2978    3.7581    0.0090 H         1 <0>         0.1427
     29 H11         4.5625    3.8009   -0.0228 H         1 <0>         0.1452
     30 H12         2.4936    0.0713   -0.0214 H         1 <0>         0.1427
@<TRIPOS>BOND
     1    1    2 1
     2    1   19 1
     3    1   20 1
     4    1   21 1
     5    2    3 1
     6    3    8 ar
     7    3    4 ar
     8    4    5 ar
     9    4   22 1
    10    5    6 ar
    11    5   23 1
    12    6    7 ar
    13    6    9 1
    14    7    8 ar
    15    7   24 1
    16    8   25 1
    17    9   10 2
    18    9   26 1
    19   10   11 1
    20   10   27 1
    21   11   16 ar
    22   11   12 ar
    23   12   13 ar
    24   12   28 1
    25   13   14 ar
    26   13   18 1
    27   14   15 ar
    28   14   29 1
    29   15   16 ar
    30   15   17 1
    31   16   30 1
@<TRIPOS>MOLECULE
ZINC36159894
   29    30     0     0     0
SMALL
USER_CHARGES

@<TRIPOS>ATOM
      1 C1          0.2031    1.1679    0.5450 C.ar      1 <0>        -0.1106
      2 C2          1.3772    1.8750    0.3906 C.ar      1 <0>        -0.0684
      3 C3          2.3435    1.4332   -0.4958 C.ar      1 <0>        -0.1779
      4 C4          2.1400    0.2805   -1.2339 C.ar      1 <0>        -0.0685
      5 C5          0.9708   -0.4368   -1.0904 C.ar      1 <0>        -0.1040
      6 C6         -0.0092    0.0027   -0.1965 C.ar      1 <0>        -0.0330
      7 C7         -1.2610   -0.7588   -0.0369 C.2       1 <0>        -0.1027
      8 C8         -1.2434   -2.0997   -0.0982 C.2       1 <0>        -0.0992
      9 C9          0.0425   -2.8199   -0.1150 C.ar      1 <0>        -0.0383
     10 C10         1.1130   -2.3627    0.6578 C.ar      1 <0>        -0.0883
     11 C11         2.3145   -3.0422    0.6377 C.ar      1 <0>        -0.0238
     12 C12         2.4602   -4.1742   -0.1463 C.ar      1 <0>        -0.1011
     13 C13         1.4034   -4.6328   -0.9146 C.ar      1 <0>        -0.0231
     14 C14         0.1946   -3.9661   -0.8994 C.ar      1 <0>        -0.0985
     15 Cl1         1.5968   -6.0530   -1.8939 Cl        1 <0>        -0.0521
     16 Cl2         3.6458   -2.4759    1.5971 Cl        1 <0>        -0.0497
     17 C15         3.6236    2.2115   -0.6587 C.3       1 <0>         0.5065
     18 F1          4.5753    1.7397    0.2517 F         1 <0>        -0.1747
     19 F2          4.1051    2.0499   -1.9623 F         1 <0>        -0.1765
     20 F3          3.3789    3.5676   -0.4167 F         1 <0>        -0.1767
     21 H1         -0.5483    1.5114    1.2405 H         1 <0>         0.1391
     22 H2          1.5425    2.7760    0.9628 H         1 <0>         0.1384
     23 H3          2.8985   -0.0582   -1.9241 H         1 <0>         0.1362
     24 H4          0.8131   -1.3361   -1.6673 H         1 <0>         0.1351
     25 H5         -2.1924   -0.2381    0.1294 H         1 <0>         0.1402
     26 H6         -2.1715   -2.6508   -0.1352 H         1 <0>         0.1407
     27 H7          1.0008   -1.4795    1.2691 H         1 <0>         0.1414
     28 H8          3.4026   -4.7017   -0.1589 H         1 <0>         0.1454
     29 H9         -0.6303   -4.3274   -1.4956 H         1 <0>         0.1441
@<TRIPOS>BOND
     1    1    6 ar
     2    1    2 ar
     3    1   21 1
     4    2    3 ar
     5    2   22 1
     6    3    4 ar
     7    3   17 1
     8    4    5 ar
     9    4   23 1
    10    5    6 ar
    11    5   24 1
    12    6    7 1
    13    7    8 2
    14    7   25 1
    15    8    9 1
    16    8   26 1
    17    9   14 ar
    18    9   10 ar
    19   10   11 ar
    20   10   27 1
    21   11   12 ar
    22   11   16 1
    23   12   13 ar
    24   12   28 1
    25   13   14 ar
    26   13   15 1
    27   14   29 1
    28   17   18 1
    29   17   19 1
    30   17   20 1
@<TRIPOS>MOLECULE
ZINC13456778
   38    39     0     0     0
SMALL
USER_CHARGES
1,3-dimethoxy-5-[(E)-2-(4-methoxyphenyl)vinyl]benzene
@<TRIPOS>ATOM
      1 C1         -7.2608   -4.2202    0.0539 C.3       1 <0>         0.0257
      2 O1         -6.0505   -4.9798    0.0373 O.3       1 <0>        -0.3164
      3 C2         -4.8847   -4.2824    0.0286 C.ar      1 <0>         0.1324
      4 C3         -3.6725   -4.9604    0.0124 C.ar      1 <0>        -0.1520
      5 C4         -2.4874   -4.2573    0.0039 C.ar      1 <0>        -0.0628
      6 C5         -2.5065   -2.8597    0.0116 C.ar      1 <0>        -0.1009
      7 C6         -3.7288   -2.1819    0.0332 C.ar      1 <0>        -0.0679
      8 C7         -4.9087   -2.8936    0.0362 C.ar      1 <0>        -0.2081
      9 C8         -1.2420   -2.1033    0.0031 C.2       1 <0>        -0.0813
     10 C9         -1.2628   -0.7607    0.0105 C.2       1 <0>        -0.1222
     11 C10         0.0021   -0.0041    0.0020 C.ar      1 <0>         0.0260
     12 C11        -0.0169    1.3926    0.0097 C.ar      1 <0>        -0.1792
     13 C12         1.1741    2.0989    0.0021 C.ar      1 <0>         0.1680
     14 C13         2.3851    1.4215   -0.0126 C.ar      1 <0>        -0.2996
     15 C14         2.4091    0.0340   -0.0208 C.ar      1 <0>         0.1689
     16 C15         1.2236   -0.6813   -0.0133 C.ar      1 <0>        -0.1854
     17 O2          3.5983   -0.6237   -0.0356 O.3       1 <0>        -0.3135
     18 C16         4.7822    0.1764   -0.0427 C.3       1 <0>         0.0262
     19 O3          1.1569    3.4578    0.0091 O.3       1 <0>        -0.3135
     20 C17         2.4219    4.1226    0.0007 C.3       1 <0>         0.0262
     21 H1         -7.2860   -3.5963    0.9473 H         1 <0>         0.0569
     22 H2         -7.3047   -3.5874   -0.8325 H         1 <0>         0.0569
     23 H3         -8.1148   -4.8975    0.0594 H         1 <0>         0.1019
     24 H4         -3.6588   -6.0403    0.0061 H         1 <0>         0.1337
     25 H5         -1.5454   -4.7853   -0.0083 H         1 <0>         0.1338
     26 H6         -3.7484   -1.1021    0.0437 H         1 <0>         0.1296
     27 H7         -5.8536   -2.3707    0.0488 H         1 <0>         0.1305
     28 H8         -0.2986   -2.6287   -0.0091 H         1 <0>         0.1264
     29 H9         -2.2063   -0.2353    0.0227 H         1 <0>         0.1268
     30 H10        -0.9589    1.9207    0.0170 H         1 <0>         0.1346
     31 H11         3.3119    1.9759   -0.0185 H         1 <0>         0.1344
     32 H12         1.2434   -1.7611   -0.0196 H         1 <0>         0.1354
     33 H13         5.6586   -0.4716   -0.0545 H         1 <0>         0.1031
     34 H14         4.7871    0.8104   -0.9293 H         1 <0>         0.0556
     35 H15         4.8041    0.8008    0.8505 H         1 <0>         0.0556
     36 H16         2.9742    3.8413   -0.8960 H         1 <0>         0.0556
     37 H17         2.2655    5.2013    0.0076 H         1 <0>         0.1031
     38 H18         2.9908    3.8323    0.8839 H         1 <0>         0.0556
@<TRIPOS>BOND
     1    1    2 1
     2    1   21 1
     3    1   22 1
     4    1   23 1
     5    2    3 1
     6    3    8 ar
     7    3    4 ar
     8    4    5 ar
     9    4   24 1
    10    5    6 ar
    11    5   25 1
    12    6    7 ar
    13    6    9 1
    14    7    8 ar
    15    7   26 1
    16    8   27 1
    17    9   10 2
    18    9   28 1
    19   10   11 1
    20   10   29 1
    21   11   16 ar
    22   11   12 ar
    23   12   13 ar
    24   12   30 1
    25   13   14 ar
    26   13   19 1
    27   14   15 ar
    28   14   31 1
    29   15   16 ar
    30   15   17 1
    31   16   32 1
    32   17   18 1
    33   18   33 1
    34   18   34 1
    35   18   35 1
    36   19   20 1
    37   20   36 1
    38   20   37 1
    39   20   38 1
@<TRIPOS>MOLECULE
ZINC00009252
   38    39     0     0     0
SMALL
USER_CHARGES
1,3-dimethoxy-5-[2-(4-methoxyphenyl)vinyl]benzene
@<TRIPOS>ATOM
      1 C1         -1.1301    3.3257    5.2428 C.3       1 <0>         0.0267
      2 O1          0.1846    3.7751    4.9087 O.3       1 <0>        -0.3176
      3 C2          0.8232    3.1209    3.9037 C.ar      1 <0>         0.1348
      4 C3          0.1913    2.0709    3.2498 C.ar      1 <0>        -0.2115
      5 C4          0.8372    1.4007    2.2338 C.ar      1 <0>        -0.0669
      6 C5          2.1258    1.7865    1.8536 C.ar      1 <0>        -0.1044
      7 C6          2.7553    2.8476    2.5107 C.ar      1 <0>        -0.0497
      8 C7          2.1036    3.5080    3.5295 C.ar      1 <0>        -0.1523
      9 C8          2.8181    1.0774    0.7633 C.2       1 <0>        -0.0858
     10 C9          3.5738    1.7626   -0.1098 C.2       1 <0>        -0.1191
     11 C10         3.5538    3.2364   -0.1038 C.ar      1 <0>         0.0201
     12 C11         2.3554    3.9200    0.1146 C.ar      1 <0>        -0.1671
     13 C12         2.3428    5.3046    0.1241 C.ar      1 <0>         0.1667
     14 C13         3.5161    6.0130   -0.0929 C.ar      1 <0>        -0.2981
     15 C14         4.7081    5.3384   -0.3160 C.ar      1 <0>         0.1650
     16 C15         4.7321    3.9540   -0.3221 C.ar      1 <0>        -0.1824
     17 O2          5.8539    6.0378   -0.5283 O.3       1 <0>        -0.3138
     18 C16         5.7569    7.4633   -0.5085 C.3       1 <0>         0.0266
     19 O3          1.1784    5.9709    0.3416 O.3       1 <0>        -0.3115
     20 C17         1.2366    7.3987    0.3330 C.3       1 <0>         0.0269
     21 H1         -1.7790    3.4215    4.3723 H         1 <0>         0.0562
     22 H2         -1.0894    2.2814    5.5525 H         1 <0>         0.0560
     23 H3         -1.5247    3.9315    6.0585 H         1 <0>         0.1003
     24 H4         -0.8062    1.7766    3.5410 H         1 <0>         0.1283
     25 H5          0.3468    0.5814    1.7290 H         1 <0>         0.1269
     26 H6          3.7507    3.1495    2.2202 H         1 <0>         0.1292
     27 H7          2.5893    4.3277    4.0380 H         1 <0>         0.1278
     28 H8          2.7178    0.0064    0.6664 H         1 <0>         0.1302
     29 H9          4.1962    1.2339   -0.8165 H         1 <0>         0.1339
     30 H10         1.4411    3.3696    0.2799 H         1 <0>         0.1340
     31 H11         3.5015    7.0929   -0.0885 H         1 <0>         0.1330
     32 H12         5.6603    3.4299   -0.4958 H         1 <0>         0.1343
     33 H13         5.0655    7.7913   -1.2847 H         1 <0>         0.0550
     34 H14         5.3911    7.7892    0.4652 H         1 <0>         0.0551
     35 H15         6.7402    7.8970   -0.6910 H         1 <0>         0.1024
     36 H16         1.5935    7.7419   -0.6381 H         1 <0>         0.0546
     37 H17         0.2419    7.8040    0.5185 H         1 <0>         0.1015
     38 H18         1.9188    7.7392    1.1119 H         1 <0>         0.0549
@<TRIPOS>BOND
     1    1    2 1
     2    1   21 1
     3    1   22 1
     4    1   23 1
     5    2    3 1
     6    3    8 ar
     7    3    4 ar
     8    4    5 ar
     9    4   24 1
    10    5    6 ar
    11    5   25 1
    12    6    7 ar
    13    6    9 1
    14    7    8 ar
    15    7   26 1
    16    8   27 1
    17    9   10 2
    18    9   28 1
    19   10   11 1
    20   10   29 1
    21   11   16 ar
    22   11   12 ar
    23   12   13 ar
    24   12   30 1
    25   13   14 ar
    26   13   19 1
    27   14   15 ar
    28   14   31 1
    29   15   16 ar
    30   15   17 1
    31   16   32 1
    32   17   18 1
    33   18   33 1
    34   18   34 1
    35   18   35 1
    36   19   20 1
    37   20   36 1
    38   20   37 1
    39   20   38 1
@<TRIPOS>MOLECULE
ZINC36159902
   26    27     0     0     0
SMALL
USER_CHARGES

@<TRIPOS>ATOM
      1 C1          0.9706   -0.4380   -1.0911 C.ar      1 <0>        -0.0880
      2 C2          2.1394    0.2791   -1.2364 C.ar      1 <0>        -0.1091
      3 C3          2.3435    1.4335   -0.4988 C.ar      1 <0>        -0.0276
      4 C4          1.3765    1.8758    0.3885 C.ar      1 <0>        -0.1106
      5 C5          0.2030    1.1685    0.5432 C.ar      1 <0>        -0.0955
      6 C6         -0.0092    0.0027   -0.1975 C.ar      1 <0>        -0.0649
      7 C7         -1.2611   -0.7585   -0.0374 C.2       1 <0>        -0.0937
      8 C8         -1.2438   -2.0995   -0.0982 C.2       1 <0>        -0.1096
      9 C9          0.0419   -2.8199   -0.1150 C.ar      1 <0>        -0.0341
     10 C10         1.1125   -2.3629    0.6578 C.ar      1 <0>        -0.0875
     11 C11         2.3139   -3.0427    0.6377 C.ar      1 <0>        -0.0230
     12 C12         2.4593   -4.1748   -0.1463 C.ar      1 <0>        -0.1029
     13 C13         1.4024   -4.6331   -0.9146 C.ar      1 <0>        -0.0230
     14 C14         0.1938   -3.9662   -0.8994 C.ar      1 <0>        -0.1005
     15 Cl1         1.5955   -6.0534   -1.8939 Cl        1 <0>        -0.0535
     16 Cl2         3.6454   -2.4767    1.5971 Cl        1 <0>        -0.0517
     17 Cl3         3.8183    2.3297   -0.6870 Cl        1 <0>        -0.0671
     18 H1          0.8110   -1.3358   -1.6698 H         1 <0>         0.1321
     19 H2          2.8976   -0.0604   -1.9266 H         1 <0>         0.1336
     20 H3          1.5421    2.7766    0.9609 H         1 <0>         0.1356
     21 H4         -0.5502    1.5143    1.2357 H         1 <0>         0.1358
     22 H5         -2.1924   -0.2374    0.1289 H         1 <0>         0.1370
     23 H6         -2.1720   -2.6504   -0.1348 H         1 <0>         0.1387
     24 H7          1.0006   -1.4797    1.2691 H         1 <0>         0.1416
     25 H8          3.4016   -4.7025   -0.1589 H         1 <0>         0.1446
     26 H9         -0.6311   -4.3270   -1.4959 H         1 <0>         0.1433
@<TRIPOS>BOND
     1    1    6 ar
     2    1    2 ar
     3    1   18 1
     4    2    3 ar
     5    2   19 1
     6    3    4 ar
     7    3   17 1
     8    4    5 ar
     9    4   20 1
    10    5    6 ar
    11    5   21 1
    12    6    7 1
    13    7    8 2
    14    7   22 1
    15    8    9 1
    16    8   23 1
    17    9   14 ar
    18    9   10 ar
    19   10   11 ar
    20   10   24 1
    21   11   12 ar
    22   11   16 1
    23   12   13 ar
    24   12   25 1
    25   13   14 ar
    26   13   15 1
    27   14   26 1
