@<TRIPOS>MOLECULE
ZINC20593727
   25    26     0     0     0
SMALL
USER_CHARGES
3-chloro-2-hydroxy-5-phenyl-benzoic acid
@<TRIPOS>ATOM
      1 C1          1.2078   -0.6819   -0.0131 C.ar      1 <0>        -0.1325
      2 C2          0.0021   -0.0041    0.0020 C.ar      1 <0>        -0.1188
      3 C3         -0.0166    1.3760    0.0096 C.ar      1 <0>        -0.1220
      4 C4          1.1820    2.0864    0.0020 C.ar      1 <0>        -0.0184
      5 C5          2.3937    1.3985   -0.0124 C.ar      1 <0>        -0.1153
      6 C6          2.4006    0.0184   -0.0203 C.ar      1 <0>        -0.1142
      7 C7          1.1682    3.5702    0.0096 C.ar      1 <0>        -0.1109
      8 C8          2.3653    4.2754    0.0019 C.ar      1 <0>        -0.0155
      9 C9          2.3483    5.6707    0.0091 C.ar      1 <0>        -0.1472
     10 C10         1.1221    6.3514    0.0240 C.ar      1 <0>         0.2088
     11 C11        -0.0677    5.6354    0.0316 C.ar      1 <0>        -0.1522
     12 C12        -0.0476    4.2561    0.0187 C.ar      1 <0>        -0.0578
     13 Cl1        -1.5851    6.4786    0.0506 Cl        1 <0>        -0.0790
     14 O1          1.0984    7.7076    0.0315 O.3       1 <0>        -0.4512
     15 C13         3.6142    6.4263    0.0016 C.2       1 <0>         0.4939
     16 O2          3.5966    7.6412    0.0079 O.co2     1 <0>        -0.6075
     17 O3          4.7908    5.7696   -0.0123 O.co2     1 <0>        -0.7575
     18 H1          1.2178   -1.7618   -0.0190 H         1 <0>         0.1177
     19 H2         -0.9264   -0.5558    0.0083 H         1 <0>         0.1192
     20 H3         -0.9586    1.9042    0.0169 H         1 <0>         0.1219
     21 H4          3.3256    1.9442   -0.0173 H         1 <0>         0.1317
     22 H5          3.3392   -0.5159   -0.0318 H         1 <0>         0.1223
     23 H6          3.3061    3.7452   -0.0099 H         1 <0>         0.1463
     24 H7         -0.9762    3.7047    0.0198 H         1 <0>         0.1310
     25 H8          0.1363    8.2408    0.0432 H         1 <0>         0.4071
@<TRIPOS>BOND
     1    1    6 ar
     2    1    2 ar
     3    1   18 1
     4    2    3 ar
     5    2   19 1
     6    3    4 ar
     7    3   20 1
     8    4    5 ar
     9    4    7 1
    10    5    6 ar
    11    5   21 1
    12    6   22 1
    13    7   12 ar
    14    7    8 ar
    15    8    9 ar
    16    8   23 1
    17    9   10 ar
    18    9   15 1
    19   10   11 ar
    20   10   14 1
    21   11   12 ar
    22   11   13 1
    23   12   24 1
    24   14   25 1
    25   15   16 2
    26   15   17 1
@<TRIPOS>MOLECULE
ZINC27099199
   25    26     0     0     0
SMALL
USER_CHARGES
5-bromo-2-hydroxy-3-phenyl-benzoic acid
@<TRIPOS>ATOM
      1 C1          1.1702    2.0863    0.0021 C.ar      1 <0>        -0.1295
      2 C2         -0.0166    1.3759    0.0096 C.ar      1 <0>        -0.1242
      3 C3          0.0021   -0.0041    0.0020 C.ar      1 <0>        -0.1141
      4 C4          1.2198   -0.6817   -0.0133 C.ar      1 <0>        -0.0130
      5 C5          2.4124    0.0392   -0.0209 C.ar      1 <0>        -0.0899
      6 C6          2.3817    1.4190   -0.0132 C.ar      1 <0>        -0.1226
      7 C7          1.2463   -2.1648   -0.0210 C.ar      1 <0>        -0.1312
      8 C8          0.4981   -2.8808    0.9093 C.ar      1 <0>        -0.0293
      9 C9          0.5153   -4.2642    0.9021 C.ar      1 <0>        -0.1591
     10 C10         1.2821   -4.9485   -0.0186 C.ar      1 <0>         0.0056
     11 C11         2.0446   -4.2471   -0.9568 C.ar      1 <0>        -0.2263
     12 C12         2.0271   -2.8464   -0.9587 C.ar      1 <0>         0.2478
     13 O1          2.7627   -2.1562   -1.8647 O.3       1 <0>        -0.5193
     14 C13         2.8634   -4.9782   -1.9406 C.2       1 <0>         0.5100
     15 O2          3.5250   -4.3660   -2.7554 O.co2     1 <0>        -0.6225
     16 O3          2.8782   -6.3257   -1.9364 O.co2     1 <0>        -0.7267
     17 Br1        -0.5124   -5.2232    2.1669 Br        1 <0>        -0.0710
     18 H1          1.1509    3.1661    0.0078 H         1 <0>         0.1163
     19 H2         -0.9597    1.9021    0.0169 H         1 <0>         0.1185
     20 H3         -0.9252   -0.5578    0.0083 H         1 <0>         0.1205
     21 H4          3.3589   -0.4808   -0.0324 H         1 <0>         0.1238
     22 H5          3.3054    1.9787   -0.0194 H         1 <0>         0.1191
     23 H6         -0.1016   -2.3542    1.6370 H         1 <0>         0.1306
     24 H7          1.2935   -6.0285   -0.0140 H         1 <0>         0.1415
     25 H8          3.3760   -2.6961   -2.6012 H         1 <0>         0.4450
@<TRIPOS>BOND
     1    1    6 ar
     2    1    2 ar
     3    1   18 1
     4    2    3 ar
     5    2   19 1
     6    3    4 ar
     7    3   20 1
     8    4    5 ar
     9    4    7 1
    10    5    6 ar
    11    5   21 1
    12    6   22 1
    13    7   12 ar
    14    7    8 ar
    15    8    9 ar
    16    8   23 1
    17    9   10 ar
    18    9   17 1
    19   10   11 ar
    20   10   24 1
    21   11   12 ar
    22   11   14 1
    23   12   13 1
    24   13   25 1
    25   14   15 2
    26   14   16 1
@<TRIPOS>MOLECULE
ZINC01701218
   25    26     0     0     0
SMALL
USER_CHARGES
3-bromo-2-hydroxy-5-phenyl-benzoic acid
@<TRIPOS>ATOM
      1 C1          1.2078   -0.6819   -0.0127 C.ar      1 <0>        -0.1281
      2 C2          0.0021   -0.0041    0.0020 C.ar      1 <0>        -0.1198
      3 C3         -0.0166    1.3760    0.0096 C.ar      1 <0>        -0.1171
      4 C4          1.1820    2.0864    0.0020 C.ar      1 <0>        -0.0276
      5 C5          2.3937    1.3985   -0.0133 C.ar      1 <0>        -0.1110
      6 C6          2.4006    0.0184   -0.0203 C.ar      1 <0>        -0.1157
      7 C7          1.1682    3.5702    0.0096 C.ar      1 <0>        -0.0802
      8 C8          2.3653    4.2754    0.0019 C.ar      1 <0>        -0.0344
      9 C9          2.3482    5.6707    0.0087 C.ar      1 <0>        -0.1344
     10 C10         1.1218    6.3512    0.0231 C.ar      1 <0>         0.1736
     11 C11        -0.0677    5.6352    0.0306 C.ar      1 <0>        -0.1343
     12 C12        -0.0476    4.2562    0.0186 C.ar      1 <0>        -0.0691
     13 Br1        -1.7206    6.5536    0.0501 Br        1 <0>        -0.0547
     14 O1          1.0979    7.7074    0.0302 O.3       1 <0>        -0.4621
     15 C13         3.6140    6.4264    0.0011 C.2       1 <0>         0.4912
     16 O2          3.5962    7.6414    0.0070 O.co2     1 <0>        -0.6090
     17 H1          1.2178   -1.7618   -0.0179 H         1 <0>         0.1188
     18 H2         -0.9264   -0.5558    0.0079 H         1 <0>         0.1205
     19 H3         -0.9586    1.9042    0.0169 H         1 <0>         0.1233
     20 H4          3.3256    1.9442   -0.0189 H         1 <0>         0.1322
     21 H5          3.3392   -0.5159   -0.0314 H         1 <0>         0.1232
     22 H6          3.3062    3.7453   -0.0095 H         1 <0>         0.1445
     23 H7         -0.9762    3.7047    0.0200 H         1 <0>         0.1323
     24 H8          1.0831    8.1051   -0.8511 H         1 <0>         0.3901
     25 O3          4.7906    5.7699   -0.0123 O.co2     1 <0>        -0.7524
@<TRIPOS>BOND
     1    1    6 ar
     2    1    2 ar
     3    1   17 1
     4    2    3 ar
     5    2   18 1
     6    3    4 ar
     7    3   19 1
     8    4    5 ar
     9    4    7 1
    10    5    6 ar
    11    5   20 1
    12    6   21 1
    13    7   12 ar
    14    7    8 ar
    15    8    9 ar
    16    8   22 1
    17    9   10 ar
    18    9   15 1
    19   10   11 ar
    20   10   14 1
    21   11   12 ar
    22   11   13 1
    23   12   23 1
    24   14   24 1
    25   15   16 2
    26   15   25 1
@<TRIPOS>MOLECULE
ZINC00608205
   33    35     0     0     0
SMALL
USER_CHARGES

@<TRIPOS>ATOM
      1 C1          0.0013    1.5540    0.0149 C.3       1 <0>        -0.1498
      2 C2          0.0087    0.0240    0.0139 C.3       1 <0>        -0.0544
      3 C3          0.7037   -0.4743   -1.2269 C.2       1 <0>         0.0747
      4 C4          2.0374   -0.7340   -1.3268 C.2       1 <0>        -0.2231
      5 C5          2.2519   -1.1942   -2.7135 C.ar      1 <0>        -0.0957
      6 C6          3.3654   -1.6063   -3.4381 C.ar      1 <0>        -0.0678
      7 C7          3.2197   -1.9832   -4.7561 C.ar      1 <0>        -0.1331
      8 C8          1.9701   -1.9517   -5.3565 C.ar      1 <0>        -0.0979
      9 C9          0.8599   -1.5449   -4.6477 C.ar      1 <0>        -0.1064
     10 C10         0.9871   -1.1613   -3.3181 C.ar      1 <0>         0.0500
     11 O1          0.1025   -0.7332   -2.3937 O.3       1 <0>        -0.1854
     12 C11         3.0520   -0.5864   -0.2735 C.2       1 <0>         0.4838
     13 O2          3.7030    0.4388   -0.1950 O.2       1 <0>        -0.4766
     14 C12         3.2812   -1.6817    0.6893 C.ar      1 <0>        -0.3045
     15 C13         2.6215   -2.9037    0.5304 C.ar      1 <0>         0.0258
     16 C14         2.8384   -3.9238    1.4308 C.ar      1 <0>        -0.2251
     17 C15         3.7123   -3.7389    2.4965 C.ar      1 <0>         0.3304
     18 C16         4.3701   -2.5244    2.6583 C.ar      1 <0>        -0.2272
     19 C17         4.1628   -1.5015    1.7588 C.ar      1 <0>         0.0328
     20 Br1         5.5567   -2.2793    4.1101 Br        1 <0>        -0.0777
     21 O3          3.9234   -4.7462    3.3815 O.3       1 <0>        -0.6374
     22 Br2         1.9461   -5.5773    1.2173 Br        1 <0>        -0.0788
     23 H1          1.0271    1.9222    0.0003 H         1 <0>         0.0645
     24 H2         -0.5270    1.9153   -0.8674 H         1 <0>         0.0583
     25 H3         -0.5014    1.9144    0.9124 H         1 <0>         0.0696
     26 H4          0.5370   -0.3373    0.8962 H         1 <0>         0.1036
     27 H5         -1.0171   -0.3443    0.0285 H         1 <0>         0.0898
     28 H6          4.3388   -1.6306   -2.9708 H         1 <0>         0.1283
     29 H7          4.0814   -2.3036   -5.3229 H         1 <0>         0.1300
     30 H8          1.8656   -2.2484   -6.3896 H         1 <0>         0.1338
     31 H9         -0.1084   -1.5240   -5.1257 H         1 <0>         0.1308
     32 H10         1.9424   -3.0479   -0.2969 H         1 <0>         0.1136
     33 H11         4.6777   -0.5602    1.8823 H         1 <0>         0.1213
@<TRIPOS>BOND
     1    1    2 1
     2    1   23 1
     3    1   24 1
     4    1   25 1
     5    2    3 1
     6    2   26 1
     7    2   27 1
     8    3   11 1
     9    3    4 2
    10    4    5 1
    11    4   12 1
    12    5   10 ar
    13    5    6 ar
    14    6    7 ar
    15    6   28 1
    16    7    8 ar
    17    7   29 1
    18    8    9 ar
    19    8   30 1
    20    9   10 ar
    21    9   31 1
    22   10   11 1
    23   12   13 2
    24   12   14 1
    25   14   19 ar
    26   14   15 ar
    27   15   16 ar
    28   15   32 1
    29   16   17 ar
    30   16   22 1
    31   17   18 ar
    32   17   21 1
    33   18   19 ar
    34   18   20 1
    35   19   33 1
@<TRIPOS>MOLECULE
ZINC00608205
   34    36     0     0     0
SMALL
USER_CHARGES

@<TRIPOS>ATOM
      1 C1         -0.0255    1.5538   -0.0092 C.3       1 <0>        -0.1535
      2 C2          0.0084    0.0241   -0.0098 C.3       1 <0>        -0.0596
      3 C3         -1.4008   -0.5096    0.0105 C.2       1 <0>         0.0993
      4 C4         -2.1472   -0.7920   -1.0938 C.2       1 <0>        -0.2565
      5 C5         -3.4435   -1.2831   -0.5846 C.ar      1 <0>        -0.0966
      6 C6         -4.6170   -1.7270   -1.1853 C.ar      1 <0>        -0.0761
      7 C7         -5.6759   -2.1278   -0.3988 C.ar      1 <0>        -0.1238
      8 C8         -5.5720   -2.0888    0.9835 C.ar      1 <0>        -0.0916
      9 C9         -4.4137   -1.6507    1.5892 C.ar      1 <0>        -0.0999
     10 C10        -3.3358   -1.2427    0.8129 C.ar      1 <0>         0.0522
     11 O1         -2.1041   -0.7825    1.1153 O.3       1 <0>        -0.1780
     12 C11        -1.7459   -0.6392   -2.4996 C.2       1 <0>         0.4828
     13 O2         -2.0291    0.3771   -3.1061 O.2       1 <0>        -0.4225
     14 C12        -0.9994   -1.7185   -3.1756 C.ar      1 <0>        -0.1641
     15 C13        -0.7767   -2.9330   -2.5206 C.ar      1 <0>        -0.0068
     16 C14        -0.0799   -3.9382   -3.1550 C.ar      1 <0>        -0.1316
     17 C15         0.4016   -3.7456   -4.4453 C.ar      1 <0>         0.1999
     18 C16         0.1824   -2.5386   -5.1001 C.ar      1 <0>        -0.1315
     19 C17        -0.5185   -1.5307   -4.4744 C.ar      1 <0>        -0.0027
     20 Br1         0.8403   -2.2829   -6.8544 Br        1 <0>        -0.0091
     21 O3          1.0876   -4.7382   -5.0670 O.3       1 <0>        -0.4704
     22 Br2         0.2227   -5.5815   -2.2697 Br        1 <0>        -0.0103
     23 H1          0.9937    1.9398   -0.0238 H         1 <0>         0.0749
     24 H2         -0.5600    1.9056   -0.8916 H         1 <0>         0.0641
     25 H3         -0.5345    1.9056    0.8882 H         1 <0>         0.0646
     26 H4          0.5173   -0.3277   -0.9071 H         1 <0>         0.0979
     27 H5          0.5429   -0.3277    0.8726 H         1 <0>         0.0974
     28 H6         -4.6982   -1.7571   -2.2618 H         1 <0>         0.1271
     29 H7         -6.5892   -2.4729   -0.8606 H         1 <0>         0.1343
     30 H8         -6.4069   -2.4045    1.5915 H         1 <0>         0.1396
     31 H9         -4.3442   -1.6243    2.6666 H         1 <0>         0.1364
     32 H10        -1.1499   -3.0832   -1.5183 H         1 <0>         0.1510
     33 H11        -0.6925   -0.5953   -4.9854 H         1 <0>         0.1572
     34 H12         0.5302   -5.3422   -5.5766 H         1 <0>         0.4058
@<TRIPOS>BOND
     1    1    2 1
     2    1   23 1
     3    1   24 1
     4    1   25 1
     5    2    3 1
     6    2   26 1
     7    2   27 1
     8    3   11 1
     9    3    4 2
    10    4    5 1
    11    4   12 1
    12    5   10 ar
    13    5    6 ar
    14    6    7 ar
    15    6   28 1
    16    7    8 ar
    17    7   29 1
    18    8    9 ar
    19    8   30 1
    20    9   10 ar
    21    9   31 1
    22   10   11 1
    23   12   13 2
    24   12   14 1
    25   14   19 ar
    26   14   15 ar
    27   15   16 ar
    28   15   32 1
    29   16   17 ar
    30   16   22 1
    31   17   18 ar
    32   17   21 1
    33   18   19 ar
    34   18   20 1
    35   19   33 1
    36   21   34 1
@<TRIPOS>MOLECULE
ZINC00057140
   15    15     0     0     0
SMALL
USER_CHARGES
3,5-dibromo-2-hydroxy-benzoic acid
@<TRIPOS>ATOM
      1 C1          1.1628    2.5893    0.0049 C.ar      1 <0>        -0.0185
      2 C2         -0.0236    1.8867    0.0124 C.ar      1 <0>        -0.1142
      3 C3         -1.2348    2.5602    0.0218 C.ar      1 <0>        -0.0524
      4 C4         -1.2663    3.9414    0.0353 C.ar      1 <0>        -0.1344
      5 C5         -0.0820    4.6641    0.0279 C.ar      1 <0>         0.1851
      6 C6          1.1452    3.9866    0.0125 C.ar      1 <0>        -0.1304
      7 C7          2.4099    4.7438    0.0050 C.2       1 <0>         0.4918
      8 O1          2.3906    5.9588    0.0117 O.co2     1 <0>        -0.6062
      9 O2         -0.1115    6.0205    0.0359 O.3       1 <0>        -0.4600
     10 Br1        -2.9257    4.8479    0.0567 Br        1 <0>        -0.0442
     11 Br2         0.0021   -0.0041    0.0020 Br        1 <0>        -0.0532
     12 H1          2.1044    2.0604   -0.0066 H         1 <0>         0.1515
     13 H2         -2.1594    2.0021    0.0232 H         1 <0>         0.1392
     14 H3         -0.1283    6.4188   -0.8451 H         1 <0>         0.3934
     15 O3          3.5874    4.0888   -0.0093 O.co2     1 <0>        -0.7476
@<TRIPOS>BOND
     1    1    6 ar
     2    1    2 ar
     3    1   12 1
     4    2    3 ar
     5    2   11 1
     6    3    4 ar
     7    3   13 1
     8    4    5 ar
     9    4   10 1
    10    5    6 ar
    11    5    9 1
    12    6    7 1
    13    7    8 2
    14    7   15 1
    15    9   14 1
@<TRIPOS>MOLECULE
ZINC00409156
   15    15     0     0     0
SMALL
USER_CHARGES
3,5-dichloro-2-hydroxy-benzoic acid
@<TRIPOS>ATOM
      1 C1          1.1651    2.4344    0.0040 C.ar      1 <0>        -0.0479
      2 C2         -0.0215    1.7317    0.0116 C.ar      1 <0>        -0.0511
      3 C3         -1.2329    2.4054    0.0210 C.ar      1 <0>        -0.0932
      4 C4         -1.2642    3.7867    0.0345 C.ar      1 <0>        -0.0711
      5 C5         -0.0796    4.5094    0.0270 C.ar      1 <0>         0.1568
      6 C6          1.1475    3.8319    0.0117 C.ar      1 <0>        -0.1187
      7 C7          2.4121    4.5890    0.0042 C.2       1 <0>         0.4919
      8 O1          2.3929    5.8040    0.0109 O.co2     1 <0>        -0.6057
      9 O2         -0.1089    5.8659    0.0350 O.3       1 <0>        -0.4608
     10 Cl1        -2.7875    4.6192    0.0535 Cl        1 <0>        -0.0633
     11 Cl2         0.0021   -0.0041    0.0020 Cl        1 <0>        -0.0724
     12 H1          2.1066    1.9056   -0.0075 H         1 <0>         0.1517
     13 H2         -2.1576    1.8473    0.0220 H         1 <0>         0.1404
     14 H3         -0.1257    6.2642   -0.8460 H         1 <0>         0.3910
     15 O3          3.5896    3.9339   -0.0102 O.co2     1 <0>        -0.7475
@<TRIPOS>BOND
     1    1    6 ar
     2    1    2 ar
     3    1   12 1
     4    2    3 ar
     5    2   11 1
     6    3    4 ar
     7    3   13 1
     8    4    5 ar
     9    4   10 1
    10    5    6 ar
    11    5    9 1
    12    6    7 1
    13    7    8 2
    14    7   15 1
    15    9   14 1
