@<TRIPOS>MOLECULE
ZINC02043204
   48    50     0     0     0
SMALL
USER_CHARGES

@<TRIPOS>ATOM
      1 C1          2.5162    0.9496    1.4171 C.ar      1 <0>        -0.1558
      2 C2          1.8179    1.8754    0.7027 C.ar      1 <0>        -0.0089
      3 C3          0.8924    1.4496   -0.2625 C.ar      1 <0>        -0.1400
      4 C4          0.1441    2.3570   -1.0300 C.ar      1 <0>         0.1716
      5 N1         -0.7096    1.9109   -1.9214 N.ar      1 <0>        -0.4887
      6 C5         -0.9082    0.6184   -2.1416 C.ar      1 <0>         0.1175
      7 C6         -0.2327   -0.3410   -1.4505 C.ar      1 <0>        -0.1972
      8 C7          0.7007    0.0595   -0.4769 C.ar      1 <0>         0.0581
      9 C8          1.4373   -0.8645    0.2774 C.ar      1 <0>        -0.6935
     10 C9          2.3271   -0.4146    1.2059 C.ar      1 <0>         0.0350
     11 S1          1.2137   -2.5943    0.0269 S.o2      1 <0>         2.6977
     12 O1          2.1244   -3.2517    0.8974 O.2       1 <0>        -0.9448
     13 O2         -0.1865   -2.8329    0.0680 O.2       1 <0>        -0.9312
     14 N2          1.7064   -2.9332   -1.5173 N.pl3     1 <0>        -1.1162
     15 C10         3.1062   -2.7326   -1.9002 C.3       1 <0>         0.0916
     16 C11         3.3893   -3.4769   -3.2066 C.3       1 <0>        -0.0177
     17 N3          4.7929   -3.2757   -3.5905 N.4       1 <0>        -0.5066
     18 C12         5.0647   -3.9903   -4.8449 C.3       1 <0>         0.0395
     19 C13         6.5046   -3.7840   -5.2387 C.2       1 <0>        -0.2534
     20 C14         7.2882   -4.8305   -5.4586 C.2       1 <0>        -0.0124
     21 C15         8.7005   -4.6281   -5.8449 C.ar      1 <0>        -0.0865
     22 C16         9.2134   -3.3367   -5.9733 C.ar      1 <0>        -0.0932
     23 C17        10.5324   -3.1541   -6.3336 C.ar      1 <0>        -0.0930
     24 C18        11.3467   -4.2489   -6.5682 C.ar      1 <0>        -0.0711
     25 C19        10.8435   -5.5324   -6.4424 C.ar      1 <0>        -0.0912
     26 C20         9.5277   -5.7277   -6.0770 C.ar      1 <0>        -0.0822
     27 Br1        13.1533   -3.9899   -7.0630 Br        1 <0>        -0.0276
     28 H1          3.2315    1.2784    2.1565 H         1 <0>         0.1450
     29 H2          1.9750    2.9294    0.8779 H         1 <0>         0.1486
     30 H3          0.2706    3.4199   -0.8866 H         1 <0>         0.1731
     31 H4         -1.6264    0.3180   -2.8902 H         1 <0>         0.1633
     32 H5         -0.4102   -1.3883   -1.6456 H         1 <0>         0.1411
     33 H6          2.8949   -1.1263    1.7868 H         1 <0>         0.1512
     34 H7          1.0683   -3.2645   -2.1683 H         1 <0>         0.4272
     35 H8          3.2957   -1.6683   -2.0399 H         1 <0>         0.0890
     36 H9          3.7565   -3.1173   -1.1145 H         1 <0>         0.1050
     37 H10         3.1998   -4.5411   -3.0669 H         1 <0>         0.1445
     38 H11         2.7390   -3.0921   -3.9922 H         1 <0>         0.1424
     39 H12         4.9683   -2.2905   -3.7199 H         1 <0>         0.4308
     40 H13         4.8752   -5.0546   -4.7051 H         1 <0>         0.1348
     41 H14         4.4144   -3.6056   -5.6305 H         1 <0>         0.1403
     42 H15         6.8982   -2.7835   -5.3419 H         1 <0>         0.1396
     43 H16         6.8946   -5.8309   -5.3555 H         1 <0>         0.1348
     44 H17         8.5789   -2.4819   -5.7913 H         1 <0>         0.1337
     45 H18        10.9305   -2.1552   -6.4334 H         1 <0>         0.1407
     46 H19        11.4834   -6.3826   -6.6269 H         1 <0>         0.1428
     47 H20         9.1374   -6.7295   -5.9748 H         1 <0>         0.1397
     48 H21         5.3949   -3.6319   -2.8633 H         1 <0>         0.4327
@<TRIPOS>BOND
     1    1   10 ar
     2    1    2 ar
     3    1   28 1
     4    2    3 ar
     5    2   29 1
     6    3    8 ar
     7    3    4 ar
     8    4    5 ar
     9    4   30 1
    10    5    6 ar
    11    6    7 ar
    12    6   31 1
    13    7    8 ar
    14    7   32 1
    15    8    9 ar
    16    9   10 ar
    17    9   11 1
    18   10   33 1
    19   11   12 2
    20   11   13 2
    21   11   14 1
    22   14   15 1
    23   14   34 1
    24   15   16 1
    25   15   35 1
    26   15   36 1
    27   16   17 1
    28   16   37 1
    29   16   38 1
    30   17   18 1
    31   17   39 1
    32   17   48 1
    33   18   19 1
    34   18   40 1
    35   18   41 1
    36   19   20 2
    37   19   42 1
    38   20   21 1
    39   20   43 1
    40   21   26 ar
    41   21   22 ar
    42   22   23 ar
    43   22   44 1
    44   23   24 ar
    45   23   45 1
    46   24   25 ar
    47   24   27 1
    48   25   26 ar
    49   25   46 1
    50   26   47 1
@<TRIPOS>MOLECULE
ZINC36382821
   53    58     0     0     0
SMALL
USER_CHARGES

@<TRIPOS>ATOM
      1 C1         -0.0167    1.3792    0.0096 C.ar      1 <0>        -0.1098
      2 C2          1.1686    2.0926    0.0021 C.ar      1 <0>        -0.1129
      3 C3          2.3774    1.4273   -0.0130 C.ar      1 <0>        -0.1018
      4 C4          2.4027    0.0331   -0.0207 C.ar      1 <0>        -0.0532
      5 C5          1.2048   -0.6804   -0.0131 C.ar      1 <0>        -0.0972
      6 C6          0.0021   -0.0041    0.0020 C.ar      1 <0>        -0.1217
      7 C7          3.6976   -0.6873   -0.0375 C.ar      1 <0>        -0.0895
      8 C8          4.6832   -0.3453   -0.9637 C.ar      1 <0>        -0.0030
      9 C9          5.8807   -1.0537   -0.9352 C.ar      1 <0>        -0.0817
     10 C10         6.0621   -2.0835    0.0163 C.ar      1 <0>         0.2098
     11 C11         7.3365   -2.8113    0.0182 C.2       1 <0>        -0.1560
     12 C12         8.2922   -2.4985   -0.8622 C.2       1 <0>         0.1454
     13 N1          8.1430   -1.5000   -1.7996 N.am      1 <0>        -0.4929
     14 C13         6.9753   -0.7619   -1.8753 C.2       1 <0>         0.3089
     15 N2          7.0941    0.1108   -2.8403 N.2       1 <0>        -0.2482
     16 N3          8.3615   -0.0506   -3.4156 N.am      1 <0>        -0.5283
     17 H1          8.7252    0.4618   -4.1545 H         1 <0>         0.4679
     18 C14         8.9833   -1.0478   -2.7556 C.2       1 <0>         0.6564
     19 O1         10.1052   -1.4664   -2.9807 O.2       1 <0>        -0.5212
     20 N4          5.0992   -2.3771    0.8804 N.ar      1 <0>        -0.4545
     21 C15         3.9492   -1.7199    0.8843 C.ar      1 <0>         0.1979
     22 C16         2.9074   -2.0823    1.8731 C.ar      1 <0>        -0.0255
     23 C17         2.0785   -1.0974    2.4096 C.ar      1 <0>        -0.0664
     24 C18         1.1099   -1.4411    3.3303 C.ar      1 <0>        -0.1341
     25 C19         0.9603   -2.7596    3.7214 C.ar      1 <0>        -0.1011
     26 C20         1.7795   -3.7411    3.1928 C.ar      1 <0>        -0.0980
     27 C21         2.7478   -3.4106    2.2670 C.ar      1 <0>        -0.0610
     28 C22        -0.0992   -3.1282    4.7278 C.3       1 <0>         0.0637
     29 C23         0.4698   -3.6059    6.0743 C.3       1 <0>        -0.1268
     30 C24        -0.6447   -4.6656    6.0798 C.3       1 <0>        -0.1586
     31 C25        -0.6528   -4.5514    4.5462 C.3       1 <0>        -0.1320
     32 N5         -1.1431   -2.1030    4.8585 N.4       1 <0>        -0.6175
     33 H2         -0.9603    1.9042    0.0260 H         1 <0>         0.1263
     34 H3          1.1477    3.1723    0.0078 H         1 <0>         0.1304
     35 H4          3.3021    1.9852   -0.0192 H         1 <0>         0.1293
     36 H5          1.2182   -1.7603   -0.0191 H         1 <0>         0.1222
     37 H6         -0.9264   -0.5557    0.0083 H         1 <0>         0.1241
     38 H7          4.5215    0.4452   -1.6816 H         1 <0>         0.1595
     39 H8          7.5029   -3.6026    0.7341 H         1 <0>         0.1729
     40 H9          9.2198   -3.0510   -0.8374 H         1 <0>         0.1807
     41 H10         2.1946   -0.0677    2.1053 H         1 <0>         0.1437
     42 H11         0.4676   -0.6792    3.7467 H         1 <0>         0.1184
     43 H12         1.6579   -4.7688    3.5020 H         1 <0>         0.1392
     44 H13         3.3839   -4.1783    1.8517 H         1 <0>         0.1450
     45 H14         1.4723   -4.0271    5.9999 H         1 <0>         0.1262
     46 H15         0.3768   -2.8703    6.8732 H         1 <0>         0.0946
     47 H16        -0.3188   -5.6401    6.4433 H         1 <0>         0.1018
     48 H17        -1.5684   -4.3253    6.5478 H         1 <0>         0.0931
     49 H18        -1.6520   -4.5791    4.1116 H         1 <0>         0.0957
     50 H19         0.0429   -5.2310    4.0541 H         1 <0>         0.1275
     51 H20        -1.7011   -2.0821    4.0181 H         1 <0>         0.4388
     52 H21        -1.7322   -2.3215    5.6481 H         1 <0>         0.4379
     53 H22        -0.7131   -1.2011    4.9992 H         1 <0>         0.4354
@<TRIPOS>BOND
     1    1    6 ar
     2    1    2 ar
     3    1   33 1
     4    2    3 ar
     5    2   34 1
     6    3    4 ar
     7    3   35 1
     8    4    5 ar
     9    4    7 1
    10    5    6 ar
    11    5   36 1
    12    6   37 1
    13    7   21 ar
    14    7    8 ar
    15    8    9 ar
    16    8   38 1
    17    9   14 1
    18    9   10 ar
    19   10   11 1
    20   10   20 ar
    21   11   12 2
    22   11   39 1
    23   12   13 1
    24   12   40 1
    25   13   18 am
    26   13   14 1
    27   14   15 2
    28   15   16 1
    29   16   17 1
    30   16   18 am
    31   18   19 2
    32   20   21 ar
    33   21   22 1
    34   22   27 ar
    35   22   23 ar
    36   23   24 ar
    37   23   41 1
    38   24   25 ar
    39   24   42 1
    40   25   26 ar
    41   25   28 1
    42   26   27 ar
    43   26   43 1
    44   27   44 1
    45   28   31 1
    46   28   29 1
    47   28   32 1
    48   29   30 1
    49   29   45 1
    50   29   46 1
    51   30   31 1
    52   30   47 1
    53   30   48 1
    54   31   49 1
    55   31   50 1
    56   32   51 1
    57   32   52 1
    58   32   53 1
@<TRIPOS>MOLECULE
ZINC43178353
   52    55     0     0     0
SMALL
USER_CHARGES

@<TRIPOS>ATOM
      1 C1          0.7202   -3.1310   -2.6806 C.3       1 <0>        -0.1540
      2 C2         -0.3986   -3.1799   -3.7231 C.3       1 <0>        -0.0409
      3 C3         -1.7325   -3.2513   -3.0254 C.2       1 <0>        -0.1517
      4 C4         -2.4141   -4.3656   -2.7132 C.2       1 <0>         0.0741
      5 N1         -3.5858   -4.0326   -2.0841 N.pl3     1 <0>        -0.5679
      6 H1         -4.2451   -4.6679   -1.7636 H         1 <0>         0.4298
      7 C5         -3.6885   -2.6731   -1.9744 C.ar      1 <0>         0.3263
      8 C6         -2.5303   -2.1214   -2.5528 C.ar      1 <0>        -0.1938
      9 C7         -2.3831   -0.7262   -2.5647 C.ar      1 <0>         0.4782
     10 N2         -3.3461    0.0146   -2.0240 N.ar      1 <0>        -0.5412
     11 C8         -4.4159   -0.5449   -1.4882 C.ar      1 <0>         0.3335
     12 N3         -4.5996   -1.8473   -1.4623 N.ar      1 <0>        -0.5214
     13 N4         -1.2642   -0.1360   -3.1244 N.pl3     1 <0>        -0.6552
     14 C9         -0.0473    0.2632   -2.3942 C.3       1 <0>         0.1354
     15 C10         1.0732    0.2684   -3.4639 C.3       1 <0>        -0.1473
     16 C11         0.3160    0.8091   -4.7055 C.3       1 <0>         0.0299
     17 C12        -1.0891    0.1912   -4.5470 C.3       1 <0>         0.1338
     18 C13         0.2477    2.3372   -4.6748 C.3       1 <0>         0.1157
     19 N5          1.5959    2.8895   -4.8274 N.am      1 <0>        -0.7500
     20 C14         1.7810    4.2245   -4.8298 C.2       1 <0>         0.5718
     21 O1          0.8290    4.9705   -4.7052 O.2       1 <0>        -0.4908
     22 C15         3.1391    4.7809   -4.9836 C.ar      1 <0>        -0.2021
     23 C16         4.2347    3.9264   -5.1327 C.ar      1 <0>        -0.0306
     24 C17         5.5002    4.4509   -5.2758 C.ar      1 <0>        -0.1714
     25 C18         5.6904    5.8254   -5.2723 C.ar      1 <0>         0.1752
     26 C19         4.6102    6.6796   -5.1251 C.ar      1 <0>        -0.1995
     27 C20         3.3346    6.1662   -4.9864 C.ar      1 <0>         0.2025
     28 F1          2.2802    6.9995   -4.8484 F         1 <0>        -0.0998
     29 F2          6.9346    6.3326   -5.4128 F         1 <0>        -0.1149
     30 N6          0.9496    0.3405   -5.9453 N.4       1 <0>        -0.6284
     31 H2          1.6763   -2.9762   -3.1807 H         1 <0>         0.0545
     32 H3          0.5355   -2.3101   -1.9877 H         1 <0>         0.0567
     33 H4          0.7459   -4.0718   -2.1308 H         1 <0>         0.0621
     34 H5         -0.3592   -2.2826   -4.3407 H         1 <0>         0.0562
     35 H6         -0.2703   -4.0603   -4.3528 H         1 <0>         0.0744
     36 H7         -2.0880   -5.3730   -2.9258 H         1 <0>         0.1855
     37 H8         -5.1744    0.0935   -1.0598 H         1 <0>         0.2071
     38 H9         -0.1699    1.2590   -1.9684 H         1 <0>         0.0754
     39 H10         0.1794   -0.4600   -1.6108 H         1 <0>         0.0899
     40 H11         1.8834    0.9390   -3.1777 H         1 <0>         0.1146
     41 H12         1.4473   -0.7397   -3.6427 H         1 <0>         0.1082
     42 H13        -1.1678   -0.7146   -5.1482 H         1 <0>         0.0814
     43 H14        -1.8459    0.9116   -4.8575 H         1 <0>         0.0933
     44 H15        -0.3837    2.6892   -5.4907 H         1 <0>         0.1049
     45 H16        -0.1729    2.6630   -3.7234 H         1 <0>         0.1238
     46 H17         2.3555    2.2944   -4.9268 H         1 <0>         0.3926
     47 H18         4.0894    2.8562   -5.1353 H         1 <0>         0.1393
     48 H19         6.3470    3.7905   -5.3907 H         1 <0>         0.1551
     49 H20         4.7644    7.7486   -5.1228 H         1 <0>         0.1637
     50 H21         0.9579   -0.6683   -5.9583 H         1 <0>         0.4405
     51 H22         0.4291    0.6828   -6.7391 H         1 <0>         0.4422
     52 H23         1.8968    0.6854   -5.9901 H         1 <0>         0.4335
@<TRIPOS>BOND
     1    1    2 1
     2    1   31 1
     3    1   32 1
     4    1   33 1
     5    2    3 1
     6    2   34 1
     7    2   35 1
     8    3    8 1
     9    3    4 2
    10    4    5 1
    11    4   36 1
    12    5    6 1
    13    5    7 1
    14    7   12 ar
    15    7    8 ar
    16    8    9 ar
    17    9   10 ar
    18    9   13 1
    19   10   11 ar
    20   11   12 ar
    21   11   37 1
    22   13   17 1
    23   13   14 1
    24   14   15 1
    25   14   38 1
    26   14   39 1
    27   15   16 1
    28   15   40 1
    29   15   41 1
    30   16   17 1
    31   16   18 1
    32   16   30 1
    33   17   42 1
    34   17   43 1
    35   18   19 1
    36   18   44 1
    37   18   45 1
    38   19   20 am
    39   19   46 1
    40   20   21 2
    41   20   22 1
    42   22   27 ar
    43   22   23 ar
    44   23   24 ar
    45   23   47 1
    46   24   25 ar
    47   24   48 1
    48   25   26 ar
    49   25   29 1
    50   26   27 ar
    51   26   49 1
    52   27   28 1
    53   30   50 1
    54   30   51 1
    55   30   52 1
@<TRIPOS>MOLECULE
ZINC03814434
   62    69     0     0     0
SMALL
USER_CHARGES

@<TRIPOS>ATOM
      1 C1         -0.1295    1.5952   -0.2973 C.3       1 <0>        -0.1687
      2 C2         -0.0862    0.0696   -0.1900 C.3       1 <0>         0.3342
      3 C3          0.5692   -0.4501   -1.4637 C.3       1 <0>         0.0405
      4 H1          1.4796    0.1159   -1.6612 H         1 <0>         0.1372
      5 C4          0.9167   -1.9328   -1.2889 C.3       1 <0>        -0.0061
      6 H2          1.3963   -2.3075   -2.1932 H         1 <0>         0.1555
      7 C5          1.8785   -2.0596   -0.1021 C.3       1 <0>        -0.1827
      8 C6          1.2061   -1.5198    1.1541 C.3       1 <0>         0.2999
      9 H3          1.9797   -1.4243    1.9161 H         1 <0>         0.1550
     10 O1          0.6555   -0.2442    0.9666 O.3       1 <0>        -0.3234
     11 N1          0.2189   -2.4746    1.6600 N.pl3     1 <0>        -0.5366
     12 C7          0.4705   -3.5508    2.4739 C.ar      1 <0>         0.1469
     13 C8          1.6649   -4.0152    3.0240 C.ar      1 <0>        -0.1522
     14 C9          1.5948   -5.1456    3.8201 C.ar      1 <0>        -0.0582
     15 C10         0.4006   -5.7997    4.0696 C.ar      1 <0>        -0.1457
     16 C11        -0.7984   -5.3597    3.5358 C.ar      1 <0>        -0.0280
     17 C12        -0.7487   -4.2198    2.7307 C.ar      1 <0>        -0.1131
     18 C13        -1.7893   -3.4830    2.0197 C.ar      1 <0>         0.0276
     19 C14        -1.1442   -2.4197    1.3841 C.ar      1 <0>         0.0376
     20 C15        -1.8806   -1.5095    0.6175 C.ar      1 <0>         0.0894
     21 N2         -1.4718   -0.3951   -0.1095 N.pl3     1 <0>        -0.5183
     22 C16        -2.5611    0.1913   -0.7090 C.ar      1 <0>         0.1618
     23 C17        -2.6521    1.3277   -1.5118 C.ar      1 <0>        -0.1305
     24 C18        -3.9109    1.6745   -1.9733 C.ar      1 <0>        -0.0737
     25 C19        -5.0393    0.9368   -1.6616 C.ar      1 <0>        -0.1358
     26 C20        -4.9745   -0.1955   -0.8662 C.ar      1 <0>        -0.0503
     27 C21        -3.7147   -0.5596   -0.3919 C.ar      1 <0>        -0.1042
     28 C22        -3.2693   -1.6660    0.4845 C.ar      1 <0>        -0.0360
     29 C23        -3.9084   -2.7313    1.1102 C.ar      1 <0>        -0.0288
     30 C24        -3.1873   -3.6421    1.8754 C.ar      1 <0>        -0.1255
     31 C25        -4.1221   -4.6480    2.4030 C.2       1 <0>         0.5632
     32 O2         -3.8062   -5.5851    3.1110 O.2       1 <0>        -0.5106
     33 N3         -5.3744   -4.3851    1.9926 N.am      1 <0>        -0.7162
     34 C26        -5.3495   -3.1771    1.1601 C.3       1 <0>         0.1358
     35 N4         -0.3067   -2.7008   -1.0216 N.4       1 <0>        -0.5252
     36 C27         0.0145   -4.1336   -0.9773 C.3       1 <0>        -0.0497
     37 O3         -0.3340   -0.2979   -2.5607 O.3       1 <0>        -0.3614
     38 C28         0.3101   -0.0933   -3.8198 C.3       1 <0>         0.0162
     39 H4          0.8261    2.0094    0.0240 H         1 <0>         0.0984
     40 H5         -0.3202    1.8814   -1.3317 H         1 <0>         0.1036
     41 H6         -0.9255    1.9818    0.3392 H         1 <0>         0.0921
     42 H7          2.1370   -3.1081    0.0458 H         1 <0>         0.1233
     43 H8          2.7835   -1.4869   -0.3048 H         1 <0>         0.1455
     44 H9          2.6036   -3.5149    2.8368 H         1 <0>         0.1365
     45 H10         2.5026   -5.5304    4.2610 H         1 <0>         0.1359
     46 H11         0.4045   -6.6780    4.6980 H         1 <0>         0.1352
     47 H12        -1.7278   -5.8736    3.7323 H         1 <0>         0.1600
     48 H13        -1.7792    1.9122   -1.7624 H         1 <0>         0.1440
     49 H14        -4.0153    2.5500   -2.5970 H         1 <0>         0.1336
     50 H15        -5.9967    1.2527   -2.0488 H         1 <0>         0.1332
     51 H16        -5.8575   -0.7687   -0.6249 H         1 <0>         0.1415
     52 H17        -6.1628   -4.9065    2.2103 H         1 <0>         0.4348
     53 H18        -5.9671   -2.3994    1.6094 H         1 <0>         0.1115
     54 H19        -5.7060   -3.4063    0.1559 H         1 <0>         0.1103
     55 H20        -0.6958   -2.4158   -0.1353 H         1 <0>         0.4186
     56 H21         0.4349   -4.4415   -1.9347 H         1 <0>         0.1256
     57 H22         0.7403   -4.3189   -0.1854 H         1 <0>         0.1191
     58 H23        -0.8932   -4.7035   -0.7789 H         1 <0>         0.1256
     59 H24         0.9168    0.8112   -3.7748 H         1 <0>         0.0633
     60 H25         0.9482   -0.9479   -4.0446 H         1 <0>         0.0514
     61 H26        -0.4433    0.0130   -4.6003 H         1 <0>         0.1100
     62 H27        -0.9785   -2.5293   -1.7546 H         1 <0>         0.4274
@<TRIPOS>BOND
     1    1    2 1
     2    1   39 1
     3    1   40 1
     4    1   41 1
     5    2   10 1
     6    2   21 1
     7    2    3 1
     8    3    4 1
     9    3    5 1
    10    3   37 1
    11    5    6 1
    12    5    7 1
    13    5   35 1
    14    7    8 1
    15    7   42 1
    16    7   43 1
    17    8    9 1
    18    8   10 1
    19    8   11 1
    20   11   19 1
    21   11   12 1
    22   12   17 ar
    23   12   13 ar
    24   13   14 ar
    25   13   44 1
    26   14   15 ar
    27   14   45 1
    28   15   16 ar
    29   15   46 1
    30   16   17 ar
    31   16   47 1
    32   17   18 1
    33   18   30 ar
    34   18   19 ar
    35   19   20 ar
    36   20   28 ar
    37   20   21 1
    38   21   22 1
    39   22   27 ar
    40   22   23 ar
    41   23   24 ar
    42   23   48 1
    43   24   25 ar
    44   24   49 1
    45   25   26 ar
    46   25   50 1
    47   26   27 ar
    48   26   51 1
    49   27   28 1
    50   28   29 ar
    51   29   34 1
    52   29   30 ar
    53   30   31 1
    54   31   32 2
    55   31   33 am
    56   33   34 1
    57   33   52 1
    58   34   53 1
    59   34   54 1
    60   35   36 1
    61   35   55 1
    62   35   62 1
    63   36   56 1
    64   36   57 1
    65   36   58 1
    66   37   38 1
    67   38   59 1
    68   38   60 1
    69   38   61 1
@<TRIPOS>MOLECULE
ZINC13998530
   48    51     0     0     0
SMALL
USER_CHARGES
N-[[2-(4-amino-1,2,5-oxadiazol-3-yl)-1-ethyl-imidazo[5,4-d]pyridin-7-yl]methyl]piperidin-4-amine
@<TRIPOS>ATOM
      1 C1          1.5587    0.3111   -0.1080 C.3       1 <0>        -0.1729
      2 C2          0.2652    1.0542   -0.4478 C.3       1 <0>         0.0990
      3 N1         -0.4854    1.3157    0.7828 N.pl3     1 <0>        -0.4686
      4 C3         -0.4224    2.4543    1.5497 C.ar      1 <0>         0.0959
      5 C4          0.2805    3.6520    1.4788 C.ar      1 <0>        -0.1364
      6 C5          0.0830    4.5977    2.4615 C.ar      1 <0>         0.1287
      7 N2         -0.7570    4.3848    3.4610 N.ar      1 <0>        -0.4799
      8 C6         -1.4527    3.2734    3.5731 C.ar      1 <0>         0.1941
      9 C7         -1.3129    2.2569    2.6252 C.ar      1 <0>         0.0004
     10 N3         -1.8585    1.0289    2.4690 N.2       1 <0>        -0.4499
     11 C8         -1.3766    0.4683    1.3870 C.2       1 <0>         0.3728
     12 C9         -1.7401   -0.8779    0.8921 C.2       1 <0>         0.0023
     13 C10        -2.6825   -1.8587    1.4795 C.2       1 <0>         0.3357
     14 N4         -2.6148   -2.8606    0.6343 N.2       1 <0>        -0.4153
     15 O1         -1.8331   -2.5921   -0.2473 O.3       1 <0>         0.3396
     16 N5         -1.3034   -1.5081   -0.1774 N.2       1 <0>        -0.3271
     17 N6         -3.4473   -1.7455    2.6331 N.pl3     1 <0>        -0.8250
     18 C11         1.2410    3.9115    0.3469 C.3       1 <0>         0.0915
     19 N7          0.4927    4.3449   -0.8406 N.3       1 <0>        -0.6619
     20 C12         1.3822    4.4840   -2.0015 C.3       1 <0>         0.0601
     21 C13         2.0249    5.8738   -1.9900 C.3       1 <0>        -0.1386
     22 C14         2.9024    6.0349   -3.2334 C.3       1 <0>        -0.0005
     23 N8          2.0812    5.8656   -4.4389 N.4       1 <0>        -0.5357
     24 C15         1.4918    4.5218   -4.4955 C.3       1 <0>         0.0005
     25 C16         0.5721    4.3156   -3.2899 C.3       1 <0>        -0.1532
     26 H1          2.1223    0.1147   -1.0320 H         1 <0>         0.0835
     27 H2          1.3154   -0.6428    0.3829 H         1 <0>         0.0718
     28 H3          2.1683    0.9271    0.5695 H         1 <0>         0.0631
     29 H4          0.5085    2.0081   -0.9386 H         1 <0>         0.0828
     30 H5         -0.3444    0.4382   -1.1253 H         1 <0>         0.1085
     31 H6          0.6248    5.5308    2.4149 H         1 <0>         0.1643
     32 H7         -2.1261    3.1422    4.4072 H         1 <0>         0.1735
     33 H8         -4.1062   -2.5714    2.9394 H         1 <0>         0.4441
     34 H9         -3.3942   -0.8300    3.2405 H         1 <0>         0.4554
     35 H10         1.9502    4.6992    0.6411 H         1 <0>         0.0956
     36 H11         1.7932    2.9887    0.1157 H         1 <0>         0.0477
     37 H12        -0.2824    3.6011   -1.0772 H         1 <0>         0.3446
     38 H13         2.1485    3.6993   -1.9174 H         1 <0>         0.0618
     39 H14         1.2375    6.6419   -1.9927 H         1 <0>         0.0991
     40 H15         2.6423    5.9848   -1.0864 H         1 <0>         0.1091
     41 H16         3.3541    7.0379   -3.2359 H         1 <0>         0.1357
     42 H17         3.6974    5.2747   -3.2221 H         1 <0>         0.1252
     43 H18         1.2675    6.6058   -4.4351 H         1 <0>         0.4517
     44 H19         0.9095    4.4156   -5.4227 H         1 <0>         0.1362
     45 H20         2.2934    3.7687   -4.4776 H         1 <0>         0.1264
     46 H21         0.1423    3.3036   -3.3232 H         1 <0>         0.1068
     47 H22        -0.2383    5.0590   -3.3133 H         1 <0>         0.1012
     48 H23         2.7063    6.0125   -5.3320 H         1 <0>         0.4559
@<TRIPOS>BOND
     1    1    2 1
     2    1   26 1
     3    1   27 1
     4    1   28 1
     5    2    3 1
     6    2   29 1
     7    2   30 1
     8    3   11 1
     9    3    4 1
    10    4    9 ar
    11    4    5 ar
    12    5    6 ar
    13    5   18 1
    14    6    7 ar
    15    6   31 1
    16    7    8 ar
    17    8    9 ar
    18    8   32 1
    19    9   10 1
    20   10   11 2
    21   11   12 1
    22   12   16 2
    23   12   13 1
    24   13   14 2
    25   13   17 1
    26   14   15 1
    27   15   16 1
    28   17   33 1
    29   17   34 1
    30   18   19 1
    31   18   35 1
    32   18   36 1
    33   19   20 1
    34   19   37 1
    35   20   25 1
    36   20   21 1
    37   20   38 1
    38   21   22 1
    39   21   39 1
    40   21   40 1
    41   22   23 1
    42   22   41 1
    43   22   42 1
    44   23   24 1
    45   23   43 1
    46   23   48 1
    47   24   25 1
    48   24   44 1
    49   24   45 1
    50   25   46 1
    51   25   47 1
@<TRIPOS>MOLECULE
ZINC13998530
   50    53     0     0     0
SMALL
USER_CHARGES
N-[[2-(4-amino-1,2,5-oxadiazol-3-yl)-1-ethyl-imidazo[5,4-d]pyridin-7-yl]methyl]piperidin-4-amine
@<TRIPOS>ATOM
      1 C1          1.5587    0.3111   -0.1080 C.3       1 <0>        -0.1879
      2 C2          0.2652    1.0542   -0.4478 C.3       1 <0>         0.0907
      3 N1         -0.4854    1.3157    0.7828 N.pl3     1 <0>        -0.4320
      4 C3         -0.4224    2.4543    1.5497 C.ar      1 <0>         0.1403
      5 C4          0.2805    3.6520    1.4788 C.ar      1 <0>        -0.2050
      6 C5          0.0830    4.5977    2.4615 C.ar      1 <0>         0.2011
      7 N2         -0.7570    4.3848    3.4610 N.ar      1 <0>        -0.4354
      8 C6         -1.4527    3.2734    3.5731 C.ar      1 <0>         0.2433
      9 C7         -1.3129    2.2569    2.6252 C.ar      1 <0>         0.0004
     10 C8         -1.3766    0.4683    1.3870 C.cat     1 <0>         0.5282
     11 C9         -1.7401   -0.8779    0.8921 C.2       1 <0>        -0.0864
     12 C10        -2.6825   -1.8587    1.4795 C.2       1 <0>         0.3373
     13 N3         -2.6148   -2.8606    0.6343 N.2       1 <0>        -0.3540
     14 O1         -1.8331   -2.5921   -0.2473 O.3       1 <0>         0.4261
     15 N4         -1.3034   -1.5081   -0.1774 N.2       1 <0>        -0.2841
     16 N5         -3.4473   -1.7455    2.6331 N.pl3     1 <0>        -0.7914
     17 C11         1.2410    3.9115    0.3469 C.3       1 <0>         0.0409
     18 C12         1.3822    4.4840   -2.0015 C.3       1 <0>         0.0090
     19 C13         2.0249    5.8738   -1.9900 C.3       1 <0>        -0.1710
     20 C14         2.9024    6.0349   -3.2334 C.3       1 <0>         0.0014
     21 C15         1.4918    4.5218   -4.4955 C.3       1 <0>         0.0029
     22 C16         0.5721    4.3156   -3.2899 C.3       1 <0>        -0.1754
     23 H1          2.1915    0.9474    0.5107 H         1 <0>         0.0766
     24 H2          1.3205   -0.6031    0.4356 H         1 <0>         0.0880
     25 H3          2.0858    0.0597   -1.0284 H         1 <0>         0.1156
     26 H4          0.5062    1.9994   -0.9342 H         1 <0>         0.0840
     27 H5         -0.3389    0.4438   -1.1190 H         1 <0>         0.1418
     28 H6          0.6248    5.5308    2.4149 H         1 <0>         0.2015
     29 H7         -2.1261    3.1422    4.4072 H         1 <0>         0.2090
     30 H8         -3.4005   -0.9382    3.1687 H         1 <0>         0.4102
     31 H9         -4.0283   -2.4737    2.9032 H         1 <0>         0.4460
     32 H10         1.9437    4.6920    0.6384 H         1 <0>         0.1710
     33 H11         1.7882    2.9970    0.1179 H         1 <0>         0.1475
     34 H12         2.1599    3.7216   -1.9579 H         1 <0>         0.1609
     35 H13         1.2451    6.6354   -1.9938 H         1 <0>         0.1184
     36 H14         2.6377    5.9839   -1.0953 H         1 <0>         0.1392
     37 H15         3.6903    5.2817   -3.2219 H         1 <0>         0.1457
     38 H16         3.3501    7.0287   -3.2354 H         1 <0>         0.1589
     39 H17         2.2862    3.7758   -4.4782 H         1 <0>         0.1457
     40 H18         0.9150    4.4169   -5.4145 H         1 <0>         0.1578
     41 H19         0.1469    3.3125   -3.3239 H         1 <0>         0.1333
     42 H20        -0.2310    5.0522   -3.3137 H         1 <0>         0.1182
     43 N6          0.4822    4.3468   -0.8408 N.4       1 <0>        -0.5258
     44 H21         0.0394    5.2526   -0.6466 H         1 <0>         0.4455
     45 H22        -0.2418    3.6507   -1.0540 H         1 <0>         0.4274
     46 N7          2.0795    5.8742   -4.4473 N.4       1 <0>        -0.5237
     47 H23         2.6682    6.0169   -5.2763 H         1 <0>         0.4578
     48 H24         1.3252    6.5707   -4.4392 H         1 <0>         0.4401
     49 N8         -1.8590    1.0286    2.4695 N.pl3     1 <0>        -0.4723
     50 H25        -2.5457    0.6011    3.1020 H         1 <0>         0.4828
@<TRIPOS>BOND
     1    1    2 1
     2    1   23 1
     3    1   24 1
     4    1   25 1
     5    2    3 1
     6    2   26 1
     7    2   27 1
     8    3   10 1
     9    3    4 1
    10    4    9 ar
    11    4    5 ar
    12    5    6 ar
    13    5   17 1
    14    6    7 ar
    15    6   28 1
    16    7    8 ar
    17    8    9 ar
    18    8   29 1
    19    9   49 1
    20   10   11 1
    21   10   49 2
    22   11   15 2
    23   11   12 1
    24   12   13 2
    25   12   16 1
    26   13   14 1
    27   14   15 1
    28   16   30 1
    29   16   31 1
    30   17   32 1
    31   17   33 1
    32   17   43 1
    33   18   22 1
    34   18   19 1
    35   18   34 1
    36   18   43 1
    37   19   20 1
    38   19   35 1
    39   19   36 1
    40   20   37 1
    41   20   38 1
    42   20   46 1
    43   21   22 1
    44   21   39 1
    45   21   40 1
    46   21   46 1
    47   22   41 1
    48   22   42 1
    49   43   44 1
    50   43   45 1
    51   46   47 1
    52   46   48 1
    53   49   50 1
@<TRIPOS>MOLECULE
ZINC13998530
   48    51     0     0     0
SMALL
USER_CHARGES
N-[[2-(4-amino-1,2,5-oxadiazol-3-yl)-1-ethyl-imidazo[5,4-d]pyridin-7-yl]methyl]piperidin-4-amine
@<TRIPOS>ATOM
      1 C1          1.5587    0.3111   -0.1080 C.3       1 <0>        -0.1786
      2 C2          0.2652    1.0542   -0.4478 C.3       1 <0>         0.0984
      3 N1         -0.4854    1.3157    0.7828 N.pl3     1 <0>        -0.4740
      4 C3         -0.4224    2.4543    1.5497 C.ar      1 <0>         0.0984
      5 C4          0.2805    3.6520    1.4788 C.ar      1 <0>        -0.2089
      6 C5          0.0830    4.5977    2.4615 C.ar      1 <0>         0.1545
      7 N2         -0.7570    4.3848    3.4610 N.ar      1 <0>        -0.4785
      8 C6         -1.4527    3.2734    3.5731 C.ar      1 <0>         0.2265
      9 C7         -1.3129    2.2569    2.6252 C.ar      1 <0>         0.0045
     10 N3         -1.8585    1.0289    2.4690 N.2       1 <0>        -0.4438
     11 C8         -1.3766    0.4683    1.3870 C.2       1 <0>         0.3923
     12 C9         -1.7401   -0.8779    0.8921 C.2       1 <0>        -0.0123
     13 C10        -2.6825   -1.8587    1.4795 C.2       1 <0>         0.3390
     14 N4         -2.6148   -2.8606    0.6343 N.2       1 <0>        -0.4099
     15 O1         -1.8331   -2.5921   -0.2473 O.3       1 <0>         0.3511
     16 N5         -1.3034   -1.5081   -0.1774 N.2       1 <0>        -0.3239
     17 N6         -3.4473   -1.7455    2.6331 N.pl3     1 <0>        -0.8239
     18 C11         1.2410    3.9115    0.3469 C.3       1 <0>         0.0492
     19 N7          0.4927    4.3449   -0.8406 N.4       1 <0>        -0.5443
     20 C12         1.3822    4.4840   -2.0015 C.3       1 <0>         0.0286
     21 C13         2.0249    5.8738   -1.9900 C.3       1 <0>        -0.1779
     22 C14         2.9024    6.0349   -3.2334 C.3       1 <0>         0.0501
     23 N8          2.0812    5.8656   -4.4389 N.3       1 <0>        -0.6639
     24 C15         1.4918    4.5218   -4.4955 C.3       1 <0>         0.0503
     25 C16         0.5721    4.3156   -3.2899 C.3       1 <0>        -0.1817
     26 H1          2.1223    0.1147   -1.0320 H         1 <0>         0.0939
     27 H2          1.3154   -0.6428    0.3829 H         1 <0>         0.0792
     28 H3          2.1683    0.9271    0.5695 H         1 <0>         0.0650
     29 H4          0.5085    2.0081   -0.9386 H         1 <0>         0.0660
     30 H5         -0.3444    0.4382   -1.1253 H         1 <0>         0.1214
     31 H6          0.6248    5.5308    2.4149 H         1 <0>         0.1741
     32 H7         -2.1261    3.1422    4.4072 H         1 <0>         0.1835
     33 H8         -4.1062   -2.5714    2.9394 H         1 <0>         0.4473
     34 H9         -3.3942   -0.8300    3.2405 H         1 <0>         0.4545
     35 H10         1.9502    4.6992    0.6411 H         1 <0>         0.1484
     36 H11         1.7932    2.9887    0.1157 H         1 <0>         0.1304
     37 H12        -0.2824    3.6011   -1.0772 H         1 <0>         0.4360
     38 H13         2.1485    3.6993   -1.9174 H         1 <0>         0.1334
     39 H14         1.2375    6.6419   -1.9927 H         1 <0>         0.0911
     40 H15         2.6423    5.9848   -1.0864 H         1 <0>         0.0950
     41 H16         3.3541    7.0379   -3.2359 H         1 <0>         0.1018
     42 H17         3.6974    5.2747   -3.2221 H         1 <0>         0.0861
     43 H18         0.9095    4.4156   -5.4227 H         1 <0>         0.1017
     44 H19         2.2934    3.7687   -4.4776 H         1 <0>         0.0861
     45 H20         0.1423    3.3036   -3.3232 H         1 <0>         0.0920
     46 H21        -0.2383    5.0590   -3.3133 H         1 <0>         0.0912
     47 H22         1.2675    6.6058   -4.4351 H         1 <0>         0.3507
     48 H23         0.0189    5.3173   -0.6407 H         1 <0>         0.4498
@<TRIPOS>BOND
     1    1    2 1
     2    1   26 1
     3    1   27 1
     4    1   28 1
     5    2    3 1
     6    2   29 1
     7    2   30 1
     8    3   11 1
     9    3    4 1
    10    4    9 ar
    11    4    5 ar
    12    5    6 ar
    13    5   18 1
    14    6    7 ar
    15    6   31 1
    16    7    8 ar
    17    8    9 ar
    18    8   32 1
    19    9   10 1
    20   10   11 2
    21   11   12 1
    22   12   16 2
    23   12   13 1
    24   13   14 2
    25   13   17 1
    26   14   15 1
    27   15   16 1
    28   17   33 1
    29   17   34 1
    30   18   19 1
    31   18   35 1
    32   18   36 1
    33   19   20 1
    34   19   37 1
    35   19   48 1
    36   20   25 1
    37   20   21 1
    38   20   38 1
    39   21   22 1
    40   21   39 1
    41   21   40 1
    42   22   23 1
    43   22   41 1
    44   22   42 1
    45   23   24 1
    46   23   47 1
    47   24   25 1
    48   24   43 1
    49   24   44 1
    50   25   45 1
    51   25   46 1
@<TRIPOS>MOLECULE
ZINC28129161
   72    79     0     0     0
SMALL
USER_CHARGES

@<TRIPOS>ATOM
      1 C1         -0.3287    0.5402   -0.9212 C.ar      1 <0>        -0.1015
      2 C2          0.7314    1.4282   -0.8804 C.ar      1 <0>        -0.1169
      3 C3          2.0146    0.9660   -0.6713 C.ar      1 <0>        -0.0749
      4 C4          2.2417   -0.3994   -0.5009 C.ar      1 <0>        -0.0486
      5 C5          1.1690   -1.2897   -0.5430 C.ar      1 <0>        -0.0915
      6 C6         -0.1096   -0.8154   -0.7529 C.ar      1 <0>        -0.1263
      7 C7          3.6170   -0.9022   -0.2765 C.ar      1 <0>         0.1612
      8 C8          3.8656   -1.8957    0.7645 C.ar      1 <0>         0.1447
      9 N1          5.0861   -2.3521    0.9743 N.ar      1 <0>        -0.4053
     10 C9          6.1016   -1.9017    0.2285 C.ar      1 <0>         0.0834
     11 C10         7.4071   -2.3713    0.4315 C.ar      1 <0>        -0.0723
     12 C11         8.4348   -1.8925   -0.3495 C.ar      1 <0>         0.0816
     13 C12         8.2007   -0.9303   -1.3592 C.ar      1 <0>         0.0794
     14 C13         6.9228   -0.4424   -1.5908 C.ar      1 <0>        -0.0208
     15 C14         5.8528   -0.9049   -0.8161 C.ar      1 <0>         0.0708
     16 N2          4.6091   -0.4536   -1.0222 N.ar      1 <0>        -0.4015
     17 N3          9.4040   -0.6700   -1.9399 N.2       1 <0>        -0.4996
     18 C15        10.3295   -1.3848   -1.3723 C.2       1 <0>         0.3115
     19 N4          9.7943   -2.1562   -0.3872 N.pl3     1 <0>        -0.6152
     20 H1         10.2757   -2.7758    0.1831 H         1 <0>         0.4324
     21 C16         2.7413   -2.3937    1.5904 C.ar      1 <0>         0.0007
     22 C17         1.8061   -1.5001    2.1121 C.ar      1 <0>        -0.0785
     23 C18         0.7607   -1.9702    2.8803 C.ar      1 <0>        -0.0958
     24 C19         0.6391   -3.3248    3.1333 C.ar      1 <0>        -0.1524
     25 C20         1.5637   -4.2161    2.6189 C.ar      1 <0>        -0.0917
     26 C21         2.6102   -3.7588    1.8446 C.ar      1 <0>        -0.0791
     27 C22        -0.5050   -3.8316    3.9730 C.3       1 <0>         0.0439
     28 N5         -1.6500   -4.1398    3.1058 N.4       1 <0>        -0.3853
     29 C23        -2.1345   -2.9037    2.4799 C.3       1 <0>        -0.0076
     30 C24        -3.2750   -3.2299    1.5134 C.3       1 <0>        -0.1650
     31 C25        -4.4178   -3.8942    2.2866 C.3       1 <0>         0.1609
     32 C26        -3.8835   -5.1418    2.9961 C.3       1 <0>        -0.1670
     33 C27        -2.7204   -4.7447    3.9077 C.3       1 <0>         0.0012
     34 N6         -5.4814   -4.2781    1.3552 N.am      1 <0>        -0.5372
     35 C28        -6.7971   -3.8220    1.3875 C.ar      1 <0>         0.0797
     36 C29        -7.4804   -2.9461    2.2173 C.ar      1 <0>        -0.1043
     37 C30        -8.8177   -2.6864    1.9906 C.ar      1 <0>        -0.1028
     38 C31        -9.4789   -3.2972    0.9388 C.ar      1 <0>        -0.0991
     39 C32        -8.8069   -4.1714    0.1073 C.ar      1 <0>        -0.1001
     40 C33        -7.4638   -4.4377    0.3264 C.ar      1 <0>         0.0915
     41 N7         -6.5326   -5.2489   -0.3177 N.am      1 <0>        -0.6395
     42 H2         -6.7042   -5.8035   -1.0948 H         1 <0>         0.4396
     43 C34        -5.3523   -5.1275    0.3185 C.2       1 <0>         0.6858
     44 O1         -4.3255   -5.7011    0.0062 O.2       1 <0>        -0.5577
     45 H3         -1.3318    0.9072   -1.0807 H         1 <0>         0.1264
     46 H4          0.5543    2.4853   -1.0128 H         1 <0>         0.1312
     47 H5          2.8414    1.6601   -0.6400 H         1 <0>         0.1307
     48 H6          1.3388   -2.3482   -0.4121 H         1 <0>         0.1209
     49 H7         -0.9412   -1.5037   -0.7854 H         1 <0>         0.1224
     50 H8          7.6058   -3.1058    1.1980 H         1 <0>         0.1452
     51 H9          6.7546    0.2922   -2.3644 H         1 <0>         0.1545
     52 H10        11.3746   -1.3690   -1.6441 H         1 <0>         0.2289
     53 H11         1.9003   -0.4423    1.9155 H         1 <0>         0.1390
     54 H12         0.0362   -1.2791    3.2851 H         1 <0>         0.1364
     55 H13         1.4639   -5.2725    2.8205 H         1 <0>         0.1364
     56 H14         3.3289   -4.4560    1.4399 H         1 <0>         0.1396
     57 H15        -0.1963   -4.7336    4.5014 H         1 <0>         0.1396
     58 H16        -0.7918   -3.0675    4.6955 H         1 <0>         0.1381
     59 H17        -2.4959   -2.2237    3.2514 H         1 <0>         0.1329
     60 H18        -1.3192   -2.4304    1.9326 H         1 <0>         0.1401
     61 H19        -3.6345   -2.3106    1.0510 H         1 <0>         0.1174
     62 H20        -2.9146   -3.9097    0.7412 H         1 <0>         0.1072
     63 H21        -4.8126   -3.1961    3.0248 H         1 <0>         0.1149
     64 H22        -4.6779   -5.5891    3.5935 H         1 <0>         0.1178
     65 H23        -3.5357   -5.8612    2.2547 H         1 <0>         0.1075
     66 H24        -2.3377   -5.6306    4.4145 H         1 <0>         0.1383
     67 H25        -3.0693   -4.0255    4.6487 H         1 <0>         0.1334
     68 H26        -6.9680   -2.4682    3.0392 H         1 <0>         0.1289
     69 H27        -9.3501   -2.0042    2.6368 H         1 <0>         0.1385
     70 H28       -10.5249   -3.0895    0.7680 H         1 <0>         0.1398
     71 H29        -9.3262   -4.6466   -0.7118 H         1 <0>         0.1365
     72 H30        -1.3620   -4.7875    2.3878 H         1 <0>         0.4262
@<TRIPOS>BOND
     1    1    6 ar
     2    1    2 ar
     3    1   45 1
     4    2    3 ar
     5    2   46 1
     6    3    4 ar
     7    3   47 1
     8    4    5 ar
     9    4    7 1
    10    5    6 ar
    11    5   48 1
    12    6   49 1
    13    7   16 ar
    14    7    8 ar
    15    8    9 ar
    16    8   21 1
    17    9   10 ar
    18   10   15 ar
    19   10   11 ar
    20   11   12 ar
    21   11   50 1
    22   12   19 1
    23   12   13 ar
    24   13   14 ar
    25   13   17 1
    26   14   15 ar
    27   14   51 1
    28   15   16 ar
    29   17   18 2
    30   18   19 1
    31   18   52 1
    32   19   20 1
    33   21   26 ar
    34   21   22 ar
    35   22   23 ar
    36   22   53 1
    37   23   24 ar
    38   23   54 1
    39   24   25 ar
    40   24   27 1
    41   25   26 ar
    42   25   55 1
    43   26   56 1
    44   27   28 1
    45   27   57 1
    46   27   58 1
    47   28   33 1
    48   28   29 1
    49   28   72 1
    50   29   30 1
    51   29   59 1
    52   29   60 1
    53   30   31 1
    54   30   61 1
    55   30   62 1
    56   31   32 1
    57   31   34 1
    58   31   63 1
    59   32   33 1
    60   32   64 1
    61   32   65 1
    62   33   66 1
    63   33   67 1
    64   34   43 am
    65   34   35 1
    66   35   40 ar
    67   35   36 ar
    68   36   37 ar
    69   36   68 1
    70   37   38 ar
    71   37   69 1
    72   38   39 ar
    73   38   70 1
    74   39   40 ar
    75   39   71 1
    76   40   41 1
    77   41   42 1
    78   41   43 am
    79   43   44 2
@<TRIPOS>MOLECULE
ZINC16052239
   54    58     0     0     0
SMALL
USER_CHARGES

@<TRIPOS>ATOM
      1 C1         -0.0127    1.0858    0.0080 C.3       1 <0>        -0.0807
      2 C2         -0.7416    1.5850   -1.2129 C.2       1 <0>         0.1087
      3 C3         -2.1734    1.8530   -1.3107 C.ar      1 <0>        -0.1761
      4 C4         -3.2414    1.7529   -0.4150 C.ar      1 <0>        -0.0088
      5 C5         -4.5171    2.0954   -0.8352 C.ar      1 <0>        -0.1054
      6 C6         -4.7322    2.5376   -2.1458 C.ar      1 <0>        -0.0533
      7 C7         -3.6953    2.6377   -3.0258 C.ar      1 <0>        -0.1375
      8 C8         -2.4036    2.2996   -2.6271 C.ar      1 <0>         0.1438
      9 N1         -1.1890    2.2950   -3.2623 N.pl3     1 <0>        -0.5049
     10 N2         -0.2060    1.8599   -2.3676 N.2       1 <0>        -0.2437
     11 H1         -1.0352    2.5551   -4.1840 H         1 <0>         0.4442
     12 C9         -5.6587    1.9924    0.1074 C.ar      1 <0>        -0.0277
     13 C10        -6.9504    2.3286   -0.3040 C.ar      1 <0>        -0.1020
     14 C11        -7.9845    2.2145    0.6161 C.ar      1 <0>         0.0708
     15 C12        -7.7007    1.7740    1.9017 C.ar      1 <0>         0.0161
     16 N3         -6.4690    1.4650    2.2561 N.ar      1 <0>        -0.4369
     17 C13        -5.4593    1.5533    1.4145 C.ar      1 <0>         0.0804
     18 O1         -9.2582    2.5305    0.2625 O.3       1 <0>        -0.3230
     19 C14       -10.2649    2.3862    1.2664 C.3       1 <0>         0.0265
     20 C15       -11.6236    2.7854    0.6872 C.3       1 <0>         0.0434
     21 H2        -11.5614    3.7928    0.2757 H         1 <0>         0.1527
     22 C16       -12.6798    2.7508    1.7936 C.3       1 <0>        -0.0555
     23 C17       -13.9907    3.2611    1.2529 C.2       1 <0>        -0.2374
     24 C18       -14.4526    4.5188    1.3344 C.2       1 <0>         0.1039
     25 N4        -15.6775    4.6060    0.7309 N.pl3     1 <0>        -0.5846
     26 H3        -16.2092    5.4146    0.6634 H         1 <0>         0.4265
     27 C19       -16.0431    3.3752    0.2336 C.ar      1 <0>         0.0987
     28 C20       -14.9996    2.4801    0.5332 C.ar      1 <0>        -0.1171
     29 C21       -15.0936    1.1440    0.1399 C.ar      1 <0>        -0.1140
     30 C22       -16.1988    0.7126   -0.5384 C.ar      1 <0>        -0.1192
     31 C23       -17.2289    1.5925   -0.8399 C.ar      1 <0>        -0.0932
     32 C24       -17.1609    2.9133   -0.4531 C.ar      1 <0>        -0.1110
     33 N5        -11.9980    1.8442   -0.3768 N.4       1 <0>        -0.6362
     34 H4          0.0021   -0.0041    0.0020 H         1 <0>         0.0877
     35 H5          1.0099    1.4631    0.0003 H         1 <0>         0.0842
     36 H6         -0.5229    1.4373    0.9048 H         1 <0>         0.0843
     37 H7         -3.0742    1.4112    0.5958 H         1 <0>         0.1365
     38 H8         -5.7300    2.8021   -2.4634 H         1 <0>         0.1317
     39 H9         -3.8757    2.9800   -4.0341 H         1 <0>         0.1330
     40 H10        -7.1402    2.6688   -1.3113 H         1 <0>         0.1473
     41 H11        -8.5004    1.6834    2.6220 H         1 <0>         0.1570
     42 H12        -4.4656    1.2863    1.7425 H         1 <0>         0.1665
     43 H13       -10.3018    1.3484    1.5974 H         1 <0>         0.0919
     44 H14       -10.0280    3.0297    2.1137 H         1 <0>         0.1138
     45 H15       -12.8055    1.7263    2.1440 H         1 <0>         0.0999
     46 H16       -12.3585    3.3815    2.6225 H         1 <0>         0.1218
     47 H17       -13.9343    5.3402    1.8067 H         1 <0>         0.1791
     48 H18       -14.2955    0.4538    0.3705 H         1 <0>         0.1149
     49 H19       -16.2710   -0.3212   -0.8425 H         1 <0>         0.1312
     50 H20       -18.0956    1.2368   -1.3772 H         1 <0>         0.1352
     51 H21       -17.9671    3.5904   -0.6935 H         1 <0>         0.1294
     52 H22       -12.8940    2.1074   -0.7588 H         1 <0>         0.4379
     53 H23       -11.3015    1.8670   -1.1064 H         1 <0>         0.4392
     54 H24       -12.0556    0.9116    0.0041 H         1 <0>         0.4300
@<TRIPOS>BOND
     1    1   34 1
     2    1   35 1
     3    1   36 1
     4    1    2 1
     5    2    3 1
     6    2   10 2
     7    3    4 ar
     8    3    8 ar
     9    4    5 ar
    10    4   37 1
    11    5    6 ar
    12    5   12 1
    13    6    7 ar
    14    6   38 1
    15    7    8 ar
    16    7   39 1
    17    8    9 1
    18    9   10 1
    19    9   11 1
    20   12   17 ar
    21   12   13 ar
    22   13   14 ar
    23   13   40 1
    24   14   15 ar
    25   14   18 1
    26   15   16 ar
    27   15   41 1
    28   16   17 ar
    29   17   42 1
    30   18   19 1
    31   19   20 1
    32   19   43 1
    33   19   44 1
    34   20   21 1
    35   20   22 1
    36   20   33 1
    37   22   23 1
    38   22   45 1
    39   22   46 1
    40   23   28 1
    41   23   24 2
    42   24   25 1
    43   24   47 1
    44   25   26 1
    45   25   27 1
    46   27   32 ar
    47   27   28 ar
    48   28   29 ar
    49   29   30 ar
    50   29   48 1
    51   30   31 ar
    52   30   49 1
    53   31   32 ar
    54   31   50 1
    55   32   51 1
    56   33   52 1
    57   33   53 1
    58   33   54 1
@<TRIPOS>MOLECULE
ZINC20149028
   48    51     0     0     0
SMALL
USER_CHARGES

@<TRIPOS>ATOM
      1 C1          0.4585    0.4884    0.9561 C.ar      1 <0>        -0.1053
      2 C2          1.6076    1.2518    1.0011 C.ar      1 <0>        -0.0998
      3 C3          2.4549    1.2978   -0.1049 C.ar      1 <0>         0.0176
      4 C4          2.1363    0.5716   -1.2514 C.ar      1 <0>        -0.1040
      5 C5          0.9840   -0.1888   -1.2854 C.ar      1 <0>        -0.0324
      6 C6          0.1465   -0.2303   -0.1835 C.ar      1 <0>        -0.1156
      7 Cl1         0.5845   -1.0937   -2.7121 Cl        1 <0>        -0.0710
      8 C7          3.6902    2.1165   -0.0621 C.2       1 <0>        -0.2037
      9 C8          4.0508    3.1299   -0.9685 C.2       1 <0>         0.0722
     10 N1          5.2047    3.6215   -0.6039 N.2       1 <0>        -0.2871
     11 N2          5.6429    2.9556    0.5466 N.pl3     1 <0>        -0.4647
     12 H1          6.4701    3.1267    1.0233 H         1 <0>         0.4422
     13 C9          4.7029    2.0294    0.8832 C.2       1 <0>         0.1918
     14 C10         4.7529    1.1045    2.0356 C.2       1 <0>        -0.1449
     15 C11         5.0814    1.4409    3.3654 C.2       1 <0>        -0.0773
     16 C12         5.0056    0.2925    4.1007 C.2       1 <0>        -0.0519
     17 N3          4.6408   -0.7344    3.2595 N.pl3     1 <0>        -0.5281
     18 H2          4.5146   -1.6594    3.5227 H         1 <0>         0.4216
     19 C13         4.4814   -0.2472    2.0125 C.2       1 <0>         0.0829
     20 C14         5.2686    0.1735    5.5394 C.2       1 <0>         0.5932
     21 O1          5.5864    1.1561    6.1831 O.2       1 <0>        -0.5224
     22 N4          5.1581   -1.0240    6.1478 N.am      1 <0>        -0.7200
     23 C15         5.4207   -1.1428    7.5842 C.3       1 <0>         0.1955
     24 H3          5.0845   -0.2383    8.0910 H         1 <0>         0.1178
     25 C16         6.9218   -1.3287    7.8146 C.3       1 <0>         0.0662
     26 O2          7.3400   -2.5728    7.2497 O.3       1 <0>        -0.5690
     27 C17         4.6770   -2.3326    8.1341 C.ar      1 <0>        -0.0923
     28 C18         4.6144   -3.5055    7.4046 C.ar      1 <0>        -0.0584
     29 C19         3.9333   -4.5977    7.9074 C.ar      1 <0>        -0.1407
     30 C20         3.3129   -4.5177    9.1426 C.ar      1 <0>         0.1157
     31 C21         3.3759   -3.3421    9.8731 C.ar      1 <0>        -0.0735
     32 C22         4.0629   -2.2522    9.3697 C.ar      1 <0>        -0.0701
     33 Cl2         2.5989   -3.2394   11.4221 Cl        1 <0>        -0.0419
     34 F1          2.6464   -5.5848    9.6348 F         1 <0>        -0.1235
     35 H4         -0.1960    0.4488    1.8142 H         1 <0>         0.1306
     36 H5          1.8497    1.8128    1.8916 H         1 <0>         0.1270
     37 H6          2.7889    0.6038   -2.1113 H         1 <0>         0.1339
     38 H7         -0.7536   -0.8264   -0.2139 H         1 <0>         0.1311
     39 H8          3.4713    3.4477   -1.8226 H         1 <0>         0.1869
     40 H9          5.3438    2.4220    3.7330 H         1 <0>         0.1533
     41 H10         4.1925   -0.8188    1.1429 H         1 <0>         0.1806
     42 H11         4.9048   -1.8072    5.6347 H         1 <0>         0.3970
     43 H12         7.4661   -0.5126    7.3394 H         1 <0>         0.0611
     44 H13         7.1279   -1.3281    8.8850 H         1 <0>         0.0615
     45 H14         8.2829   -2.7572    7.3588 H         1 <0>         0.3842
     46 H15         5.0980   -3.5680    6.4409 H         1 <0>         0.1389
     47 H16         3.8845   -5.5134    7.3369 H         1 <0>         0.1481
     48 H17         4.1162   -1.3370    9.9406 H         1 <0>         0.1467
@<TRIPOS>BOND
     1    1    6 ar
     2    1    2 ar
     3    1   35 1
     4    2    3 ar
     5    2   36 1
     6    3    4 ar
     7    3    8 1
     8    4    5 ar
     9    4   37 1
    10    5    6 ar
    11    5    7 1
    12    6   38 1
    13    8   13 2
    14    8    9 1
    15    9   10 2
    16    9   39 1
    17   10   11 1
    18   11   12 1
    19   11   13 1
    20   13   14 1
    21   14   19 2
    22   14   15 1
    23   15   16 2
    24   15   40 1
    25   16   17 1
    26   16   20 1
    27   17   18 1
    28   17   19 1
    29   19   41 1
    30   20   21 2
    31   20   22 am
    32   22   23 1
    33   22   42 1
    34   23   24 1
    35   23   25 1
    36   23   27 1
    37   25   26 1
    38   25   43 1
    39   25   44 1
    40   26   45 1
    41   27   32 ar
    42   27   28 ar
    43   28   29 ar
    44   28   46 1
    45   29   30 ar
    46   29   47 1
    47   30   31 ar
    48   30   34 1
    49   31   32 ar
    50   31   33 1
    51   32   48 1
@<TRIPOS>MOLECULE
ZINC20149028
   48    51     0     0     0
SMALL
USER_CHARGES

@<TRIPOS>ATOM
      1 C1         -0.0167    1.3786    0.0096 C.ar      1 <0>        -0.1038
      2 C2          1.1676    2.0878    0.0021 C.ar      1 <0>        -0.1106
      3 C3          2.3840    1.4085   -0.0131 C.ar      1 <0>         0.0145
      4 C4          2.3983    0.0151   -0.0207 C.ar      1 <0>        -0.0965
      5 C5          1.2076   -0.6849   -0.0131 C.ar      1 <0>        -0.0326
      6 C6          0.0021   -0.0041    0.0020 C.ar      1 <0>        -0.1163
      7 Cl1         1.2227   -2.4208   -0.0230 Cl        1 <0>        -0.0706
      8 C7          3.6597    2.1660   -0.0217 C.2       1 <0>        -0.2032
      9 C8          3.9817    3.1931   -0.8578 C.2       1 <0>         0.0825
     10 N1          5.2257    3.6075   -0.5427 N.pl3     1 <0>        -0.4697
     11 N2          5.6983    2.8234    0.5164 N.2       1 <0>        -0.2800
     12 H1          5.7109    4.3266   -0.9767 H         1 <0>         0.4446
     13 C9          4.7639    1.9580    0.8421 C.2       1 <0>         0.1753
     14 C10         4.8515    0.9411    1.9196 C.2       1 <0>        -0.1178
     15 C11         6.0090    0.2429    2.3146 C.2       1 <0>        -0.0657
     16 C12         5.6459   -0.5903    3.3354 C.2       1 <0>        -0.0577
     17 N3          4.3004   -0.4148    3.5685 N.pl3     1 <0>        -0.5321
     18 H2          3.7794   -0.8811    4.2408 H         1 <0>         0.4194
     19 C13         3.8255    0.5150    2.7144 C.2       1 <0>         0.0728
     20 C14         6.5335   -1.5100    4.0557 C.2       1 <0>         0.5950
     21 O1          7.7114   -1.5775    3.7574 O.2       1 <0>        -0.5234
     22 N4          6.0445   -2.2801    5.0478 N.am      1 <0>        -0.7212
     23 C15         6.9308   -3.1985    5.7669 C.3       1 <0>         0.1953
     24 H3          7.9206   -2.7511    5.8585 H         1 <0>         0.1174
     25 C16         7.0358   -4.5153    4.9950 C.3       1 <0>         0.0663
     26 O2          5.7601   -5.1589    4.9753 O.3       1 <0>        -0.5686
     27 C17         6.3708   -3.4647    7.1405 C.ar      1 <0>        -0.0909
     28 C18         5.0096   -3.6389    7.3095 C.ar      1 <0>        -0.0580
     29 C19         4.4944   -3.8835    8.5683 C.ar      1 <0>        -0.1408
     30 C20         5.3415   -3.9543    9.6610 C.ar      1 <0>         0.1147
     31 C21         6.7054   -3.7797    9.4910 C.ar      1 <0>        -0.0736
     32 C22         7.2190   -3.5401    8.2292 C.ar      1 <0>        -0.0704
     33 Cl2         7.7697   -3.8679   10.8597 Cl        1 <0>        -0.0431
     34 F1          4.8387   -4.1930   10.8920 F         1 <0>        -0.1241
     35 H4         -0.9598    1.9047    0.0260 H         1 <0>         0.1327
     36 H5          1.1513    3.1677    0.0077 H         1 <0>         0.1287
     37 H6          3.3383   -0.5164   -0.0328 H         1 <0>         0.1337
     38 H7         -0.9269   -0.5549    0.0079 H         1 <0>         0.1317
     39 H8          3.3526    3.6020   -1.6347 H         1 <0>         0.1815
     40 H9          6.9969    0.3459    1.8906 H         1 <0>         0.1533
     41 H10         2.8041    0.8626    2.6654 H         1 <0>         0.1753
     42 H11         5.1056   -2.2264    5.2856 H         1 <0>         0.3967
     43 H12         7.3564   -4.3128    3.9731 H         1 <0>         0.0616
     44 H13         7.7630   -5.1650    5.4820 H         1 <0>         0.0605
     45 H14         5.7521   -6.0018    4.5014 H         1 <0>         0.3836
     46 H15         4.3486   -3.5834    6.4573 H         1 <0>         0.1395
     47 H16         3.4310   -4.0191    8.6996 H         1 <0>         0.1478
     48 H17         8.2825   -3.4083    8.0952 H         1 <0>         0.1466
@<TRIPOS>BOND
     1    1    6 ar
     2    1    2 ar
     3    1   35 1
     4    2    3 ar
     5    2   36 1
     6    3    4 ar
     7    3    8 1
     8    4    5 ar
     9    4   37 1
    10    5    6 ar
    11    5    7 1
    12    6   38 1
    13    8   13 1
    14    8    9 2
    15    9   39 1
    16    9   10 1
    17   10   11 1
    18   10   12 1
    19   11   13 2
    20   13   14 1
    21   14   19 2
    22   14   15 1
    23   15   16 2
    24   15   40 1
    25   16   17 1
    26   16   20 1
    27   17   18 1
    28   17   19 1
    29   19   41 1
    30   20   21 2
    31   20   22 am
    32   22   23 1
    33   22   42 1
    34   23   24 1
    35   23   25 1
    36   23   27 1
    37   25   26 1
    38   25   43 1
    39   25   44 1
    40   26   45 1
    41   27   32 ar
    42   27   28 ar
    43   28   29 ar
    44   28   46 1
    45   29   30 ar
    46   29   47 1
    47   30   31 ar
    48   30   34 1
    49   31   32 ar
    50   31   33 1
    51   32   48 1
@<TRIPOS>MOLECULE
ZINC28714095
   62    67     0     0     0
SMALL
USER_CHARGES
N-(4-hydroxycyclohexyl)-3-[4-(4-hydroxyphenyl)phenyl]-1,4-dihydroindeno[1,2-c]pyrazole-6-carboxamide
@<TRIPOS>ATOM
      1 C1          3.5844    5.3599    0.6882 C.ar      1 <0>        -0.1162
      2 C2          2.7790    4.2424    0.6905 C.ar      1 <0>        -0.0841
      3 C3          1.5622    4.2586    0.0100 C.ar      1 <0>        -0.0212
      4 C4          1.1626    5.4041   -0.6770 C.ar      1 <0>        -0.0865
      5 C5          1.9651    6.5238   -0.6747 C.ar      1 <0>        -0.1157
      6 C6          3.1825    6.5077    0.0055 C.ar      1 <0>        -0.0241
      7 C7          4.0496    7.7106    0.0025 C.ar      1 <0>        -0.0946
      8 C8          5.2644    7.6977    0.6864 C.ar      1 <0>        -0.0643
      9 C9          6.0710    8.8161    0.6773 C.ar      1 <0>        -0.1614
     10 C10         5.6695    9.9578   -0.0032 C.ar      1 <0>         0.1615
     11 C11         4.4576    9.9757   -0.6805 C.ar      1 <0>        -0.2135
     12 C12         3.6490    8.8587   -0.6796 C.ar      1 <0>        -0.0653
     13 O1          6.4640   11.0600   -0.0060 O.3       1 <0>        -0.5096
     14 C13         0.6953    3.0545    0.0118 C.2       1 <0>         0.1379
     15 C14        -0.7085    3.0512    0.0252 C.2       1 <0>        -0.2195
     16 C15        -1.1284    1.7549    0.0163 C.2       1 <0>         0.0808
     17 N1         -0.0111    0.9658    0.0074 N.pl3     1 <0>        -0.4626
     18 H1         -0.1114   -0.1296    0.0063 H         1 <0>         0.4717
     19 N2          1.1102    1.8043    0.0011 N.2       1 <0>        -0.2432
     20 C16        -2.6056    1.6992    0.0365 C.ar      1 <0>        -0.0084
     21 C17        -3.4888    0.6134    0.0396 C.ar      1 <0>        -0.1023
     22 C18        -4.8373    0.8246    0.0544 C.ar      1 <0>        -0.0849
     23 C19        -5.3474    2.1258    0.0666 C.ar      1 <0>        -0.1225
     24 C20        -4.4711    3.2158    0.0635 C.ar      1 <0>        -0.0369
     25 C21        -3.1147    2.9996    0.0486 C.ar      1 <0>        -0.0767
     26 C22        -1.9313    3.9361    0.0421 C.3       1 <0>        -0.0125
     27 C23        -6.8069    2.3490    0.0821 C.2       1 <0>         0.5615
     28 O2         -7.2486    3.4817    0.0922 O.2       1 <0>        -0.5345
     29 N3         -7.6495    1.2971    0.0850 N.am      1 <0>        -0.7348
     30 C24        -9.0976    1.5185    0.1004 C.3       1 <0>         0.1464
     31 C25        -9.5685    1.7125    1.5431 C.3       1 <0>        -0.1253
     32 C26       -11.0808    1.9438    1.5592 C.3       1 <0>        -0.1105
     33 C27       -11.7886    0.7317    0.9503 C.3       1 <0>         0.1144
     34 C28       -11.3177    0.5377   -0.4924 C.3       1 <0>        -0.1470
     35 C29        -9.8053    0.3064   -0.5085 C.3       1 <0>        -0.1233
     36 O3        -13.2011    0.9477    0.9653 O.3       1 <0>        -0.6016
     37 H2          4.5270    5.3474    1.2153 H         1 <0>         0.1290
     38 H3          3.0902    3.3536    1.2192 H         1 <0>         0.1283
     39 H4          0.2219    5.4151   -1.2075 H         1 <0>         0.1279
     40 H5          1.6538    7.4124   -1.2038 H         1 <0>         0.1294
     41 H6          5.5752    6.8114    1.2197 H         1 <0>         0.1327
     42 H7          7.0140    8.8054    1.2035 H         1 <0>         0.1310
     43 H8          4.1481   10.8652   -1.2090 H         1 <0>         0.1292
     44 H9          2.7063    8.8733   -1.2063 H         1 <0>         0.1287
     45 H10         6.1470   11.9651   -0.5448 H         1 <0>         0.4351
     46 H11        -3.1021   -0.3949    0.0307 H         1 <0>         0.1297
     47 H12        -5.5133   -0.0177    0.0564 H         1 <0>         0.1313
     48 H13        -4.8594    4.2236    0.0725 H         1 <0>         0.1443
     49 H14        -1.9155    4.5662    0.9436 H         1 <0>         0.1042
     50 H15        -1.9332    4.5761   -0.8525 H         1 <0>         0.1025
     51 H16        -7.2499    0.2723    0.0758 H         1 <0>         0.4168
     52 H17        -9.2940    2.4217   -0.4960 H         1 <0>         0.0915
     53 H18        -9.3287    0.8142    2.1310 H         1 <0>         0.0672
     54 H19        -9.0596    2.5839    1.9809 H         1 <0>         0.0759
     55 H20       -11.4194    2.0833    2.5965 H         1 <0>         0.0731
     56 H21       -11.3206    2.8421    0.9713 H         1 <0>         0.0734
     57 H22       -11.6171   -0.1737    1.5510 H         1 <0>         0.0508
     58 H23       -11.8266   -0.3337   -0.9301 H         1 <0>         0.0704
     59 H24       -11.5576    1.4359   -1.0803 H         1 <0>         0.0750
     60 H25        -9.4667    0.1670   -1.5457 H         1 <0>         0.0738
     61 H26        -9.5654   -0.5918    0.0794 H         1 <0>         0.0709
     62 H27       -13.8793    0.1795    0.5654 H         1 <0>         0.4066
@<TRIPOS>BOND
     1    1    6 ar
     2    1    2 ar
     3    1   37 1
     4    2    3 ar
     5    2   38 1
     6    3    4 ar
     7    3   14 1
     8    4    5 ar
     9    4   39 1
    10    5    6 ar
    11    5   40 1
    12    6    7 1
    13    7   12 ar
    14    7    8 ar
    15    8    9 ar
    16    8   41 1
    17    9   10 ar
    18    9   42 1
    19   10   11 ar
    20   10   13 1
    21   11   12 ar
    22   11   43 1
    23   12   44 1
    24   13   45 1
    25   14   19 2
    26   14   15 1
    27   15   26 1
    28   15   16 2
    29   16   17 1
    30   16   20 1
    31   17   18 1
    32   17   19 1
    33   20   25 ar
    34   20   21 ar
    35   21   22 ar
    36   21   46 1
    37   22   23 ar
    38   22   47 1
    39   23   24 ar
    40   23   27 1
    41   24   25 ar
    42   24   48 1
    43   25   26 1
    44   26   49 1
    45   26   50 1
    46   27   28 2
    47   27   29 am
    48   29   30 1
    49   29   51 1
    50   30   35 1
    51   30   31 1
    52   30   52 1
    53   31   32 1
    54   31   53 1
    55   31   54 1
    56   32   33 1
    57   32   55 1
    58   32   56 1
    59   33   34 1
    60   33   36 1
    61   33   57 1
    62   34   35 1
    63   34   58 1
    64   34   59 1
    65   35   60 1
    66   35   61 1
    67   36   62 1
@<TRIPOS>MOLECULE
ZINC34285211
   59    62     0     0     0
SMALL
USER_CHARGES

@<TRIPOS>ATOM
      1 C1         -0.0187    1.5258    0.0104 C.3       1 <0>        -0.1656
      2 C2          0.0021   -0.0041    0.0020 C.3       1 <0>         0.0991
      3 N1          0.6878   -0.4765   -1.2033 N.pl3     1 <0>        -0.4455
      4 C3          0.1084   -0.7452   -2.4220 C.ar      1 <0>         0.0734
      5 C4         -1.1885   -0.6848   -2.9333 C.ar      1 <0>         0.0979
      6 C5         -1.4068   -1.0423   -4.2530 C.ar      1 <0>         0.0255
      7 N2         -0.4156   -1.4373   -5.0310 N.ar      1 <0>        -0.4288
      8 C6          0.8360   -1.5144   -4.6003 C.ar      1 <0>         0.2963
      9 C7          1.1491   -1.1685   -3.2692 C.ar      1 <0>         0.0642
     10 N3          2.2847   -1.1401   -2.5504 N.2       1 <0>        -0.4358
     11 C8          2.0279   -0.7287   -1.3319 C.2       1 <0>         0.3425
     12 C9          3.0324   -0.5655   -0.2583 C.2       1 <0>         0.1311
     13 C10         4.4724   -0.8253   -0.3802 C.2       1 <0>         0.3646
     14 N4          5.0335   -0.5707    0.7697 N.2       1 <0>        -0.3434
     15 O1          4.0212   -0.1472    1.6654 O.3       1 <0>         0.0494
     16 N5          2.7917   -0.1594    0.9619 N.2       1 <0>        -0.2485
     17 N6          5.1251   -1.2670   -1.5235 N.pl3     1 <0>        -0.7999
     18 C11         1.8718   -1.9500   -5.4881 C.1       1 <0>        -0.1208
     19 C12         2.7209   -2.3071   -6.2159 C.1       1 <0>        -0.0802
     20 C13         3.7856   -2.7549   -7.1284 C.3       1 <0>         0.2403
     21 C14         5.1250   -2.7540   -6.3888 C.3       1 <0>        -0.1769
     22 C15         3.4749   -4.1704   -7.6190 C.3       1 <0>        -0.1771
     23 O2          3.8585   -1.8683   -8.2468 O.3       1 <0>        -0.5533
     24 O3         -2.2219   -0.2814   -2.1476 O.3       1 <0>        -0.3053
     25 C16        -3.5183   -0.2475   -2.7478 C.3       1 <0>         0.0602
     26 C17        -4.5450    0.2275   -1.7176 C.3       1 <0>        -0.1100
     27 H1         -4.4926   -0.4065   -0.8325 H         1 <0>         0.1080
     28 C18        -4.2441    1.6772   -1.3267 C.3       1 <0>        -0.1348
     29 C19        -5.3219    2.1680   -0.3558 C.3       1 <0>        -0.1475
     30 C20        -6.6969    2.0173   -1.0100 C.3       1 <0>        -0.0100
     31 N7         -6.9357    0.6061   -1.3358 N.4       1 <0>        -0.5023
     32 C21        -5.9489    0.1476   -2.3210 C.3       1 <0>        -0.0035
     33 H2          1.0039    1.9031    0.0027 H         1 <0>         0.0658
     34 H3         -0.5459    1.8868   -0.8726 H         1 <0>         0.0628
     35 H4         -0.5289    1.8773    0.9072 H         1 <0>         0.0853
     36 H5          0.5293   -0.3651    0.8851 H         1 <0>         0.1095
     37 H6         -1.0205   -0.3814    0.0098 H         1 <0>         0.1024
     38 H7         -2.4085   -0.9976   -4.6543 H         1 <0>         0.1718
     39 H8          4.6220   -1.4309   -2.3365 H         1 <0>         0.4312
     40 H9          6.0842   -1.4116   -1.5092 H         1 <0>         0.4212
     41 H10         5.0694   -3.4303   -5.5357 H         1 <0>         0.0725
     42 H11         5.9134   -3.0856   -7.0645 H         1 <0>         0.0747
     43 H12         5.3464   -1.7456   -6.0392 H         1 <0>         0.0708
     44 H13         2.5207   -4.1710   -8.1459 H         1 <0>         0.0706
     45 H14         4.2633   -4.5020   -8.2948 H         1 <0>         0.0744
     46 H15         3.4193   -4.8466   -6.7660 H         1 <0>         0.0730
     47 H16         4.5403   -2.1031   -8.8910 H         1 <0>         0.3893
     48 H17        -3.5089    0.4388   -3.5945 H         1 <0>         0.0809
     49 H18        -3.7852   -1.2465   -3.0928 H         1 <0>         0.0809
     50 H19        -3.2679    1.7296   -0.8445 H         1 <0>         0.1002
     51 H20        -4.2451    2.3031   -2.2191 H         1 <0>         0.0849
     52 H21        -5.2864    1.5744    0.5577 H         1 <0>         0.0898
     53 H22        -5.1458    3.2167   -0.1163 H         1 <0>         0.1153
     54 H23        -7.4666    2.3660   -0.3215 H         1 <0>         0.1359
     55 H24        -6.7314    2.6114   -1.9232 H         1 <0>         0.1322
     56 H25        -6.8551    0.0502   -0.4977 H         1 <0>         0.4295
     57 H26        -5.9999    0.7811   -3.2066 H         1 <0>         0.1367
     58 H27        -6.1659   -0.8835   -2.6000 H         1 <0>         0.1389
     59 H28        -7.8638    0.5026   -1.7178 H         1 <0>         0.4360
@<TRIPOS>BOND
     1    1    2 1
     2    1   33 1
     3    1   34 1
     4    1   35 1
     5    2    3 1
     6    2   36 1
     7    2   37 1
     8    3   11 1
     9    3    4 1
    10    4    9 ar
    11    4    5 ar
    12    5    6 ar
    13    5   24 1
    14    6    7 ar
    15    6   38 1
    16    7    8 ar
    17    8    9 ar
    18    8   18 1
    19    9   10 1
    20   10   11 2
    21   11   12 1
    22   12   16 2
    23   12   13 1
    24   13   14 2
    25   13   17 1
    26   14   15 1
    27   15   16 1
    28   17   39 1
    29   17   40 1
    30   18   19 3
    31   19   20 1
    32   20   21 1
    33   20   22 1
    34   20   23 1
    35   21   41 1
    36   21   42 1
    37   21   43 1
    38   22   44 1
    39   22   45 1
    40   22   46 1
    41   23   47 1
    42   24   25 1
    43   25   26 1
    44   25   48 1
    45   25   49 1
    46   26   27 1
    47   26   32 1
    48   26   28 1
    49   28   29 1
    50   28   50 1
    51   28   51 1
    52   29   30 1
    53   29   52 1
    54   29   53 1
    55   30   31 1
    56   30   54 1
    57   30   55 1
    58   31   32 1
    59   31   56 1
    60   31   59 1
    61   32   57 1
    62   32   58 1
@<TRIPOS>MOLECULE
ZINC34894468
   59    62     0     0     0
SMALL
USER_CHARGES

@<TRIPOS>ATOM
      1 C1         -0.0187    1.5258    0.0104 C.3       1 <0>        -0.1654
      2 C2          0.0021   -0.0041    0.0020 C.3       1 <0>         0.0997
      3 N1          0.6878   -0.4765   -1.2033 N.pl3     1 <0>        -0.4456
      4 C3          0.1084   -0.7452   -2.4220 C.ar      1 <0>         0.0734
      5 C4         -1.1885   -0.6848   -2.9333 C.ar      1 <0>         0.0979
      6 C5         -1.4068   -1.0423   -4.2530 C.ar      1 <0>         0.0255
      7 N2         -0.4156   -1.4373   -5.0310 N.ar      1 <0>        -0.4288
      8 C6          0.8360   -1.5144   -4.6003 C.ar      1 <0>         0.2963
      9 C7          1.1491   -1.1685   -3.2692 C.ar      1 <0>         0.0642
     10 N3          2.2847   -1.1401   -2.5504 N.2       1 <0>        -0.4357
     11 C8          2.0279   -0.7287   -1.3319 C.2       1 <0>         0.3425
     12 C9          3.0324   -0.5655   -0.2583 C.2       1 <0>         0.1311
     13 C10         4.4724   -0.8253   -0.3802 C.2       1 <0>         0.3646
     14 N4          5.0335   -0.5707    0.7697 N.2       1 <0>        -0.3434
     15 O1          4.0212   -0.1472    1.6654 O.3       1 <0>         0.0494
     16 N5          2.7917   -0.1594    0.9619 N.2       1 <0>        -0.2485
     17 N6          5.1251   -1.2670   -1.5235 N.pl3     1 <0>        -0.7999
     18 C11         1.8718   -1.9500   -5.4881 C.1       1 <0>        -0.1207
     19 C12         2.7209   -2.3071   -6.2159 C.1       1 <0>        -0.0802
     20 C13         3.7856   -2.7549   -7.1284 C.3       1 <0>         0.2403
     21 C14         5.1250   -2.7540   -6.3888 C.3       1 <0>        -0.1769
     22 C15         3.4749   -4.1704   -7.6190 C.3       1 <0>        -0.1771
     23 O2          3.8585   -1.8683   -8.2468 O.3       1 <0>        -0.5533
     24 O3         -2.2219   -0.2814   -2.1476 O.3       1 <0>        -0.3053
     25 C16        -3.5183   -0.2475   -2.7478 C.3       1 <0>         0.0602
     26 C17        -4.5450    0.2275   -1.7176 C.3       1 <0>        -0.1101
     27 H1         -4.2313    1.1872   -1.3070 H         1 <0>         0.1084
     28 C18        -4.6505   -0.8019   -0.5887 C.3       1 <0>        -0.1341
     29 C19        -5.7357   -0.3560    0.3956 C.3       1 <0>        -0.1476
     30 C20        -7.0574   -0.1814   -0.3555 C.3       1 <0>        -0.0100
     31 N7         -6.8984    0.8337   -1.4036 N.4       1 <0>        -0.5022
     32 C21        -5.9106    0.3814   -2.3906 C.3       1 <0>        -0.0035
     33 H2          1.0039    1.9031    0.0027 H         1 <0>         0.0656
     34 H3         -0.5459    1.8868   -0.8726 H         1 <0>         0.0629
     35 H4         -0.5289    1.8773    0.9072 H         1 <0>         0.0853
     36 H5          0.5293   -0.3651    0.8851 H         1 <0>         0.1094
     37 H6         -1.0205   -0.3814    0.0098 H         1 <0>         0.1017
     38 H7         -2.4085   -0.9976   -4.6543 H         1 <0>         0.1718
     39 H8          4.6220   -1.4309   -2.3365 H         1 <0>         0.4312
     40 H9          6.0842   -1.4116   -1.5092 H         1 <0>         0.4212
     41 H10         5.0694   -3.4303   -5.5357 H         1 <0>         0.0725
     42 H11         5.9134   -3.0856   -7.0645 H         1 <0>         0.0747
     43 H12         5.3464   -1.7456   -6.0392 H         1 <0>         0.0708
     44 H13         2.5207   -4.1710   -8.1459 H         1 <0>         0.0706
     45 H14         4.2633   -4.5020   -8.2948 H         1 <0>         0.0744
     46 H15         3.4193   -4.8466   -6.7660 H         1 <0>         0.0730
     47 H16         4.5403   -2.1031   -8.8910 H         1 <0>         0.3893
     48 H17        -3.5089    0.4388   -3.5945 H         1 <0>         0.0810
     49 H18        -3.7852   -1.2465   -3.0928 H         1 <0>         0.0808
     50 H19        -4.9136   -1.7741   -1.0053 H         1 <0>         0.0850
     51 H20        -3.6947   -0.8730   -0.0697 H         1 <0>         0.0989
     52 H21        -5.8554   -1.1114    1.1722 H         1 <0>         0.1153
     53 H22        -5.4475    0.5918    0.8502 H         1 <0>         0.0899
     54 H23        -7.3448   -1.1298   -0.8094 H         1 <0>         0.1322
     55 H24        -7.8322    0.1358    0.3424 H         1 <0>         0.1359
     56 H25        -7.7848    0.9849   -1.8613 H         1 <0>         0.4361
     57 H26        -5.8384    1.1139   -3.1947 H         1 <0>         0.1390
     58 H27        -6.2228   -0.5785   -2.8018 H         1 <0>         0.1366
     59 H28        -6.5849    1.6982   -0.9883 H         1 <0>         0.4295
@<TRIPOS>BOND
     1    1    2 1
     2    1   33 1
     3    1   34 1
     4    1   35 1
     5    2    3 1
     6    2   36 1
     7    2   37 1
     8    3   11 1
     9    3    4 1
    10    4    9 ar
    11    4    5 ar
    12    5    6 ar
    13    5   24 1
    14    6    7 ar
    15    6   38 1
    16    7    8 ar
    17    8    9 ar
    18    8   18 1
    19    9   10 1
    20   10   11 2
    21   11   12 1
    22   12   16 2
    23   12   13 1
    24   13   14 2
    25   13   17 1
    26   14   15 1
    27   15   16 1
    28   17   39 1
    29   17   40 1
    30   18   19 3
    31   19   20 1
    32   20   21 1
    33   20   22 1
    34   20   23 1
    35   21   41 1
    36   21   42 1
    37   21   43 1
    38   22   44 1
    39   22   45 1
    40   22   46 1
    41   23   47 1
    42   24   25 1
    43   25   26 1
    44   25   48 1
    45   25   49 1
    46   26   27 1
    47   26   32 1
    48   26   28 1
    49   28   29 1
    50   28   50 1
    51   28   51 1
    52   29   30 1
    53   29   52 1
    54   29   53 1
    55   30   31 1
    56   30   54 1
    57   30   55 1
    58   31   32 1
    59   31   56 1
    60   31   59 1
    61   32   57 1
    62   32   58 1
@<TRIPOS>MOLECULE
ZINC03812168
   64    69     0     0     0
SMALL
USER_CHARGES
dimethylaminomethylBLAHdione
@<TRIPOS>ATOM
      1 C1         -3.6591   -3.4932   -0.5238 C.3       1 <0>        -0.0551
      2 C2         -2.4926   -2.9550   -2.5762 C.3       1 <0>        -0.0445
      3 C3         -2.6578   -1.3072   -0.8098 C.3       1 <0>        -0.0358
      4 C4         -2.4673   -1.1012    0.6860 C.3       1 <0>         0.0654
      5 H1         -3.1645   -1.7751    1.2185 H         1 <0>         0.0947
      6 C5         -2.7230    0.3270    1.1457 C.3       1 <0>        -0.1345
      7 C6         -2.5225    1.3892    0.0793 C.3       1 <0>         0.1021
      8 N1         -1.1339    1.8402    0.0096 N.pl3     1 <0>        -0.4782
      9 C7         -0.0126    1.0747    0.0080 C.2       1 <0>         0.0759
     10 C8          1.1009    1.8532    0.0015 C.2       1 <0>        -0.1124
     11 C9          0.6150    3.2557   -0.0375 C.ar      1 <0>        -0.0829
     12 C10        -0.7846    3.1777   -0.0610 C.ar      1 <0>         0.0902
     13 C11        -1.5354    4.3459   -0.1576 C.ar      1 <0>        -0.1369
     14 C12        -0.9089    5.5725   -0.1941 C.ar      1 <0>        -0.0870
     15 C13         0.4756    5.6497   -0.1263 C.ar      1 <0>        -0.1387
     16 C14         1.2312    4.5008   -0.0317 C.ar      1 <0>        -0.0542
     17 C15         2.5293    1.4989    0.0288 C.2       1 <0>        -0.0575
     18 C16         3.2121    0.4058    0.5546 C.2       1 <0>        -0.0318
     19 C17         2.7061   -0.7744    1.2787 C.2       1 <0>        -0.1258
     20 C18         1.4206   -1.0272    1.6582 C.2       1 <0>         0.1002
     21 N2          1.3169   -2.2819    2.1682 N.pl3     1 <0>        -0.4767
     22 C19         2.5720   -2.8515    2.2654 C.ar      1 <0>         0.0850
     23 C20         3.5031   -1.9214    1.7684 C.ar      1 <0>        -0.0774
     24 C21         4.8560   -2.2219    1.8708 C.ar      1 <0>        -0.0704
     25 C22         5.2705   -3.4529    2.3343 C.ar      1 <0>        -0.1401
     26 C23         4.3436   -4.3996    2.7389 C.ar      1 <0>        -0.0882
     27 C24         3.0009   -4.0952    2.7142 C.ar      1 <0>        -0.1389
     28 C25         0.0751   -2.9597    2.5494 C.3       1 <0>         0.1083
     29 C26        -0.9464   -2.8428    1.4151 C.3       1 <0>         0.0261
     30 O1         -1.1329   -1.4683    1.0718 O.3       1 <0>        -0.3787
     31 C27         4.6407    0.6399    0.2297 C.2       1 <0>         0.5576
     32 O2          5.5801   -0.0982    0.4313 O.2       1 <0>        -0.4501
     33 N3          4.7726    1.8285   -0.3761 N.am      1 <0>        -0.6884
     34 C28         3.5684    2.3701   -0.5773 C.2       1 <0>         0.5496
     35 O3          3.3676    3.4021   -1.1909 O.2       1 <0>        -0.4507
     36 H2         -4.6064   -3.1194   -0.9125 H         1 <0>         0.1320
     37 H3         -3.5558   -4.5494   -0.7723 H         1 <0>         0.1292
     38 H4         -3.6371   -3.3709    0.5591 H         1 <0>         0.1176
     39 H5         -1.6226   -2.4415   -2.9853 H         1 <0>         0.1242
     40 H6         -2.4140   -4.0227   -2.7812 H         1 <0>         0.1266
     41 H7         -3.3976   -2.5618   -3.0392 H         1 <0>         0.1281
     42 H8         -3.6420   -0.9427   -1.1043 H         1 <0>         0.1512
     43 H9         -1.8892   -0.7576   -1.3530 H         1 <0>         0.1401
     44 H10        -3.7581    0.3948    1.5248 H         1 <0>         0.1133
     45 H11        -2.0693    0.5478    1.9998 H         1 <0>         0.1111
     46 H12        -2.8851    1.1097   -0.8943 H         1 <0>         0.0847
     47 H13        -3.1227    2.2722    0.3811 H         1 <0>         0.1001
     48 H14         0.0021   -0.0041    0.0020 H         1 <0>         0.1790
     49 H15        -2.6150    4.2937   -0.2077 H         1 <0>         0.1188
     50 H16        -1.4958    6.4773   -0.2780 H         1 <0>         0.1308
     51 H17         0.9608    6.6157   -0.1385 H         1 <0>         0.1284
     52 H18         2.3072    4.5814    0.0562 H         1 <0>         0.1320
     53 H19         0.6104   -0.3170    1.5917 H         1 <0>         0.1871
     54 H20         5.6126   -1.4944    1.6337 H         1 <0>         0.1514
     55 H21         6.3257   -3.6782    2.3787 H         1 <0>         0.1280
     56 H22         4.6724   -5.3687    3.0799 H         1 <0>         0.1300
     57 H23         2.2783   -4.8297    3.0422 H         1 <0>         0.1175
     58 H24         0.2774   -4.0129    2.7458 H         1 <0>         0.1169
     59 H25        -0.3264   -2.4933    3.4522 H         1 <0>         0.0971
     60 H26        -0.5876   -3.3893    0.5423 H         1 <0>         0.0664
     61 H27        -1.8985   -3.2659    1.7424 H         1 <0>         0.0864
     62 H28         5.6204    2.2247   -0.6318 H         1 <0>         0.4332
     63 N4         -2.5268   -2.7479   -1.1131 N.4       1 <0>        -0.4048
     64 H29        -1.6507   -3.0961   -0.7064 H         1 <0>         0.4232
@<TRIPOS>BOND
     1    1   36 1
     2    1   37 1
     3    1   38 1
     4    1   63 1
     5    2   39 1
     6    2   40 1
     7    2   41 1
     8    2   63 1
     9    3    4 1
    10    3   42 1
    11    3   43 1
    12    3   63 1
    13    4    5 1
    14    4   30 1
    15    4    6 1
    16    6    7 1
    17    6   44 1
    18    6   45 1
    19    7    8 1
    20    7   46 1
    21    7   47 1
    22    8   12 1
    23    8    9 1
    24    9   10 2
    25    9   48 1
    26   10   11 1
    27   10   17 1
    28   11   16 ar
    29   11   12 ar
    30   12   13 ar
    31   13   14 ar
    32   13   49 1
    33   14   15 ar
    34   14   50 1
    35   15   16 ar
    36   15   51 1
    37   16   52 1
    38   17   34 1
    39   17   18 2
    40   18   19 1
    41   18   31 1
    42   19   23 1
    43   19   20 2
    44   20   21 1
    45   20   53 1
    46   21   22 1
    47   21   28 1
    48   22   27 ar
    49   22   23 ar
    50   23   24 ar
    51   24   25 ar
    52   24   54 1
    53   25   26 ar
    54   25   55 1
    55   26   27 ar
    56   26   56 1
    57   27   57 1
    58   28   29 1
    59   28   58 1
    60   28   59 1
    61   29   30 1
    62   29   60 1
    63   29   61 1
    64   31   32 2
    65   31   33 am
    66   33   34 am
    67   33   62 1
    68   34   35 2
    69   63   64 1
