@<TRIPOS>MOLECULE
ZINC00538557
   40    43     0     0     0
SMALL
USER_CHARGES
2-[4-oxo-3-[[5-(trifluoromethyl)benzothiazol-2-yl]methyl]phthalazin-1-yl]acetic acid
@<TRIPOS>ATOM
      1 C1          0.0515    4.2341    0.0251 C.ar      1 <0>        -0.0906
      2 C2         -1.1651    3.5640    0.0327 C.ar      1 <0>        -0.1257
      3 C3         -1.2097    2.1870    0.0311 C.ar      1 <0>        -0.0553
      4 C4         -0.0178    1.4639    0.0101 C.ar      1 <0>        -0.1331
      5 C5          1.2183    2.1497    0.0020 C.ar      1 <0>        -0.0432
      6 C6          1.2323    3.5457    0.0097 C.ar      1 <0>        -0.0990
      7 C7          2.4532    1.3653   -0.0140 C.2       1 <0>         0.1253
      8 N1          2.3985    0.0668   -0.0204 N.2       1 <0>        -0.1321
      9 N2          1.1938   -0.6368   -0.0127 N.am      1 <0>        -0.4399
     10 C8          0.0021   -0.0041    0.0020 C.2       1 <0>         0.5209
     11 O1         -1.0375   -0.6389    0.0081 O.2       1 <0>        -0.5340
     12 C9          1.2235   -2.1015   -0.0204 C.3       1 <0>         0.2214
     13 C10         1.2198   -2.5965   -1.4438 C.2       1 <0>         0.1329
     14 N3          2.2398   -2.8364   -2.2189 N.2       1 <0>        -0.4661
     15 C11         2.0992   -3.2855   -3.4835 C.ar      1 <0>         0.0805
     16 C12         3.0968   -3.5925   -4.4354 C.ar      1 <0>         0.0020
     17 C13         2.7594   -4.0324   -5.6777 C.ar      1 <0>        -0.1769
     18 C14         1.4343   -4.1951   -6.0576 C.ar      1 <0>        -0.0626
     19 C15         0.4286   -3.9050   -5.1550 C.ar      1 <0>        -0.0620
     20 C16         0.7591   -3.4605   -3.8978 C.ar      1 <0>        -0.1409
     21 S1         -0.1443   -2.9774   -2.4482 S.3       1 <0>         0.0636
     22 C17         3.8515   -4.3504   -6.6663 C.3       1 <0>         0.5123
     23 F1          3.2810   -4.7814   -7.8688 F         1 <0>        -0.1763
     24 F2          4.6186   -3.2037   -6.8986 F         1 <0>        -0.1720
     25 F3          4.6687   -5.3613   -6.1491 F         1 <0>        -0.1738
     26 C18         3.7888    2.0632   -0.0234 C.3       1 <0>        -0.1064
     27 C19         4.8919    1.0366   -0.0398 C.2       1 <0>         0.4557
     28 O2          4.6212   -0.1410   -0.0435 O.co2     1 <0>        -0.5905
     29 H1          0.0647    5.3140    0.0311 H         1 <0>         0.1314
     30 H2         -2.0859    4.1283    0.0449 H         1 <0>         0.1310
     31 H3         -2.1592    1.6725    0.0416 H         1 <0>         0.1389
     32 H4          2.1714    4.0791    0.0032 H         1 <0>         0.1421
     33 H5          2.1256   -2.4493    0.4829 H         1 <0>         0.1381
     34 H6          0.3460   -2.4854    0.5000 H         1 <0>         0.1252
     35 H7          4.1383   -3.4767   -4.1741 H         1 <0>         0.1482
     36 H8          1.1912   -4.5452   -7.0499 H         1 <0>         0.1524
     37 H9         -0.6073   -4.0261   -5.4355 H         1 <0>         0.1452
     38 H10         3.8641    2.6916   -0.9108 H         1 <0>         0.0930
     39 H11         3.8817    2.6821    0.8690 H         1 <0>         0.0945
     40 O3          6.1751    1.4303   -0.0504 O.co2     1 <0>        -0.7740
@<TRIPOS>BOND
     1    1    6 ar
     2    1    2 ar
     3    1   29 1
     4    2    3 ar
     5    2   30 1
     6    3    4 ar
     7    3   31 1
     8    4   10 1
     9    4    5 ar
    10    5    6 ar
    11    5    7 1
    12    6   32 1
    13    7    8 2
    14    7   26 1
    15    8    9 1
    16    9   10 am
    17    9   12 1
    18   10   11 2
    19   12   13 1
    20   12   33 1
    21   12   34 1
    22   13   21 1
    23   13   14 2
    24   14   15 1
    25   15   20 ar
    26   15   16 ar
    27   16   17 ar
    28   16   35 1
    29   17   18 ar
    30   17   22 1
    31   18   19 ar
    32   18   36 1
    33   19   20 ar
    34   19   37 1
    35   20   21 1
    36   22   23 1
    37   22   24 1
    38   22   25 1
    39   26   27 1
    40   26   38 1
    41   26   39 1
    42   27   28 2
    43   27   40 1
@<TRIPOS>MOLECULE
ZINC00596737
   36    38     0     0     0
SMALL
USER_CHARGES
2-[3-[(4-bromo-2-fluoro-phenyl)methyl]-7-chloro-2,4-dioxo-quinazolin-1-yl]acetic acid
@<TRIPOS>ATOM
      1 C1          0.3311    5.1927    2.9649 C.ar      1 <0>        -0.1614
      2 C2         -0.6668    4.4229    3.5242 C.ar      1 <0>        -0.0009
      3 C3         -1.0081    3.2078    2.9351 C.ar      1 <0>        -0.2048
      4 C4         -0.3336    2.7707    1.7808 C.ar      1 <0>         0.2401
      5 C5          0.6626    3.5596    1.2289 C.ar      1 <0>        -0.1556
      6 C6          0.9926    4.7635    1.8231 C.ar      1 <0>         0.0371
      7 Cl1         2.2458    5.7476    1.1341 Cl        1 <0>        -0.0566
      8 N1         -0.6984    1.5583    1.2133 N.am      1 <0>        -0.5072
      9 C7         -1.6712    0.8104    1.7622 C.2       1 <0>         0.7084
     10 O1         -1.9578   -0.2480    1.2370 O.2       1 <0>        -0.5330
     11 N2         -2.3399    1.1823    2.8649 N.am      1 <0>        -0.5541
     12 C8         -2.0660    2.3467    3.4920 C.2       1 <0>         0.5643
     13 O2         -2.6771    2.6761    4.4904 O.2       1 <0>        -0.4857
     14 C9         -3.3871    0.3079    3.3989 C.3       1 <0>         0.1527
     15 C10        -2.7821   -0.6532    4.3896 C.ar      1 <0>        -0.1341
     16 C11        -2.4971   -1.9508    4.0081 C.ar      1 <0>        -0.0533
     17 C12        -1.9379   -2.8314    4.9148 C.ar      1 <0>        -0.1081
     18 C13        -1.6724   -2.4181    6.2083 C.ar      1 <0>        -0.0571
     19 C14        -1.9617   -1.1220    6.5931 C.ar      1 <0>        -0.1379
     20 C15        -2.5171   -0.2381    5.6835 C.ar      1 <0>         0.1280
     21 F1         -2.8007    1.0285    6.0584 F         1 <0>        -0.1068
     22 Br1        -0.9145   -3.6261    7.4501 Br        1 <0>        -0.0402
     23 C16        -0.0127    1.0858    0.0080 C.3       1 <0>         0.0628
     24 C17        -0.7416    1.5850   -1.2129 C.2       1 <0>         0.4560
     25 O3         -1.7322    2.2656   -1.0889 O.co2     1 <0>        -0.6211
     26 H1          0.5993    6.1357    3.4180 H         1 <0>         0.1433
     27 H2         -1.1799    4.7596    4.4129 H         1 <0>         0.1511
     28 H3          1.1826    3.2331    0.3403 H         1 <0>         0.1514
     29 H4         -4.1464    0.9118    3.8957 H         1 <0>         0.1128
     30 H5         -3.8444   -0.2516    2.5828 H         1 <0>         0.1176
     31 H6         -2.7080   -2.2757    3.0000 H         1 <0>         0.1514
     32 H7         -1.7117   -3.8439    4.6147 H         1 <0>         0.1419
     33 H8         -1.7550   -0.7992    7.6028 H         1 <0>         0.1453
     34 H9          0.0021   -0.0041    0.0020 H         1 <0>         0.1087
     35 H10         1.0099    1.4631    0.0003 H         1 <0>         0.0986
     36 O4         -0.2903    1.2736   -2.4381 O.co2     1 <0>        -0.7535
@<TRIPOS>BOND
     1    1    6 ar
     2    1    2 ar
     3    1   26 1
     4    2    3 ar
     5    2   27 1
     6    3   12 1
     7    3    4 ar
     8    4    5 ar
     9    4    8 1
    10    5    6 ar
    11    5   28 1
    12    6    7 1
    13    8    9 am
    14    8   23 1
    15    9   10 2
    16    9   11 am
    17   11   12 am
    18   11   14 1
    19   12   13 2
    20   14   15 1
    21   14   29 1
    22   14   30 1
    23   15   20 ar
    24   15   16 ar
    25   16   17 ar
    26   16   31 1
    27   17   18 ar
    28   17   32 1
    29   18   19 ar
    30   18   22 1
    31   19   20 ar
    32   19   33 1
    33   20   21 1
    34   23   24 1
    35   23   34 1
    36   23   35 1
    37   24   25 2
    38   24   36 1
@<TRIPOS>MOLECULE
ZINC00876714
   51    54     0     0     0
SMALL
USER_CHARGES

@<TRIPOS>ATOM
      1 C1          2.9652    0.9018   -1.0359 C.3       1 <0>         0.0208
      2 O1          2.7755   -0.4977   -0.8180 O.3       1 <0>        -0.3068
      3 C2          2.3120   -0.8751    0.4034 C.ar      1 <0>         0.1202
      4 C3          2.0408    0.0853    1.3682 C.ar      1 <0>        -0.1243
      5 C4          1.5690   -0.2900    2.6133 C.ar      1 <0>        -0.1485
      6 C5          1.3638   -1.6268    2.9047 C.ar      1 <0>         0.1304
      7 C6          1.6349   -2.6014    1.9357 C.ar      1 <0>         0.0268
      8 C7          2.1061   -2.2158    0.6800 C.ar      1 <0>        -0.0967
      9 N1          1.4340   -3.9252    2.2176 N.pl3     1 <0>        -0.4877
     10 C8          0.7425   -4.6764    1.3889 C.2       1 <0>         0.5109
     11 C9          0.5953   -6.1279    1.6151 C.2       1 <0>        -0.2815
     12 C10        -0.5218   -6.7480    1.0733 C.2       1 <0>         0.1739
     13 C11        -1.4250   -5.9588    0.3164 C.ar      1 <0>        -0.1909
     14 C12        -2.6638   -6.4838   -0.0817 C.ar      1 <0>         0.0028
     15 C13        -3.5423   -5.7027   -0.7732 C.ar      1 <0>        -0.1531
     16 C14        -3.2161   -4.3864   -1.0954 C.ar      1 <0>         0.2230
     17 C15        -1.9886   -3.8561   -0.7271 C.ar      1 <0>        -0.1566
     18 C16        -1.0819   -4.6380   -0.0316 C.ar      1 <0>         0.1600
     19 O2          0.1338   -4.1430    0.2978 O.3       1 <0>        -0.1954
     20 O3         -4.1056   -3.6184   -1.7738 O.3       1 <0>        -0.4790
     21 C17         1.5937   -6.8871    2.3841 C.2       1 <0>         0.5819
     22 O4          1.4009   -8.0607    2.6395 O.2       1 <0>        -0.4706
     23 N2          2.7220   -6.2823    2.8055 N.am      1 <0>        -0.6593
     24 C18         3.6466   -6.9888    3.5714 C.ar      1 <0>         0.3279
     25 C19         3.6349   -8.3793    3.5560 C.ar      1 <0>        -0.1773
     26 C20         4.5587   -9.0684    4.3213 C.ar      1 <0>        -0.0525
     27 C21         5.4663   -8.3403    5.0790 C.ar      1 <0>        -0.1759
     28 C22         5.4207   -6.9607    5.0467 C.ar      1 <0>         0.1294
     29 N3          4.5317   -6.3304    4.3030 N.ar      1 <0>        -0.5111
     30 O5          0.9002   -1.9939    4.1298 O.3       1 <0>        -0.3173
     31 C23         0.6462   -0.9464    5.0679 C.3       1 <0>         0.0221
     32 H1          3.6881    1.2868   -0.3165 H         1 <0>         0.0636
     33 H2          3.3371    1.0649   -2.0474 H         1 <0>         0.1127
     34 H3          2.0153    1.4212   -0.9098 H         1 <0>         0.0628
     35 H4          2.1992    1.1302    1.1460 H         1 <0>         0.1530
     36 H5          1.3607    0.4622    3.3597 H         1 <0>         0.1565
     37 H6          2.3131   -2.9619   -0.0730 H         1 <0>         0.1522
     38 H7         -0.6984   -7.8029    1.2235 H         1 <0>         0.1987
     39 H8         -2.9211   -7.5048    0.1587 H         1 <0>         0.1687
     40 H9         -4.4976   -6.1071   -1.0736 H         1 <0>         0.1642
     41 H10        -1.7405   -2.8366   -0.9825 H         1 <0>         0.1667
     42 H11        -4.7108   -3.1224   -1.2055 H         1 <0>         0.4179
     43 H12         2.8902   -5.3551    2.5755 H         1 <0>         0.3989
     44 H13         2.9143   -8.9140    2.9551 H         1 <0>         0.1728
     45 H14         4.5734  -10.1483    4.3296 H         1 <0>         0.1463
     46 H15         6.2001   -8.8478    5.6875 H         1 <0>         0.1455
     47 H16         6.1246   -6.3903    5.6344 H         1 <0>         0.1684
     48 H17         0.2816   -1.3752    6.0014 H         1 <0>         0.1143
     49 H18         1.5679   -0.3960    5.2565 H         1 <0>         0.0688
     50 H19        -0.1049   -0.2690    4.6616 H         1 <0>         0.0667
     51 H20         1.8018   -4.3096    3.0288 H         1 <0>         0.4557
@<TRIPOS>BOND
     1    1    2 1
     2    1   32 1
     3    1   33 1
     4    1   34 1
     5    2    3 1
     6    3    8 ar
     7    3    4 ar
     8    4    5 ar
     9    4   35 1
    10    5    6 ar
    11    5   36 1
    12    6    7 ar
    13    6   30 1
    14    7    8 ar
    15    7    9 1
    16    8   37 1
    17    9   10 2
    18    9   51 1
    19   10   19 1
    20   10   11 1
    21   11   12 2
    22   11   21 1
    23   12   13 1
    24   12   38 1
    25   13   18 ar
    26   13   14 ar
    27   14   15 ar
    28   14   39 1
    29   15   16 ar
    30   15   40 1
    31   16   17 ar
    32   16   20 1
    33   17   18 ar
    34   17   41 1
    35   18   19 1
    36   20   42 1
    37   21   22 2
    38   21   23 am
    39   23   24 1
    40   23   43 1
    41   24   29 ar
    42   24   25 ar
    43   25   26 ar
    44   25   44 1
    45   26   27 ar
    46   26   45 1
    47   27   28 ar
    48   27   46 1
    49   28   29 ar
    50   28   47 1
    51   30   31 1
    52   31   48 1
    53   31   49 1
    54   31   50 1
@<TRIPOS>MOLECULE
ZINC08986378
   54    57     0     0     0
SMALL
USER_CHARGES

@<TRIPOS>ATOM
      1 C1         -1.5842    1.2659   -0.0991 C.3       1 <0>        -0.1089
      2 C2         -0.9431   -0.0970   -0.0497 C.ar      1 <0>         0.1599
      3 C3         -0.4148   -0.6440   -1.2025 C.ar      1 <0>        -0.1761
      4 C4          0.1749   -1.8995   -1.1507 C.ar      1 <0>        -0.0491
      5 C5          0.2119   -2.5620    0.0637 C.ar      1 <0>        -0.1854
      6 C6         -0.3395   -1.9511    1.1843 C.ar      1 <0>         0.3319
      7 N1         -0.8889   -0.7498    1.0953 N.ar      1 <0>        -0.5108
      8 N2         -0.3094   -2.6070    2.4129 N.am      1 <0>        -0.6584
      9 C7         -0.1368   -3.9428    2.4596 C.2       1 <0>         0.5804
     10 O1          0.0527   -4.5679    1.4334 O.2       1 <0>        -0.4701
     11 C8         -0.1776   -4.6451    3.7518 C.2       1 <0>        -0.2821
     12 C9         -0.1478   -6.0308    3.8209 C.2       1 <0>         0.1738
     13 C10        -0.2220   -6.6395    5.0997 C.ar      1 <0>        -0.1906
     14 C11         0.0047   -8.0167    5.2439 C.ar      1 <0>         0.0028
     15 C12        -0.0277   -8.5846    6.4835 C.ar      1 <0>        -0.1529
     16 C13        -0.2926   -7.8081    7.6104 C.ar      1 <0>         0.2237
     17 C14        -0.5389   -6.4490    7.4853 C.ar      1 <0>        -0.1565
     18 C15        -0.5167   -5.8578    6.2334 C.ar      1 <0>         0.1578
     19 O2         -0.7986   -4.5384    6.0951 O.3       1 <0>        -0.1962
     20 C16        -0.2456   -3.9032    5.0265 C.2       1 <0>         0.5063
     21 N3          0.2080   -2.6727    5.1227 N.pl3     1 <0>        -0.4938
     22 C17        -0.0033   -1.9530    6.2674 C.ar      1 <0>         0.0166
     23 C18        -1.2610   -1.9574    6.8751 C.ar      1 <0>        -0.0768
     24 C19        -1.4718   -1.2310    8.0292 C.ar      1 <0>        -0.1622
     25 C20        -0.4378   -0.4957    8.5882 C.ar      1 <0>         0.1520
     26 C21         0.8184   -0.4862    7.9876 C.ar      1 <0>         0.1256
     27 C22         1.0393   -1.2168    6.8340 C.ar      1 <0>        -0.1523
     28 O3          1.8300    0.2366    8.5387 O.3       1 <0>        -0.2898
     29 C23         3.0922    0.2008    7.8697 C.3       1 <0>         0.0185
     30 O4         -0.6512    0.2188    9.7263 O.3       1 <0>        -0.2892
     31 C24        -1.9634    0.1651   10.2895 C.3       1 <0>         0.0169
     32 O5         -0.3099   -8.3859    8.8380 O.3       1 <0>        -0.4790
     33 H1         -0.8305    2.0293    0.0939 H         1 <0>         0.0844
     34 H2         -2.0202    1.4268   -1.0851 H         1 <0>         0.0838
     35 H3         -2.3658    1.3275    0.6582 H         1 <0>         0.0791
     36 H4         -0.4603   -0.1007   -2.1348 H         1 <0>         0.1448
     37 H5          0.5950   -2.3493   -2.0382 H         1 <0>         0.1468
     38 H6          0.6628   -3.5404    0.1399 H         1 <0>         0.1730
     39 H7         -0.4127   -2.1022    3.2347 H         1 <0>         0.3981
     40 H8         -0.0707   -6.6294    2.9252 H         1 <0>         0.1980
     41 H9          0.2042   -8.6260    4.3748 H         1 <0>         0.1687
     42 H10         0.1527   -9.6438    6.5928 H         1 <0>         0.1644
     43 H11        -0.7467   -5.8533    8.3619 H         1 <0>         0.1670
     44 H12        -2.0683   -2.5290    6.4416 H         1 <0>         0.1423
     45 H13        -2.4448   -1.2349    8.4981 H         1 <0>         0.1596
     46 H14         2.0146   -1.2141    6.3700 H         1 <0>         0.1544
     47 H15         3.4538   -0.8267    7.8309 H         1 <0>         0.0595
     48 H16         2.9770    0.5840    6.8558 H         1 <0>         0.0612
     49 H17         3.8085    0.8178    8.4121 H         1 <0>         0.1149
     50 H18        -1.9971    0.7768   11.1910 H         1 <0>         0.1148
     51 H19        -2.6851    0.5443    9.5659 H         1 <0>         0.0651
     52 H20        -2.2089   -0.8666   10.5410 H         1 <0>         0.0641
     53 H21         0.5483   -8.3890    9.2834 H         1 <0>         0.4185
     54 H22         0.6924   -2.2751    4.3823 H         1 <0>         0.4513
@<TRIPOS>BOND
     1    1    2 1
     2    1   33 1
     3    1   34 1
     4    1   35 1
     5    2    7 ar
     6    2    3 ar
     7    3    4 ar
     8    3   36 1
     9    4    5 ar
    10    4   37 1
    11    5    6 ar
    12    5   38 1
    13    6    7 ar
    14    6    8 1
    15    8    9 am
    16    8   39 1
    17    9   10 2
    18    9   11 1
    19   11   20 1
    20   11   12 2
    21   12   13 1
    22   12   40 1
    23   13   18 ar
    24   13   14 ar
    25   14   15 ar
    26   14   41 1
    27   15   16 ar
    28   15   42 1
    29   16   17 ar
    30   16   32 1
    31   17   18 ar
    32   17   43 1
    33   18   19 1
    34   19   20 1
    35   20   21 2
    36   21   22 1
    37   21   54 1
    38   22   27 ar
    39   22   23 ar
    40   23   24 ar
    41   23   44 1
    42   24   25 ar
    43   24   45 1
    44   25   26 ar
    45   25   30 1
    46   26   27 ar
    47   26   28 1
    48   27   46 1
    49   28   29 1
    50   29   47 1
    51   29   48 1
    52   29   49 1
    53   30   31 1
    54   31   50 1
    55   31   51 1
    56   31   52 1
    57   32   53 1
@<TRIPOS>MOLECULE
ZINC03872070
   29    31     0     0     0
SMALL
USER_CHARGES

@<TRIPOS>ATOM
      1 C1         -0.0167    1.3795    0.0096 C.ar      1 <0>        -0.0927
      2 C2          1.1683    2.0940    0.0021 C.ar      1 <0>        -0.1229
      3 C3          2.3774    1.4303   -0.0130 C.ar      1 <0>        -0.0794
      4 C4          2.4038    0.0341   -0.0208 C.ar      1 <0>        -0.0750
      5 C5          1.2040   -0.6806   -0.0131 C.ar      1 <0>        -0.0800
      6 C6          0.0021   -0.0041    0.0020 C.ar      1 <0>        -0.1206
      7 C7          3.6945   -0.6834   -0.0374 C.2       1 <0>         0.2076
      8 C8          3.6865   -2.0422   -0.0503 C.2       1 <0>        -0.3115
      9 C9          4.9147   -2.7475   -0.0669 C.2       1 <0>         0.4227
     10 O1          4.9453   -3.9673   -0.0791 O.2       1 <0>        -0.4538
     11 C10         6.1531   -1.9509   -0.0693 C.ar      1 <0>        -0.2663
     12 C11         7.4124   -2.5640   -0.0858 C.ar      1 <0>         0.2193
     13 C12         8.5511   -1.7802   -0.0879 C.ar      1 <0>        -0.2051
     14 C13         8.4449   -0.3935   -0.0739 C.ar      1 <0>         0.1922
     15 C14         7.2019    0.2199   -0.0571 C.ar      1 <0>        -0.1832
     16 C15         6.0486   -0.5493   -0.0551 C.ar      1 <0>         0.1831
     17 O2          4.8303    0.0319   -0.0449 O.3       1 <0>        -0.2180
     18 O3          9.5695    0.3668   -0.0761 O.3       1 <0>        -0.4872
     19 O4          7.5139   -3.9173   -0.0990 O.3       1 <0>        -0.4722
     20 H1         -0.9606    1.9042    0.0260 H         1 <0>         0.1309
     21 H2          1.1464    3.1738    0.0078 H         1 <0>         0.1326
     22 H3          3.3016    1.9892   -0.0192 H         1 <0>         0.1349
     23 H4          1.2173   -1.7605   -0.0194 H         1 <0>         0.1361
     24 H5         -0.9265   -0.5555    0.0079 H         1 <0>         0.1347
     25 H6          2.7503   -2.5805   -0.0475 H         1 <0>         0.1636
     26 H7          9.5256   -2.2457   -0.1002 H         1 <0>         0.1502
     27 H8          7.1320    1.2975   -0.0459 H         1 <0>         0.1533
     28 H9          9.8879    0.5955   -0.9601 H         1 <0>         0.4037
     29 H10         7.5357   -4.3014   -0.9862 H         1 <0>         0.4030
@<TRIPOS>BOND
     1    1    6 ar
     2    1    2 ar
     3    1   20 1
     4    2    3 ar
     5    2   21 1
     6    3    4 ar
     7    3   22 1
     8    4    5 ar
     9    4    7 1
    10    5    6 ar
    11    5   23 1
    12    6   24 1
    13    7   17 1
    14    7    8 2
    15    8    9 1
    16    8   25 1
    17    9   10 2
    18    9   11 1
    19   11   16 ar
    20   11   12 ar
    21   12   13 ar
    22   12   19 1
    23   13   14 ar
    24   13   26 1
    25   14   15 ar
    26   14   18 1
    27   15   16 ar
    28   15   27 1
    29   16   17 1
    30   18   28 1
    31   19   29 1
@<TRIPOS>MOLECULE
ZINC03872070
   28    30     0     0     0
SMALL
USER_CHARGES

@<TRIPOS>ATOM
      1 C1         -0.0167    1.3797    0.0096 C.ar      1 <0>        -0.1070
      2 C2          1.1682    2.0946    0.0022 C.ar      1 <0>        -0.1239
      3 C3          2.3774    1.4315   -0.0129 C.ar      1 <0>        -0.0844
      4 C4          2.4042    0.0344   -0.0206 C.ar      1 <0>        -0.0523
      5 C5          1.2037   -0.6807   -0.0130 C.ar      1 <0>        -0.0872
      6 C6          0.0021   -0.0041    0.0020 C.ar      1 <0>        -0.1230
      7 C7          3.6938   -0.6822   -0.0372 C.2       1 <0>         0.1725
      8 C8          3.6987   -2.0599   -0.0503 C.2       1 <0>        -0.2684
      9 C9          4.9147   -2.7500   -0.0661 C.2       1 <0>         0.3652
     10 C10         6.1116   -2.0009   -0.0682 C.2       1 <0>        -0.3412
     11 C11         7.3668   -2.6443   -0.0844 C.2       1 <0>         0.2654
     12 C12         8.5111   -1.9002   -0.0865 C.2       1 <0>        -0.3783
     13 C13         8.4435   -0.4975   -0.0722 C.2       1 <0>         0.3617
     14 O1          9.5678    0.2204   -0.0740 O.2       1 <0>        -0.6670
     15 C14         7.2040    0.1518   -0.0566 C.2       1 <0>        -0.3151
     16 C15         6.0392   -0.5896   -0.0543 C.2       1 <0>         0.2114
     17 O2          4.8365    0.0229   -0.0448 O.3       1 <0>        -0.2195
     18 O3          7.4365   -3.9993   -0.0974 O.3       1 <0>        -0.4477
     19 O4          4.9436   -4.1007   -0.0786 O.3       1 <0>        -0.5790
     20 H1         -0.9606    1.9042    0.0260 H         1 <0>         0.1247
     21 H2          1.1460    3.1743    0.0078 H         1 <0>         0.1280
     22 H3          3.3014    1.9906   -0.0191 H         1 <0>         0.1359
     23 H4          1.2169   -1.7606   -0.0192 H         1 <0>         0.1351
     24 H5         -0.9266   -0.5554    0.0079 H         1 <0>         0.1291
     25 H6          2.7663   -2.6050   -0.0479 H         1 <0>         0.1462
     26 H7          9.4725   -2.3921   -0.0990 H         1 <0>         0.1160
     27 H8          7.1585    1.2308   -0.0456 H         1 <0>         0.1202
     28 H9          8.3389   -4.3466   -0.1079 H         1 <0>         0.3827
@<TRIPOS>BOND
     1    1    6 ar
     2    1    2 ar
     3    1   20 1
     4    2    3 ar
     5    2   21 1
     6    3    4 ar
     7    3   22 1
     8    4    5 ar
     9    4    7 1
    10    5    6 ar
    11    5   23 1
    12    6   24 1
    13    7   17 1
    14    7    8 2
    15    8    9 1
    16    8   25 1
    17    9   10 2
    18    9   19 1
    19   10   16 1
    20   10   11 1
    21   11   12 2
    22   11   18 1
    23   12   13 1
    24   12   26 1
    25   13   14 2
    26   13   15 1
    27   15   16 2
    28   15   27 1
    29   16   17 1
    30   18   28 1
@<TRIPOS>MOLECULE
ZINC00876711
   50    53     0     0     0
SMALL
USER_CHARGES
2-(2,4-dimethoxyphenyl)imino-7-hydroxy-N-(2-pyridyl)chromene-3-carboxamide
@<TRIPOS>ATOM
      1 C1         -4.9543   -3.4614   -2.5923 C.3       1 <0>         0.0267
      2 O1         -4.0708   -3.9728   -1.5924 O.3       1 <0>        -0.3154
      3 C2         -2.8416   -3.3988   -1.5028 C.ar      1 <0>         0.1600
      4 C3         -2.4971   -2.3644   -2.3621 C.ar      1 <0>        -0.2291
      5 C4         -1.2512   -1.7774   -2.2772 C.ar      1 <0>        -0.0534
      6 C5         -0.3341   -2.2242   -1.3251 C.ar      1 <0>         0.0223
      7 C6         -0.6818   -3.2721   -0.4628 C.ar      1 <0>         0.1705
      8 C7         -1.9358   -3.8494   -0.5530 C.ar      1 <0>        -0.2305
      9 O2          0.2083   -3.7166    0.4636 O.3       1 <0>        -0.2962
     10 C8         -0.2155   -4.7882    1.3086 C.3       1 <0>         0.0248
     11 N1          0.9034   -1.6441   -1.2377 N.2       1 <0>        -0.4052
     12 C9          1.0683   -0.5517   -0.5257 C.2       1 <0>         0.3789
     13 C10         2.4091    0.0333   -0.3234 C.2       1 <0>        -0.1587
     14 C11         2.4777    1.3938   -0.0599 C.2       1 <0>         0.0109
     15 C12         1.2629    2.1208    0.0300 C.ar      1 <0>        -0.1684
     16 C13         1.2785    3.5228    0.0825 C.ar      1 <0>        -0.0311
     17 C14         0.1035    4.2146    0.1193 C.ar      1 <0>        -0.1717
     18 C15        -1.1153    3.5386    0.1134 C.ar      1 <0>         0.1741
     19 C16        -1.1500    2.1524    0.0867 C.ar      1 <0>        -0.1705
     20 C17         0.0336    1.4345    0.0538 C.ar      1 <0>         0.1680
     21 O3          0.0111    0.0785    0.0502 O.3       1 <0>        -0.2633
     22 O4         -2.2759    4.2414    0.1381 O.3       1 <0>        -0.4909
     23 C18         3.6236   -0.7937   -0.3979 C.2       1 <0>         0.5545
     24 O5          3.5354   -1.9845   -0.6300 O.2       1 <0>        -0.4192
     25 N2          4.8341   -0.2318   -0.2089 N.am      1 <0>        -0.6624
     26 C19         5.9891   -0.9902   -0.3853 C.ar      1 <0>         0.3644
     27 C20         7.2292   -0.4368   -0.0853 C.ar      1 <0>        -0.2091
     28 C21         8.3683   -1.2010   -0.2652 C.ar      1 <0>        -0.0471
     29 C22         8.2277   -2.4978   -0.7409 C.ar      1 <0>        -0.2053
     30 C23         6.9652   -2.9830   -1.0184 C.ar      1 <0>         0.1348
     31 N3          5.8960   -2.2327   -0.8319 N.ar      1 <0>        -0.4762
     32 H1         -5.1381   -2.4030   -2.4078 H         1 <0>         0.0568
     33 H2         -4.5007   -3.5854   -3.5757 H         1 <0>         0.0575
     34 H3         -5.8979   -4.0057   -2.5562 H         1 <0>         0.1017
     35 H4         -3.2062   -2.0183   -3.0995 H         1 <0>         0.1333
     36 H5         -0.9862   -0.9726   -2.9469 H         1 <0>         0.1301
     37 H6         -2.2083   -4.6547    0.1131 H         1 <0>         0.1412
     38 H7         -1.0958   -4.4799    1.8726 H         1 <0>         0.0563
     39 H8         -0.4612   -5.6571    0.6980 H         1 <0>         0.0586
     40 H9          0.5872   -5.0451    1.9998 H         1 <0>         0.1022
     41 H10         3.4299    1.8858    0.0728 H         1 <0>         0.1544
     42 H11         2.2191    4.0533    0.0941 H         1 <0>         0.1462
     43 H12         0.1177    5.2940    0.1529 H         1 <0>         0.1428
     44 H13        -2.0976    1.6343    0.0884 H         1 <0>         0.1482
     45 H14        -2.6190    4.4649   -0.7379 H         1 <0>         0.4021
     46 H15         4.9009    0.7006    0.0501 H         1 <0>         0.4125
     47 H16         7.3020    0.5757    0.2835 H         1 <0>         0.1356
     48 H17         9.3448   -0.7978   -0.0410 H         1 <0>         0.1382
     49 H18         9.0970   -3.1205   -0.8927 H         1 <0>         0.1362
     50 H19         6.8510   -3.9912   -1.3882 H         1 <0>         0.1596
@<TRIPOS>BOND
     1    1    2 1
     2    1   32 1
     3    1   33 1
     4    1   34 1
     5    2    3 1
     6    3    8 ar
     7    3    4 ar
     8    4    5 ar
     9    4   35 1
    10    5    6 ar
    11    5   36 1
    12    6    7 ar
    13    6   11 1
    14    7    8 ar
    15    7    9 1
    16    8   37 1
    17    9   10 1
    18   10   38 1
    19   10   39 1
    20   10   40 1
    21   11   12 2
    22   12   21 1
    23   12   13 1
    24   13   14 2
    25   13   23 1
    26   14   15 1
    27   14   41 1
    28   15   20 ar
    29   15   16 ar
    30   16   17 ar
    31   16   42 1
    32   17   18 ar
    33   17   43 1
    34   18   19 ar
    35   18   22 1
    36   19   20 ar
    37   19   44 1
    38   20   21 1
    39   22   45 1
    40   23   24 2
    41   23   25 am
    42   25   26 1
    43   25   46 1
    44   26   31 ar
    45   26   27 ar
    46   27   28 ar
    47   27   47 1
    48   28   29 ar
    49   28   48 1
    50   29   30 ar
    51   29   49 1
    52   30   31 ar
    53   30   50 1
@<TRIPOS>MOLECULE
ZINC00876708
   47    50     0     0     0
SMALL
USER_CHARGES

@<TRIPOS>ATOM
      1 C1          0.1180    3.3315    2.9152 C.3       1 <0>         0.0177
      2 O1          0.1616    2.0600    2.2646 O.3       1 <0>        -0.3004
      3 C2          0.7480    1.0386    2.9441 C.ar      1 <0>         0.1792
      4 C3          1.2646    1.2587    4.2136 C.ar      1 <0>        -0.1938
      5 C4          1.8606    0.2261    4.9064 C.ar      1 <0>        -0.0394
      6 C5          1.9437   -1.0431    4.3289 C.ar      1 <0>        -0.0275
      7 C6          1.4221   -1.2598    3.0515 C.ar      1 <0>        -0.0476
      8 C7          0.8232   -0.2223    2.3685 C.ar      1 <0>        -0.1338
      9 N1          2.5348   -2.0709    5.0126 N.pl3     1 <0>        -0.4926
     10 C8          1.9611   -3.2537    5.0467 C.2       1 <0>         0.5048
     11 C9          2.6493   -4.4200    5.6349 C.2       1 <0>        -0.2824
     12 C10         1.8565   -5.4481    6.1253 C.2       1 <0>         0.1730
     13 C11         0.4490   -5.3263    6.0009 C.ar      1 <0>        -0.1912
     14 C12        -0.4016   -6.2319    6.6529 C.ar      1 <0>         0.0027
     15 C13        -1.7539   -6.0809    6.5607 C.ar      1 <0>        -0.1532
     16 C14        -2.2998   -5.0368    5.8158 C.ar      1 <0>         0.2237
     17 C15        -1.4751   -4.1432    5.1488 C.ar      1 <0>        -0.1572
     18 C16        -0.1000   -4.2866    5.2257 C.ar      1 <0>         0.1595
     19 O2          0.7124   -3.4439    4.5470 O.3       1 <0>        -0.1965
     20 O3         -3.6471   -4.8935    5.7430 O.3       1 <0>        -0.4789
     21 C17         4.1175   -4.4897    5.6983 C.2       1 <0>         0.5807
     22 O4          4.6579   -5.3985    6.2998 O.2       1 <0>        -0.4709
     23 N2          4.8638   -3.5466    5.0899 N.am      1 <0>        -0.6585
     24 C18         6.2531   -3.6492    5.0922 C.ar      1 <0>         0.3260
     25 C19         6.8831   -4.4525    6.0365 C.ar      1 <0>        -0.1789
     26 C20         8.2634   -4.5457    6.0272 C.ar      1 <0>        -0.0530
     27 C21         8.9693   -3.8293    5.0699 C.ar      1 <0>        -0.1753
     28 C22         8.2785   -3.0510    4.1625 C.ar      1 <0>         0.1291
     29 N3          6.9611   -2.9853    4.1922 N.ar      1 <0>        -0.5096
     30 H1          1.1334    3.6659    3.1277 H         1 <0>         0.0660
     31 H2         -0.3746    4.0552    2.2659 H         1 <0>         0.1146
     32 H3         -0.4382    3.2431    3.8485 H         1 <0>         0.0649
     33 H4          1.1999    2.2404    4.6592 H         1 <0>         0.1532
     34 H5          2.2629    0.3984    5.8937 H         1 <0>         0.1467
     35 H6          1.4844   -2.2394    2.6009 H         1 <0>         0.1436
     36 H7          0.4157   -0.3900    1.3824 H         1 <0>         0.1557
     37 H8          2.2993   -6.3174    6.5886 H         1 <0>         0.1977
     38 H9          0.0138   -7.0473    7.2264 H         1 <0>         0.1685
     39 H10        -2.4067   -6.7755    7.0684 H         1 <0>         0.1642
     40 H11        -1.9041   -3.3381    4.5709 H         1 <0>         0.1671
     41 H12        -4.0211   -4.3332    6.4368 H         1 <0>         0.4183
     42 H13         4.4336   -2.7965    4.6505 H         1 <0>         0.3985
     43 H14         6.3027   -4.9961    6.7674 H         1 <0>         0.1738
     44 H15         8.7802   -5.1615    6.7484 H         1 <0>         0.1464
     45 H16        10.0475   -3.8800    5.0357 H         1 <0>         0.1457
     46 H17         8.8234   -2.4921    3.4161 H         1 <0>         0.1685
     47 H18         3.3770   -1.9269    5.4719 H         1 <0>         0.4508
@<TRIPOS>BOND
     1    1    2 1
     2    1   30 1
     3    1   31 1
     4    1   32 1
     5    2    3 1
     6    3    8 ar
     7    3    4 ar
     8    4    5 ar
     9    4   33 1
    10    5    6 ar
    11    5   34 1
    12    6    7 ar
    13    6    9 1
    14    7    8 ar
    15    7   35 1
    16    8   36 1
    17    9   10 2
    18    9   47 1
    19   10   19 1
    20   10   11 1
    21   11   12 2
    22   11   21 1
    23   12   13 1
    24   12   37 1
    25   13   18 ar
    26   13   14 ar
    27   14   15 ar
    28   14   38 1
    29   15   16 ar
    30   15   39 1
    31   16   17 ar
    32   16   20 1
    33   17   18 ar
    34   17   40 1
    35   18   19 1
    36   20   41 1
    37   21   22 2
    38   21   23 am
    39   23   24 1
    40   23   42 1
    41   24   29 ar
    42   24   25 ar
    43   25   26 ar
    44   25   43 1
    45   26   27 ar
    46   26   44 1
    47   27   28 ar
    48   27   45 1
    49   28   29 ar
    50   28   46 1
@<TRIPOS>MOLECULE
ZINC13836505
   37    39     0     0     0
SMALL
USER_CHARGES
2-[(5Z)-2,4-dioxo-5-[(3-phenoxyphenyl)methylene]thiazolidin-3-yl]acetic acid
@<TRIPOS>ATOM
      1 C1          1.8943   -0.3333   -0.7135 C.ar      1 <0>        -0.1192
      2 C2          1.8879    0.3811    0.4703 C.ar      1 <0>        -0.1064
      3 C3          0.7847    1.1370    0.8163 C.ar      1 <0>        -0.1295
      4 C4         -0.3176    1.1791   -0.0253 C.ar      1 <0>         0.0843
      5 C5         -0.3086    0.4613   -1.2127 C.ar      1 <0>        -0.1223
      6 C6          0.7973   -0.2928   -1.5542 C.ar      1 <0>        -0.1066
      7 O1         -1.4063    1.9175    0.3154 O.3       1 <0>        -0.2551
      8 C7         -1.3724    3.2540    0.0716 C.ar      1 <0>         0.1273
      9 C8         -0.2452    3.8259   -0.5053 C.ar      1 <0>        -0.1807
     10 C9         -0.2036    5.1851   -0.7573 C.ar      1 <0>        -0.0841
     11 C10        -1.2810    5.9843   -0.4368 C.ar      1 <0>        -0.1169
     12 C11        -2.4211    5.4189    0.1450 C.ar      1 <0>        -0.0389
     13 C12        -2.4628    4.0431    0.3930 C.ar      1 <0>        -0.1213
     14 C13        -3.5724    6.2664    0.4886 C.2       1 <0>         0.0344
     15 C14        -4.6188    5.7432    1.1736 C.2       1 <0>        -0.1725
     16 C15        -5.9194    6.3551    1.5195 C.2       1 <0>         0.5592
     17 O2         -6.1987    7.4928    1.1907 O.2       1 <0>        -0.4678
     18 N1         -6.7656    5.6008    2.2005 N.am      1 <0>        -0.5500
     19 C16        -6.4491    4.3429    2.5692 C.2       1 <0>         0.5430
     20 O3         -7.1225    3.5480    3.1969 O.2       1 <0>        -0.4201
     21 S1         -4.8023    4.1265    1.9140 S.3       1 <0>        -0.0577
     22 C17        -8.0741    6.1467    2.5691 C.3       1 <0>         0.0469
     23 C18        -7.9746    6.8283    3.9095 C.2       1 <0>         0.4593
     24 O4         -6.9190    6.8552    4.4967 O.co2     1 <0>        -0.6261
     25 H1          2.7578   -0.9237   -0.9822 H         1 <0>         0.1276
     26 H2          2.7460    0.3477    1.1253 H         1 <0>         0.1303
     27 H3          0.7801    1.6945    1.7413 H         1 <0>         0.1326
     28 H4         -1.1652    0.4926   -1.8698 H         1 <0>         0.1328
     29 H5          0.8051   -0.8511   -2.4787 H         1 <0>         0.1307
     30 H6          0.6022    3.2061   -0.7585 H         1 <0>         0.1310
     31 H7          0.6759    5.6223   -1.2063 H         1 <0>         0.1323
     32 H8         -1.2449    7.0453   -0.6350 H         1 <0>         0.1367
     33 H9         -3.3412    3.5988    0.8374 H         1 <0>         0.1465
     34 H10        -3.5844    7.3057    0.1952 H         1 <0>         0.1659
     35 H11        -8.3915    6.8690    1.8170 H         1 <0>         0.1058
     36 H12        -8.8024    5.3377    2.6261 H         1 <0>         0.1021
     37 O5         -9.0587    7.4054    4.4511 O.co2     1 <0>        -0.7534
@<TRIPOS>BOND
     1    1    6 ar
     2    1    2 ar
     3    1   25 1
     4    2    3 ar
     5    2   26 1
     6    3    4 ar
     7    3   27 1
     8    4    5 ar
     9    4    7 1
    10    5    6 ar
    11    5   28 1
    12    6   29 1
    13    7    8 1
    14    8   13 ar
    15    8    9 ar
    16    9   10 ar
    17    9   30 1
    18   10   11 ar
    19   10   31 1
    20   11   12 ar
    21   11   32 1
    22   12   13 ar
    23   12   14 1
    24   13   33 1
    25   14   15 2
    26   14   34 1
    27   15   21 1
    28   15   16 1
    29   16   17 2
    30   16   18 am
    31   18   19 am
    32   18   22 1
    33   19   20 2
    34   19   21 1
    35   22   23 1
    36   22   35 1
    37   22   36 1
    38   23   24 2
    39   23   37 1
@<TRIPOS>MOLECULE
ZINC13836506
   30    31     0     0     0
SMALL
USER_CHARGES
2-[(5Z)-5-[(3-methoxyphenyl)methylene]-2,4-dioxo-thiazolidin-3-yl]acetic acid
@<TRIPOS>ATOM
      1 C1         -2.0465    7.1155   -1.4204 C.3       1 <0>         0.0265
      2 O1         -1.4208    5.8320   -1.3647 O.3       1 <0>        -0.3119
      3 C2         -0.1932    5.7687   -0.7850 C.ar      1 <0>         0.1316
      4 C3          0.3960    6.9209   -0.2800 C.ar      1 <0>        -0.1951
      5 C4          1.6451    6.8646    0.3110 C.ar      1 <0>        -0.0838
      6 C5          2.3159    5.6632    0.4041 C.ar      1 <0>        -0.1235
      7 C6          1.7316    4.4964   -0.1008 C.ar      1 <0>        -0.0387
      8 C7          0.4707    4.5576   -0.7030 C.ar      1 <0>        -0.1285
      9 C8          2.4424    3.2130   -0.0040 C.2       1 <0>         0.0360
     10 C9          1.8092    2.0609   -0.3353 C.2       1 <0>        -0.1744
     11 C10         2.3506    0.6910   -0.4629 C.2       1 <0>         0.5596
     12 O2          3.5257    0.4465   -0.2635 O.2       1 <0>        -0.4685
     13 N1          1.4919   -0.2548   -0.8049 N.am      1 <0>        -0.5502
     14 C11         0.1902    0.0206   -1.0242 C.2       1 <0>         0.5442
     15 O3         -0.7005   -0.7447   -1.3408 O.2       1 <0>        -0.4206
     16 S1          0.0902    1.7801   -0.7373 S.3       1 <0>        -0.0575
     17 C12         1.9658   -1.6336   -0.9485 C.3       1 <0>         0.0470
     18 C13         2.4105   -1.8666   -2.3694 C.2       1 <0>         0.4592
     19 O4          2.3390   -0.9726   -3.1791 O.co2     1 <0>        -0.6262
     20 H1         -2.1803    7.4987   -0.4088 H         1 <0>         0.0555
     21 H2         -1.4185    7.8016   -1.9888 H         1 <0>         0.0557
     22 H3         -3.0181    7.0253   -1.9062 H         1 <0>         0.1013
     23 H4         -0.1236    7.8651   -0.3496 H         1 <0>         0.1308
     24 H5          2.0968    7.7647    0.7012 H         1 <0>         0.1306
     25 H6          3.2911    5.6230    0.8666 H         1 <0>         0.1345
     26 H7          0.0154    3.6620   -1.0993 H         1 <0>         0.1471
     27 H8          3.4688    3.1881    0.3310 H         1 <0>         0.1648
     28 H9          2.8046   -1.8018   -0.2730 H         1 <0>         0.1059
     29 H10         1.1578   -2.3229   -0.7030 H         1 <0>         0.1021
     30 O5          2.8861   -3.0673   -2.7355 O.co2     1 <0>        -0.7536
@<TRIPOS>BOND
     1    1    2 1
     2    1   20 1
     3    1   21 1
     4    1   22 1
     5    2    3 1
     6    3    8 ar
     7    3    4 ar
     8    4    5 ar
     9    4   23 1
    10    5    6 ar
    11    5   24 1
    12    6    7 ar
    13    6   25 1
    14    7    8 ar
    15    7    9 1
    16    8   26 1
    17    9   10 2
    18    9   27 1
    19   10   16 1
    20   10   11 1
    21   11   12 2
    22   11   13 am
    23   13   14 am
    24   13   17 1
    25   14   15 2
    26   14   16 1
    27   17   18 1
    28   17   28 1
    29   17   29 1
    30   18   19 2
    31   18   30 1
@<TRIPOS>MOLECULE
ZINC01188187
   32    34     0     0     0
SMALL
USER_CHARGES
5-[(3-phenoxyphenyl)methylene]thiazolidine-2,4-dione
@<TRIPOS>ATOM
      1 C1          1.8798   -0.3390   -0.7470 C.ar      1 <0>        -0.1145
      2 C2          1.8797    0.3695    0.4404 C.ar      1 <0>        -0.1055
      3 C3          0.7798    1.1267    0.7942 C.ar      1 <0>        -0.1290
      4 C4         -0.3255    1.1759   -0.0432 C.ar      1 <0>         0.0768
      5 C5         -0.3227    0.4640   -1.2342 C.ar      1 <0>        -0.1208
      6 C6          0.7797   -0.2917   -1.5833 C.ar      1 <0>        -0.1051
      7 O1         -1.4109    1.9155    0.3051 O.3       1 <0>        -0.2540
      8 C7         -1.3757    3.2525    0.0646 C.ar      1 <0>         0.1280
      9 C8         -0.2479    3.8248   -0.5109 C.ar      1 <0>        -0.1688
     10 C9         -0.2047    5.1847   -0.7587 C.ar      1 <0>        -0.0825
     11 C10        -1.2812    5.9842   -0.4360 C.ar      1 <0>        -0.1089
     12 C11        -2.4220    5.4185    0.1440 C.ar      1 <0>        -0.0589
     13 C12        -2.4653    4.0420    0.3879 C.ar      1 <0>        -0.1155
     14 C13        -3.5723    6.2663    0.4899 C.2       1 <0>         0.0734
     15 C14        -4.6187    5.7427    1.1746 C.2       1 <0>        -0.2117
     16 C15        -5.9217    6.3523    1.5157 C.2       1 <0>         0.5628
     17 O2         -6.2035    7.4880    1.1821 O.2       1 <0>        -0.4688
     18 N1         -6.7654    5.5997    2.2017 N.am      1 <0>        -0.6854
     19 C16        -6.4490    4.3416    2.5695 C.2       1 <0>         0.5249
     20 O3         -7.1227    3.5460    3.1960 O.2       1 <0>        -0.4179
     21 S1         -4.8056    4.1225    1.9066 S.3       1 <0>        -0.0225
     22 H1          2.7408   -0.9302   -1.0219 H         1 <0>         0.1302
     23 H2          2.7401    0.3305    1.0920 H         1 <0>         0.1322
     24 H3          0.7801    1.6796    1.7219 H         1 <0>         0.1319
     25 H4         -1.1819    0.5003   -1.8876 H         1 <0>         0.1330
     26 H5          0.7823   -0.8460   -2.5102 H         1 <0>         0.1329
     27 H6          0.5986    3.2047   -0.7662 H         1 <0>         0.1357
     28 H7          0.6754    5.6222   -1.2063 H         1 <0>         0.1370
     29 H8         -1.2437    7.0458   -0.6310 H         1 <0>         0.1393
     30 H9         -3.3443    3.5974    0.8308 H         1 <0>         0.1424
     31 H10        -3.5836    7.3062    0.1986 H         1 <0>         0.1690
     32 H11        -7.6317    5.9612    2.4463 H         1 <0>         0.4203
@<TRIPOS>BOND
     1    1    6 ar
     2    1    2 ar
     3    1   22 1
     4    2    3 ar
     5    2   23 1
     6    3    4 ar
     7    3   24 1
     8    4    5 ar
     9    4    7 1
    10    5    6 ar
    11    5   25 1
    12    6   26 1
    13    7    8 1
    14    8   13 ar
    15    8    9 ar
    16    9   10 ar
    17    9   27 1
    18   10   11 ar
    19   10   28 1
    20   11   12 ar
    21   11   29 1
    22   12   13 ar
    23   12   14 1
    24   13   30 1
    25   14   15 2
    26   14   31 1
    27   15   21 1
    28   15   16 1
    29   16   17 2
    30   16   18 am
    31   18   19 am
    32   18   32 1
    33   19   20 2
    34   19   21 1
@<TRIPOS>MOLECULE
ZINC13543148
   20    21     0     0     0
SMALL
USER_CHARGES
7-hydroxy-4-oxo-chromene-2-carboxylic acid
@<TRIPOS>ATOM
      1 C1         -1.2365    2.0268    0.0189 C.ar      1 <0>        -0.1868
      2 C2         -1.2703    3.3918    0.0310 C.ar      1 <0>        -0.0135
      3 C3         -0.0759    4.1142    0.0240 C.ar      1 <0>        -0.2421
      4 C4         -0.0735    5.5876    0.0309 C.2       1 <0>         0.4229
      5 O1         -1.1104    6.2275    0.0434 O.2       1 <0>        -0.4814
      6 C5          1.2407    6.2498    0.0214 C.2       1 <0>        -0.3040
      7 C6          2.3573    5.4836    0.0072 C.2       1 <0>         0.1308
      8 O2          2.3128    4.1428    0.0013 O.3       1 <0>        -0.1964
      9 C7          1.1614    3.4434    0.0090 C.ar      1 <0>         0.1732
     10 C8          1.1772    2.0551    0.0019 C.ar      1 <0>        -0.1756
     11 C9         -0.0163    1.3530    0.0095 C.ar      1 <0>         0.1663
     12 O3          0.0021   -0.0041    0.0020 O.3       1 <0>        -0.4937
     13 C10         3.6787    6.1519   -0.0018 C.2       1 <0>         0.5057
     14 O4          3.7461    7.3641    0.0032 O.co2     1 <0>        -0.5857
     15 H1         -2.1598    1.4665    0.0203 H         1 <0>         0.1368
     16 H2         -2.2175    3.9106    0.0425 H         1 <0>         0.1429
     17 H3          1.3133    7.3273    0.0261 H         1 <0>         0.1672
     18 H4          2.1177    1.5243   -0.0093 H         1 <0>         0.1500
     19 H5          0.0158   -0.4021    0.8832 H         1 <0>         0.3965
     20 O5          4.8061    5.4148   -0.0156 O.co2     1 <0>        -0.7131
@<TRIPOS>BOND
     1    1   11 ar
     2    1    2 ar
     3    1   15 1
     4    2    3 ar
     5    2   16 1
     6    3    9 ar
     7    3    4 1
     8    4    5 2
     9    4    6 1
    10    6    7 2
    11    6   17 1
    12    7    8 1
    13    7   13 1
    14    8    9 1
    15    9   10 ar
    16   10   11 ar
    17   10   18 1
    18   11   12 1
    19   12   19 1
    20   13   14 2
    21   13   20 1
@<TRIPOS>MOLECULE
ZINC00895313
   12    11     0     0     0
SMALL
USER_CHARGES

@<TRIPOS>ATOM
      1 C1         -0.0187    1.5258    0.0104 C.3       1 <0>         0.0521
      2 C2          0.0021   -0.0041    0.0020 C.3       1 <0>         0.0386
      3 H1          0.5883   -0.3548   -0.8473 H         1 <0>         0.1381
      4 C3         -1.4075   -0.5249   -0.1112 C.2       1 <0>         0.3165
      5 O1         -1.8621   -1.2302    0.7573 O.2       1 <0>        -0.4384
      6 O2          0.5895   -0.4792    1.2150 O.3       1 <0>        -0.5373
      7 O3          1.3220    2.0204    0.0003 O.3       1 <0>        -0.5610
      8 H2         -0.5459    1.8868   -0.8726 H         1 <0>         0.0646
      9 H3         -0.5289    1.8773    0.9072 H         1 <0>         0.0536
     10 H4         -2.0111   -0.2675   -0.9689 H         1 <0>         0.1082
     11 H5          0.1188   -0.2046    2.0138 H         1 <0>         0.3799
     12 H6          1.3852    2.9853    0.0049 H         1 <0>         0.3851
@<TRIPOS>BOND
     1    1    2 1
     2    1    7 1
     3    1    8 1
     4    1    9 1
     5    2    3 1
     6    2    4 1
     7    2    6 1
     8    4    5 2
     9    4   10 1
    10    6   11 1
    11    7   12 1
@<TRIPOS>MOLECULE
ZINC00901286
   12    11     0     0     0
SMALL
USER_CHARGES
2,3-dihydroxypropanal
@<TRIPOS>ATOM
      1 C1         -2.1309    1.4378   -1.2293 C.3       1 <0>         0.0502
      2 C2         -1.3278    1.8115    0.0182 C.3       1 <0>         0.0521
      3 H1         -1.8450    1.5584    0.8358 H         1 <0>         0.1224
      4 C3         -0.0126    1.0758    0.0080 C.2       1 <0>         0.3152
      5 O1          1.0249    1.6938    0.0014 O.2       1 <0>        -0.4371
      6 O2         -1.0857    3.2198    0.0247 O.3       1 <0>        -0.5374
      7 O3         -3.4236    2.0432   -1.1626 O.3       1 <0>        -0.5610
      8 H2         -1.6086    1.7931   -2.1176 H         1 <0>         0.0549
      9 H3         -2.2393    0.3544   -1.2806 H         1 <0>         0.0653
     10 H4          0.0021   -0.0041    0.0020 H         1 <0>         0.1092
     11 H5         -0.5874    3.5368   -0.7410 H         1 <0>         0.3807
     12 H6         -3.9887    1.8487   -1.9228 H         1 <0>         0.3856
@<TRIPOS>BOND
     1    1    2 1
     2    1    7 1
     3    1    8 1
     4    1    9 1
     5    2    3 1
     6    2    4 1
     7    2    6 1
     8    4    5 2
     9    4   10 1
    10    6   11 1
    11    7   12 1
@<TRIPOS>MOLECULE
ZINC13860744
   37    40     0     0     0
SMALL
USER_CHARGES
2-[3-[(5-chloro-1,3-benzothiazol-2-yl)methyl]-4-oxo-phthalazin-1-yl]acetic acid
@<TRIPOS>ATOM
      1 C1          0.0515    4.2341    0.0251 C.ar      1 <0>        -0.0908
      2 C2         -1.1651    3.5640    0.0327 C.ar      1 <0>        -0.1260
      3 C3         -1.2097    2.1870    0.0311 C.ar      1 <0>        -0.0553
      4 C4         -0.0178    1.4639    0.0101 C.ar      1 <0>        -0.1329
      5 C5          1.2183    2.1497    0.0020 C.ar      1 <0>        -0.0431
      6 C6          1.2323    3.5457    0.0097 C.ar      1 <0>        -0.0992
      7 C7          2.4532    1.3653   -0.0140 C.2       1 <0>         0.1244
      8 N1          2.3985    0.0668   -0.0204 N.2       1 <0>        -0.1316
      9 N2          1.1938   -0.6368   -0.0127 N.am      1 <0>        -0.4394
     10 C8          0.0021   -0.0041    0.0020 C.2       1 <0>         0.5208
     11 O1         -1.0375   -0.6389    0.0081 O.2       1 <0>        -0.5337
     12 C9          1.2235   -2.1015   -0.0204 C.3       1 <0>         0.2215
     13 C10         1.2198   -2.5965   -1.4438 C.2       1 <0>         0.1338
     14 N3          2.2398   -2.8359   -2.2191 N.2       1 <0>        -0.4693
     15 C11         2.0991   -3.2843   -3.4840 C.ar      1 <0>         0.0931
     16 C12         3.0975   -3.5901   -4.4355 C.ar      1 <0>        -0.0448
     17 C13         2.7556   -4.0333   -5.6874 C.ar      1 <0>        -0.0299
     18 C14         1.4275   -4.1950   -6.0617 C.ar      1 <0>        -0.0912
     19 C15         0.4264   -3.9042   -5.1548 C.ar      1 <0>        -0.0533
     20 C16         0.7592   -3.4602   -3.8982 C.ar      1 <0>        -0.1595
     21 S1         -0.1442   -2.9779   -2.4480 S.3       1 <0>         0.0529
     22 Cl1         4.0101   -4.3998   -6.8300 Cl        1 <0>        -0.0609
     23 C17         3.7888    2.0632   -0.0234 C.3       1 <0>        -0.1061
     24 C18         4.8919    1.0366   -0.0398 C.2       1 <0>         0.4556
     25 O2          4.6212   -0.1410   -0.0435 O.co2     1 <0>        -0.5900
     26 H1          0.0647    5.3140    0.0311 H         1 <0>         0.1312
     27 H2         -2.0859    4.1283    0.0449 H         1 <0>         0.1309
     28 H3         -2.1592    1.6725    0.0416 H         1 <0>         0.1388
     29 H4          2.1714    4.0791    0.0032 H         1 <0>         0.1419
     30 H5          2.1256   -2.4493    0.4829 H         1 <0>         0.1372
     31 H6          0.3460   -2.4854    0.5000 H         1 <0>         0.1245
     32 H7          4.1391   -3.4743   -4.1747 H         1 <0>         0.1480
     33 H8          1.1797   -4.5453   -7.0528 H         1 <0>         0.1474
     34 H9         -0.6103   -4.0256   -5.4318 H         1 <0>         0.1424
     35 H10         3.8641    2.6916   -0.9108 H         1 <0>         0.0928
     36 H11         3.8817    2.6821    0.8690 H         1 <0>         0.0943
     37 O3          6.1751    1.4303   -0.0504 O.co2     1 <0>        -0.7745
@<TRIPOS>BOND
     1    1    6 ar
     2    1    2 ar
     3    1   26 1
     4    2    3 ar
     5    2   27 1
     6    3    4 ar
     7    3   28 1
     8    4   10 1
     9    4    5 ar
    10    5    6 ar
    11    5    7 1
    12    6   29 1
    13    7    8 2
    14    7   23 1
    15    8    9 1
    16    9   10 am
    17    9   12 1
    18   10   11 2
    19   12   13 1
    20   12   30 1
    21   12   31 1
    22   13   21 1
    23   13   14 2
    24   14   15 1
    25   15   20 ar
    26   15   16 ar
    27   16   17 ar
    28   16   32 1
    29   17   18 ar
    30   17   22 1
    31   18   19 ar
    32   18   33 1
    33   19   20 ar
    34   19   34 1
    35   20   21 1
    36   23   24 1
    37   23   35 1
    38   23   36 1
    39   24   25 2
    40   24   37 1
@<TRIPOS>MOLECULE
ZINC00388514
   17    17     0     0     0
SMALL
USER_CHARGES
2-(2,6-dichlorophenyl)acetic acid
@<TRIPOS>ATOM
      1 C1         -1.2477    3.7894    0.0334 C.ar      1 <0>        -0.1181
      2 C2         -0.0607    4.4974    0.0258 C.ar      1 <0>        -0.1077
      3 C3          1.1473    3.8229    0.0112 C.ar      1 <0>        -0.0209
      4 C4          1.1669    2.4398    0.0040 C.ar      1 <0>        -0.0128
      5 C5         -0.0215    1.7317    0.0116 C.ar      1 <0>        -0.0209
      6 C6         -1.2289    2.4073    0.0209 C.ar      1 <0>        -0.1076
      7 Cl1         0.0021   -0.0041    0.0020 Cl        1 <0>        -0.0615
      8 C7          2.4823    1.7046   -0.0125 C.3       1 <0>        -0.1423
      9 C8          2.9072    1.4671   -1.4387 C.2       1 <0>         0.4781
     10 O1          2.2131    1.8551   -2.3484 O.co2     1 <0>        -0.6284
     11 Cl2         2.6382    4.7123    0.0011 Cl        1 <0>        -0.0616
     12 H1         -2.1904    4.3162    0.0445 H         1 <0>         0.1345
     13 H2         -0.0761    5.5772    0.0310 H         1 <0>         0.1330
     14 H3         -2.1568    1.8547    0.0227 H         1 <0>         0.1330
     15 H4          3.2385    2.3014    0.4974 H         1 <0>         0.0853
     16 H5          2.3701    0.7477    0.4973 H         1 <0>         0.0853
     17 O2          4.0568    0.8246   -1.6984 O.co2     1 <0>        -0.7674
@<TRIPOS>BOND
     1    1    6 ar
     2    1    2 ar
     3    1   12 1
     4    2    3 ar
     5    2   13 1
     6    3    4 ar
     7    3   11 1
     8    4    5 ar
     9    4    8 1
    10    5    6 ar
    11    5    7 1
    12    6   14 1
    13    8    9 1
    14    8   15 1
    15    8   16 1
    16    9   10 2
    17    9   17 1
@<TRIPOS>MOLECULE
ZINC00164777
   18    18     0     0     0
SMALL
USER_CHARGES
2-(2-hydroxyphenyl)acetic acid
@<TRIPOS>ATOM
      1 C1         -4.0945   -0.3384   -1.1726 C.ar      1 <0>        -0.1298
      2 C2         -4.5417   -0.8815    0.0179 C.ar      1 <0>        -0.1266
      3 C3         -3.9510   -0.5136    1.2111 C.ar      1 <0>        -0.1473
      4 C4         -2.9082    0.4017    1.2144 C.ar      1 <0>         0.1094
      5 C5         -2.4615    0.9450    0.0189 C.ar      1 <0>        -0.0558
      6 C6         -3.0592    0.5777   -1.1715 C.ar      1 <0>        -0.1057
      7 C7         -1.3295    1.9397    0.0189 C.3       1 <0>        -0.1255
      8 C8         -0.0143    1.2041    0.0087 C.2       1 <0>         0.4703
      9 O1          0.0021   -0.0041    0.0020 O.co2     1 <0>        -0.6286
     10 O2         -2.3257    0.7655    2.3871 O.3       1 <0>        -0.4880
     11 H1         -4.5577   -0.6273   -2.1045 H         1 <0>         0.1176
     12 H2         -5.3536   -1.5936    0.0148 H         1 <0>         0.1179
     13 H3         -4.3008   -0.9378    2.1407 H         1 <0>         0.1207
     14 H4         -2.7145    1.0035   -2.1022 H         1 <0>         0.1200
     15 H5         -1.3915    2.5607    0.9126 H         1 <0>         0.0753
     16 H6         -1.4000    2.5704   -0.8673 H         1 <0>         0.0737
     17 H7         -2.7377    1.5315    2.8098 H         1 <0>         0.3775
     18 O3          1.1389    1.8910    0.0013 O.co2     1 <0>        -0.7750
@<TRIPOS>BOND
     1    1    6 ar
     2    1    2 ar
     3    1   11 1
     4    2    3 ar
     5    2   12 1
     6    3    4 ar
     7    3   13 1
     8    4    5 ar
     9    4   10 1
    10    5    6 ar
    11    5    7 1
    12    6   14 1
    13    7    8 1
    14    7   15 1
    15    7   16 1
    16    8    9 2
    17    8   18 1
    18   10   17 1
@<TRIPOS>MOLECULE
ZINC00002070
   26    28     0     0     0
SMALL
USER_CHARGES

@<TRIPOS>ATOM
      1 C1         -0.0167    1.3801    0.0096 C.ar      1 <0>        -0.0990
      2 C2          1.1701    2.0848    0.0021 C.ar      1 <0>        -0.1186
      3 C3          2.3855    1.4100   -0.0123 C.ar      1 <0>         0.1542
      4 C4          2.4028    0.0246   -0.0169 C.ar      1 <0>        -0.1549
      5 C5          1.2099   -0.6782   -0.0114 C.ar      1 <0>        -0.0989
      6 C6          0.0021   -0.0041    0.0020 C.ar      1 <0>         0.0694
      7 F1         -1.1583   -0.6960    0.0081 F         1 <0>        -0.1342
      8 C7          3.6992   -0.7359   -0.0229 C.3       1 <0>         0.1719
      9 C8          4.8552    0.1695   -0.4367 C.3       1 <0>        -0.1544
     10 C9          4.7464    1.4825    0.3507 C.3       1 <0>         0.0573
     11 O1          3.5337    2.1363   -0.0253 O.3       1 <0>        -0.3038
     12 C10         3.9627   -1.3398    1.3369 C.2       1 <0>         0.5371
     13 O2          4.1092   -0.7502    2.3860 O.2       1 <0>        -0.4481
     14 N1          4.0007   -2.6737    1.1374 N.am      1 <0>        -0.6781
     15 C11         3.7990   -2.9857   -0.1487 C.2       1 <0>         0.7047
     16 O3          3.7883   -4.1240   -0.5744 O.2       1 <0>        -0.5297
     17 N2          3.6097   -1.8965   -0.9179 N.am      1 <0>        -0.7116
     18 H1         -0.9588    1.9080    0.0260 H         1 <0>         0.1498
     19 H2          1.1544    3.1647    0.0070 H         1 <0>         0.1504
     20 H3          1.2225   -1.7581   -0.0176 H         1 <0>         0.1355
     21 H4          5.8031   -0.3179   -0.2088 H         1 <0>         0.1010
     22 H5          4.7955    0.3761   -1.5053 H         1 <0>         0.1057
     23 H6          4.7312    1.2686    1.4194 H         1 <0>         0.0856
     24 H7          5.5963    2.1229    0.1144 H         1 <0>         0.1255
     25 H8          4.1546   -3.3257    1.8389 H         1 <0>         0.4374
     26 H9          3.4463   -1.8817   -1.8739 H         1 <0>         0.4456
@<TRIPOS>BOND
     1    1    6 ar
     2    1    2 ar
     3    1   18 1
     4    2    3 ar
     5    2   19 1
     6    3   11 1
     7    3    4 ar
     8    4    5 ar
     9    4    8 1
    10    5    6 ar
    11    5   20 1
    12    6    7 1
    13    8   17 1
    14    8    9 1
    15    8   12 1
    16    9   10 1
    17    9   21 1
    18    9   22 1
    19   10   11 1
    20   10   23 1
    21   10   24 1
    22   12   13 2
    23   12   14 am
    24   14   15 am
    25   14   25 1
    26   15   16 2
    27   15   17 am
    28   17   26 1
@<TRIPOS>MOLECULE
ZINC00003724
   29    32     0     0     0
SMALL
USER_CHARGES
difluoroBLAHdione
@<TRIPOS>ATOM
      1 C1         -0.0167    1.3813    0.0096 C.ar      1 <0>        -0.1308
      2 C2          1.1656    2.0909    0.0022 C.ar      1 <0>        -0.0612
      3 C3          2.3864    1.4147   -0.0139 C.ar      1 <0>        -0.0440
      4 C4          2.3970    0.0202   -0.0206 C.ar      1 <0>        -0.0769
      5 C5          1.2107   -0.6818   -0.0127 C.ar      1 <0>        -0.1098
      6 C6          0.0021   -0.0041    0.0020 C.ar      1 <0>         0.1132
      7 F1         -1.1590   -0.6948    0.0094 F         1 <0>        -0.1277
      8 C7          3.8357   -0.4116   -0.0350 C.3       1 <0>         0.2150
      9 C8          4.6659    0.8403   -0.0408 C.ar      1 <0>        -0.0769
     10 C9          3.7826    1.9193   -0.0261 C.ar      1 <0>        -0.0440
     11 C10         4.2891    3.2199   -0.0263 C.ar      1 <0>        -0.0612
     12 C11         5.6518    3.4302   -0.0423 C.ar      1 <0>        -0.1308
     13 C12         6.5229    2.3530   -0.0583 C.ar      1 <0>         0.1132
     14 C13         6.0268    1.0591   -0.0575 C.ar      1 <0>        -0.1099
     15 F2          7.8572    2.5642   -0.0744 F         1 <0>        -0.1277
     16 C14         4.1382   -1.2780   -1.2322 C.2       1 <0>         0.5438
     17 O1          4.0208   -0.9821   -2.4020 O.2       1 <0>        -0.4373
     18 N1          4.5674   -2.4529   -0.7242 N.am      1 <0>        -0.6782
     19 C15         4.5738   -2.4377    0.6149 C.2       1 <0>         0.7061
     20 O2          4.9198   -3.3801    1.3000 O.2       1 <0>        -0.5259
     21 N2          4.1527   -1.2601    1.1173 N.am      1 <0>        -0.7051
     22 H1         -0.9601    1.9069    0.0169 H         1 <0>         0.1497
     23 H2          1.1468    3.1707    0.0084 H         1 <0>         0.1448
     24 H3          1.2232   -1.7617   -0.0184 H         1 <0>         0.1402
     25 H4          3.6132    4.0622   -0.0138 H         1 <0>         0.1448
     26 H5          6.0411    4.4376   -0.0420 H         1 <0>         0.1497
     27 H6          6.7075    0.2207   -0.0696 H         1 <0>         0.1402
     28 H7          4.8371   -3.2136   -1.2622 H         1 <0>         0.4394
     29 H8          4.0752   -1.0217    2.0543 H         1 <0>         0.4472
@<TRIPOS>BOND
     1    1    6 ar
     2    1    2 ar
     3    1   22 1
     4    2    3 ar
     5    2   23 1
     6    3   10 1
     7    3    4 ar
     8    4    5 ar
     9    4    8 1
    10    5    6 ar
    11    5   24 1
    12    6    7 1
    13    8   21 1
    14    8    9 1
    15    8   16 1
    16    9   14 ar
    17    9   10 ar
    18   10   11 ar
    19   11   12 ar
    20   11   25 1
    21   12   13 ar
    22   12   26 1
    23   13   14 ar
    24   13   15 1
    25   14   27 1
    26   16   17 2
    27   16   18 am
    28   18   19 am
    29   18   28 1
    30   19   20 2
    31   19   21 am
    32   21   29 1
@<TRIPOS>MOLECULE
ZINC05853925
   33    34     0     0     0
SMALL
USER_CHARGES

@<TRIPOS>ATOM
      1 C1         -0.0187    1.5258    0.0104 C.3       1 <0>        -0.1470
      2 C2          0.0021   -0.0041    0.0020 C.3       1 <0>         0.0638
      3 O1          0.6709   -0.4649   -1.1737 O.3       1 <0>        -0.3705
      4 C3          0.7759   -1.7997   -1.3349 C.2       1 <0>         0.5369
      5 C4          1.4496   -2.3445   -2.5176 C.2       1 <0>        -0.4659
      6 C5          2.0816   -1.5532   -3.6388 C.3       1 <0>         0.1940
      7 N1          2.6222   -2.5393   -4.5817 N.am      1 <0>        -0.6126
      8 C6          2.3536   -3.7653   -4.0967 C.2       1 <0>         0.5140
      9 O2          2.6638   -4.8106   -4.6325 O.2       1 <0>        -0.5338
     10 C7          1.6301   -3.6518   -2.8120 C.2       1 <0>         0.2819
     11 O3          1.2125   -4.6909   -2.0532 O.3       1 <0>        -0.6139
     12 C8          3.3286   -2.2416   -5.8302 C.3       1 <0>         0.1738
     13 C9          4.8067   -2.1324   -5.5573 C.ar      1 <0>        -0.1040
     14 C10         5.3585   -0.9113   -5.2179 C.ar      1 <0>        -0.1032
     15 C11         6.7143   -0.8111   -4.9675 C.ar      1 <0>        -0.1265
     16 C12         7.5182   -1.9321   -5.0561 C.ar      1 <0>        -0.1216
     17 C13         6.9662   -3.1534   -5.3947 C.ar      1 <0>        -0.1244
     18 C14         5.6097   -3.2545   -5.6408 C.ar      1 <0>        -0.0960
     19 O4          0.3120   -2.5512   -0.4995 O.2       1 <0>        -0.5356
     20 H1          1.0039    1.9031    0.0027 H         1 <0>         0.0613
     21 H2         -0.5459    1.8868   -0.8726 H         1 <0>         0.0614
     22 H3         -0.5289    1.8773    0.9072 H         1 <0>         0.0686
     23 H4          0.5293   -0.3651    0.8851 H         1 <0>         0.0555
     24 H5         -1.0205   -0.3814    0.0098 H         1 <0>         0.0557
     25 H6          1.3304   -0.9360   -4.1316 H         1 <0>         0.0568
     26 H7          2.8848   -0.9275   -3.2494 H         1 <0>         0.0548
     27 H8          3.1499   -3.0418   -6.5485 H         1 <0>         0.0868
     28 H9          2.9638   -1.2990   -6.2381 H         1 <0>         0.0857
     29 H10         4.7304   -0.0354   -5.1486 H         1 <0>         0.1218
     30 H11         7.1455    0.1431   -4.7030 H         1 <0>         0.1194
     31 H12         8.5776   -1.8537   -4.8612 H         1 <0>         0.1178
     32 H13         7.5944   -4.0292   -5.4642 H         1 <0>         0.1196
     33 H14         5.1779   -4.2094   -5.9016 H         1 <0>         0.1256
@<TRIPOS>BOND
     1    1    2 1
     2    1   20 1
     3    1   21 1
     4    1   22 1
     5    2    3 1
     6    2   23 1
     7    2   24 1
     8    3    4 1
     9    4    5 1
    10    4   19 2
    11    5   10 2
    12    5    6 1
    13    6    7 1
    14    6   25 1
    15    6   26 1
    16    7    8 am
    17    7   12 1
    18    8    9 2
    19    8   10 1
    20   10   11 1
    21   12   13 1
    22   12   27 1
    23   12   28 1
    24   13   18 ar
    25   13   14 ar
    26   14   15 ar
    27   14   29 1
    28   15   16 ar
    29   15   30 1
    30   16   17 ar
    31   16   31 1
    32   17   18 ar
    33   17   32 1
    34   18   33 1
@<TRIPOS>MOLECULE
ZINC00597385
   39    42     0     0     0
SMALL
USER_CHARGES
(4-bromo-2-fluoro-phenyl)methyl-fluoro-BLAHtetrone
@<TRIPOS>ATOM
      1 C1         -1.2451    3.1423    0.0294 C.ar      1 <0>        -0.1501
      2 C2         -0.0662    3.8582    0.0223 C.ar      1 <0>        -0.0062
      3 C3          1.1534    3.1821    0.0083 C.ar      1 <0>        -0.1420
      4 C4          1.1646    1.7799    0.0005 C.ar      1 <0>        -0.0083
      5 C5         -0.0126    1.0758    0.0080 C.ar      1 <0>        -0.1498
      6 C6         -1.2236    1.7561    0.0174 C.ar      1 <0>         0.1532
      7 F1         -2.3843    1.0646    0.0194 F         1 <0>        -0.1201
      8 C7          2.5045    1.0991   -0.0156 C.3       1 <0>        -0.0917
      9 C8          2.5599    0.1820   -1.2457 C.3       1 <0>        -0.1447
     10 C9          2.6593   -1.2041   -0.6423 C.2       1 <0>         0.5381
     11 O1          2.7275   -2.2399   -1.2685 O.2       1 <0>        -0.4574
     12 N1          2.6606   -1.1028    0.6938 N.am      1 <0>        -0.6717
     13 C10         2.5770    0.1543    1.1543 C.2       1 <0>         0.5582
     14 O2          2.5627    0.4771    2.3227 O.2       1 <0>        -0.4439
     15 C11         3.7451    1.9528   -0.0159 C.2       1 <0>         0.5513
     16 O3          4.8433    1.4393   -0.0230 O.2       1 <0>        -0.4400
     17 N2          3.6195    3.2947   -0.0078 N.am      1 <0>        -0.5537
     18 C12         2.4309    3.9144    0.0016 C.2       1 <0>         0.5723
     19 O4          2.4067    5.1294    0.0051 O.2       1 <0>        -0.4772
     20 C13         4.8355    4.1118   -0.0098 C.3       1 <0>         0.1361
     21 C14         5.2448    4.3999   -1.4312 C.ar      1 <0>        -0.1410
     22 C15         5.0305    5.6541   -1.9715 C.ar      1 <0>        -0.0549
     23 C16         5.4065    5.9193   -3.2748 C.ar      1 <0>        -0.1047
     24 C17         5.9972    4.9297   -4.0403 C.ar      1 <0>        -0.0546
     25 C18         6.2119    3.6745   -3.5017 C.ar      1 <0>        -0.1331
     26 C19         5.8406    3.4102   -2.1942 C.ar      1 <0>         0.1218
     27 F2          6.0548    2.1857   -1.6651 F         1 <0>        -0.1099
     28 Br1         6.5117    5.2941   -5.8231 Br        1 <0>        -0.0289
     29 H1         -2.1904    3.6646    0.0401 H         1 <0>         0.1568
     30 H2         -0.0875    4.9380    0.0272 H         1 <0>         0.1604
     31 H3          0.0021   -0.0041    0.0020 H         1 <0>         0.1470
     32 H4          1.6506    0.2789   -1.8388 H         1 <0>         0.1417
     33 H5          3.4398    0.4023   -1.8502 H         1 <0>         0.1385
     34 H6          2.7172   -1.8742    1.2792 H         1 <0>         0.4283
     35 H7          4.6434    5.0503    0.5103 H         1 <0>         0.1215
     36 H8          5.6362    3.5730    0.4968 H         1 <0>         0.1159
     37 H9          4.5695    6.4272   -1.3748 H         1 <0>         0.1498
     38 H10         5.2387    6.8995   -3.6960 H         1 <0>         0.1446
     39 H11         6.6730    2.9019   -4.0991 H         1 <0>         0.1485
@<TRIPOS>BOND
     1    1    6 ar
     2    1    2 ar
     3    1   29 1
     4    2    3 ar
     5    2   30 1
     6    3   18 1
     7    3    4 ar
     8    4    5 ar
     9    4    8 1
    10    5    6 ar
    11    5   31 1
    12    6    7 1
    13    8   13 1
    14    8    9 1
    15    8   15 1
    16    9   10 1
    17    9   32 1
    18    9   33 1
    19   10   11 2
    20   10   12 am
    21   12   13 am
    22   12   34 1
    23   13   14 2
    24   15   16 2
    25   15   17 am
    26   17   18 am
    27   17   20 1
    28   18   19 2
    29   20   21 1
    30   20   35 1
    31   20   36 1
    32   21   26 ar
    33   21   22 ar
    34   22   23 ar
    35   22   37 1
    36   23   24 ar
    37   23   38 1
    38   24   25 ar
    39   24   28 1
    40   25   26 ar
    41   25   39 1
    42   26   27 1
@<TRIPOS>MOLECULE
ZINC03794416
   29    30     0     0     0
SMALL
USER_CHARGES
2-(7-chloro-6-fluoro-4-hydroxy-2-methyl-chroman-4-yl)acetic acid
@<TRIPOS>ATOM
      1 C1          3.3067    5.1615   -0.1815 C.3       1 <0>        -0.1409
      2 C2          3.0936    3.6632    0.0437 C.3       1 <0>         0.0843
      3 H1          3.6938    3.0960   -0.6677 H         1 <0>         0.0810
      4 C3          1.6104    3.3180   -0.1395 C.3       1 <0>        -0.1398
      5 C4          1.4513    1.8004   -0.0192 C.3       1 <0>         0.1971
      6 C5          2.1770    1.3101    1.2082 C.ar      1 <0>        -0.1441
      7 C6          1.8625    0.0586    1.7123 C.ar      1 <0>        -0.1000
      8 C7          2.5103   -0.4250    2.8338 C.ar      1 <0>         0.0742
      9 C8          3.4795    0.3444    3.4579 C.ar      1 <0>        -0.0419
     10 C9          3.7942    1.5927    2.9588 C.ar      1 <0>        -0.1201
     11 C10         3.1419    2.0814    1.8314 C.ar      1 <0>         0.1523
     12 O1          3.4737    3.3183    1.3766 O.3       1 <0>        -0.3096
     13 Cl1         4.2963   -0.2603    4.8653 Cl        1 <0>        -0.0497
     14 F1          2.1993   -1.6463    3.3206 F         1 <0>        -0.1297
     15 C11         2.0389    1.1269   -1.2610 C.3       1 <0>        -0.1865
     16 C12         1.2729    1.5679   -2.4815 C.2       1 <0>         0.4633
     17 O2          0.2802    2.2458   -2.3595 O.co2     1 <0>        -0.6129
     18 O3          0.0640    1.4746    0.0869 O.3       1 <0>        -0.5201
     19 H2          4.3582    5.4056   -0.0310 H         1 <0>         0.0663
     20 H3          3.0156    5.4209   -1.1994 H         1 <0>         0.0844
     21 H4          2.6980    5.7254    0.5253 H         1 <0>         0.0666
     22 H5          1.2767    3.6454   -1.1242 H         1 <0>         0.1204
     23 H6          1.0196    3.8116    0.6321 H         1 <0>         0.0778
     24 H7          1.1077   -0.5422    1.2267 H         1 <0>         0.1458
     25 H8          4.5493    2.1920    3.4456 H         1 <0>         0.1502
     26 H9          3.0860    1.4105   -1.3670 H         1 <0>         0.0720
     27 H10         1.9645    0.0444   -1.1568 H         1 <0>         0.0700
     28 H11        -0.1126    0.5271    0.1652 H         1 <0>         0.3634
     29 O4          1.6934    1.2076   -3.7043 O.co2     1 <0>        -0.7738
@<TRIPOS>BOND
     1    1    2 1
     2    1   19 1
     3    1   20 1
     4    1   21 1
     5    2    3 1
     6    2   12 1
     7    2    4 1
     8    4    5 1
     9    4   22 1
    10    4   23 1
    11    5    6 1
    12    5   15 1
    13    5   18 1
    14    6   11 ar
    15    6    7 ar
    16    7    8 ar
    17    7   24 1
    18    8    9 ar
    19    8   14 1
    20    9   10 ar
    21    9   13 1
    22   10   11 ar
    23   10   25 1
    24   11   12 1
    25   15   16 1
    26   15   26 1
    27   15   27 1
    28   16   17 2
    29   16   29 1
    30   18   28 1
@<TRIPOS>MOLECULE
ZINC00899870
   41    42     0     0     0
SMALL
USER_CHARGES

@<TRIPOS>ATOM
      1 C1         -0.0167    1.3779    0.0096 C.ar      1 <0>        -0.1088
      2 C2          1.1696    2.0886    0.0021 C.ar      1 <0>        -0.1298
      3 C3          2.3802    1.4154   -0.0130 C.ar      1 <0>         0.0649
      4 C4          2.3990    0.0236   -0.0206 C.ar      1 <0>         0.0776
      5 C5          1.2071   -0.6822   -0.0130 C.ar      1 <0>        -0.1166
      6 C6          0.0021   -0.0041    0.0020 C.ar      1 <0>        -0.0619
      7 C7         -1.2936   -0.7736    0.0102 C.3       1 <0>        -0.0644
      8 C8         -1.7458   -1.0263   -1.4294 C.3       1 <0>         0.0281
      9 H1         -1.8071   -0.0777   -1.9628 H         1 <0>         0.0792
     10 C9         -3.1004   -1.6867   -1.4219 C.2       1 <0>         0.4904
     11 O1         -4.0696   -1.0849   -0.9919 O.co2     1 <0>        -0.6865
     12 O2         -3.2270   -2.8228   -1.8458 O.co2     1 <0>        -0.6772
     13 O3         -0.8034   -1.8796   -2.0819 O.3       1 <0>        -0.3234
     14 C10        -0.6584   -1.7263   -3.4146 C.2       1 <0>         0.4975
     15 O4         -1.3151   -0.8901   -4.0057 O.2       1 <0>        -0.5176
     16 C11         0.2593   -2.5398   -4.1261 C.2       1 <0>        -0.1654
     17 C12         0.4045   -2.3863   -5.4604 C.2       1 <0>        -0.0272
     18 C13         1.3557   -3.2294   -6.1979 C.ar      1 <0>        -0.0568
     19 C14         2.1082   -4.1961   -5.5207 C.ar      1 <0>        -0.0912
     20 C15         2.9991   -4.9850   -6.2143 C.ar      1 <0>        -0.1299
     21 C16         3.1534   -4.8242   -7.5850 C.ar      1 <0>         0.0860
     22 C17         2.4075   -3.8634   -8.2669 C.ar      1 <0>         0.0771
     23 C18         1.5078   -3.0721   -7.5805 C.ar      1 <0>        -0.1068
     24 O5          2.5619   -3.7096   -9.6093 O.3       1 <0>        -0.4873
     25 O6          4.0338   -5.6048   -8.2634 O.3       1 <0>        -0.4882
     26 O7          3.5850   -0.6417   -0.0359 O.3       1 <0>        -0.4879
     27 O8          3.5476    2.1129   -0.0209 O.3       1 <0>        -0.4894
     28 H2         -0.9598    1.9038    0.0259 H         1 <0>         0.1324
     29 H3          1.1522    3.1684    0.0077 H         1 <0>         0.1305
     30 H4          1.2190   -1.7621   -0.0189 H         1 <0>         0.1359
     31 H5         -1.1467   -1.7271    0.5175 H         1 <0>         0.0815
     32 H6         -2.0555   -0.1967    0.5344 H         1 <0>         0.1006
     33 H7          0.8423   -3.2821   -3.6013 H         1 <0>         0.1388
     34 H8         -0.1785   -1.6439   -5.9852 H         1 <0>         0.1410
     35 H9          1.9906   -4.3232   -4.4546 H         1 <0>         0.1403
     36 H10         3.5795   -5.7303   -5.6908 H         1 <0>         0.1377
     37 H11         0.9263   -2.3307   -8.1082 H         1 <0>         0.1402
     38 H12         1.9693   -4.2603  -10.1390 H         1 <0>         0.3868
     39 H13         3.6517   -6.4263   -8.6014 H         1 <0>         0.3872
     40 H14         3.9367   -0.8389    0.8430 H         1 <0>         0.3819
     41 H15         3.8938    2.3101    0.8602 H         1 <0>         0.3805
@<TRIPOS>BOND
     1    1    6 ar
     2    1    2 ar
     3    1   28 1
     4    2    3 ar
     5    2   29 1
     6    3    4 ar
     7    3   27 1
     8    4    5 ar
     9    4   26 1
    10    5    6 ar
    11    5   30 1
    12    6    7 1
    13    7    8 1
    14    7   31 1
    15    7   32 1
    16    8    9 1
    17    8   10 1
    18    8   13 1
    19   10   11 2
    20   10   12 1
    21   13   14 1
    22   14   15 2
    23   14   16 1
    24   16   17 2
    25   16   33 1
    26   17   18 1
    27   17   34 1
    28   18   23 ar
    29   18   19 ar
    30   19   20 ar
    31   19   35 1
    32   20   21 ar
    33   20   36 1
    34   21   22 ar
    35   21   25 1
    36   22   23 ar
    37   22   24 1
    38   23   37 1
    39   24   38 1
    40   25   39 1
    41   26   40 1
    42   27   41 1
@<TRIPOS>MOLECULE
ZINC00162733
   28    30     0     0     0
SMALL
USER_CHARGES
7-hydroxy-4-phenyl-chromen-2-one
@<TRIPOS>ATOM
      1 C1          7.3931    1.4241   -0.0601 C.ar      1 <0>        -0.1023
      2 C2          7.1810    0.4091    0.8561 C.ar      1 <0>        -0.1173
      3 C3          5.9819   -0.2729    0.8691 C.ar      1 <0>        -0.0902
      4 C4          4.9816    0.0628   -0.0445 C.ar      1 <0>        -0.0740
      5 C5          5.2042    1.0838   -0.9698 C.ar      1 <0>        -0.0972
      6 C6          6.4056    1.7619   -0.9685 C.ar      1 <0>        -0.1183
      7 C7          3.6932   -0.6644   -0.0362 C.2       1 <0>         0.0774
      8 C8          3.6540   -2.0459   -0.0428 C.2       1 <0>        -0.2439
      9 C9          2.4121   -2.7033   -0.0345 C.2       1 <0>         0.5125
     10 O1          2.3867   -3.9215   -0.0400 O.2       1 <0>        -0.4590
     11 O2          1.2530   -2.0265   -0.0203 O.3       1 <0>        -0.2712
     12 C10         1.2148   -0.6767   -0.0132 C.ar      1 <0>         0.1700
     13 C11         2.4117    0.0604   -0.0206 C.ar      1 <0>        -0.1577
     14 C12         2.3756    1.4566   -0.0128 C.ar      1 <0>        -0.0390
     15 C13         1.1734    2.1047    0.0022 C.ar      1 <0>        -0.1648
     16 C14        -0.0167    1.3813    0.0096 C.ar      1 <0>         0.1694
     17 C15         0.0021   -0.0041    0.0020 C.ar      1 <0>        -0.1653
     18 O3         -1.2045    2.0387    0.0188 O.3       1 <0>        -0.4902
     19 H1          8.3334    1.9552   -0.0659 H         1 <0>         0.1284
     20 H2          7.9557    0.1505    1.5627 H         1 <0>         0.1307
     21 H3          5.8174   -1.0647    1.5849 H         1 <0>         0.1299
     22 H4          4.4360    1.3452   -1.6825 H         1 <0>         0.1296
     23 H5          6.5774    2.5551   -1.6810 H         1 <0>         0.1307
     24 H6          4.5712   -2.6161   -0.0539 H         1 <0>         0.1669
     25 H7          3.2956    2.0222   -0.0189 H         1 <0>         0.1462
     26 H8          1.1455    3.1844    0.0082 H         1 <0>         0.1438
     27 H9         -0.9248   -0.5584    0.0082 H         1 <0>         0.1527
     28 H10        -1.5444    2.2244    0.9048 H         1 <0>         0.4024
@<TRIPOS>BOND
     1    1    6 ar
     2    1    2 ar
     3    1   19 1
     4    2    3 ar
     5    2   20 1
     6    3    4 ar
     7    3   21 1
     8    4    5 ar
     9    4    7 1
    10    5    6 ar
    11    5   22 1
    12    6   23 1
    13    7   13 1
    14    7    8 2
    15    8    9 1
    16    8   24 1
    17    9   10 2
    18    9   11 1
    19   11   12 1
    20   12   17 ar
    21   12   13 ar
    22   13   14 ar
    23   14   15 ar
    24   14   25 1
    25   15   16 ar
    26   15   26 1
    27   16   17 ar
    28   16   18 1
    29   17   27 1
    30   18   28 1
@<TRIPOS>MOLECULE
ZINC26479960
   25    27     0     0     0
SMALL
USER_CHARGES
(4R)-6-chlorospiro[chroman-4,5'-oxazolidine]-2',4'-dione
@<TRIPOS>ATOM
      1 C1         -1.6732    5.7595   -0.8709 C.ar      1 <0>        -0.0510
      2 C2         -1.3287    5.0401    0.2554 C.ar      1 <0>        -0.1345
      3 C3         -1.0263    3.6866    0.1566 C.ar      1 <0>         0.1754
      4 C4         -1.0761    3.0599   -1.0782 C.ar      1 <0>        -0.1683
      5 C5         -1.4207    3.7866   -2.2049 C.ar      1 <0>        -0.0528
      6 C6         -1.7183    5.1328   -2.1034 C.ar      1 <0>        -0.0663
      7 Cl1        -2.1492    6.0363   -3.5218 Cl        1 <0>        -0.0557
      8 C7         -0.7617    1.5967   -1.2194 C.3       1 <0>         0.1137
      9 C8         -0.0127    1.0858    0.0080 C.3       1 <0>        -0.1572
     10 C9         -0.7423    1.5864    1.2622 C.3       1 <0>         0.0626
     11 O1         -0.6793    3.0127    1.2839 O.3       1 <0>        -0.3017
     12 C10         0.0488    1.3508   -2.4708 C.2       1 <0>         0.5170
     13 O2          1.1453    1.7953   -2.7351 O.2       1 <0>        -0.4316
     14 N1         -0.7070    0.5319   -3.2321 N.am      1 <0>        -0.6995
     15 C11        -1.8658    0.2391   -2.6284 C.2       1 <0>         0.6558
     16 O3         -2.7170   -0.4798   -3.1120 O.2       1 <0>        -0.4655
     17 O4         -1.9812    0.8310   -1.4267 O.3       1 <0>        -0.2909
     18 H1         -1.9070    6.8108   -0.7901 H         1 <0>         0.1502
     19 H2         -1.2944    5.5301    1.2172 H         1 <0>         0.1523
     20 H3         -1.4568    3.2996   -3.1682 H         1 <0>         0.1295
     21 H4          0.0042   -0.0140   -0.0043 H         1 <0>         0.1102
     22 H5          1.0185    1.4686   -0.0060 H         1 <0>         0.1171
     23 H6         -1.7915    1.2573    1.2319 H         1 <0>         0.0830
     24 H7         -0.2549    1.1754    2.1586 H         1 <0>         0.1302
     25 H8         -0.3381    0.1965   -4.2126 H         1 <0>         0.4781
@<TRIPOS>BOND
     1    1    6 ar
     2    1    2 ar
     3    1   18 1
     4    2    3 ar
     5    2   19 1
     6    3   11 1
     7    3    4 ar
     8    4    5 ar
     9    4    8 1
    10    5    6 ar
    11    5   20 1
    12    6    7 1
    13    8   17 1
    14    8    9 1
    15    8   12 1
    16    9   10 1
    17    9   21 1
    18    9   22 1
    19   10   11 1
    20   10   23 1
    21   10   24 1
    22   12   13 2
    23   12   14 am
    24   14   15 am
    25   14   25 1
    26   15   16 2
    27   15   17 1
@<TRIPOS>MOLECULE
ZINC26479967
   25    27     0     0     0
SMALL
USER_CHARGES
(4S)-6-chlorospiro[chroman-4,5'-oxazolidine]-2',4'-dione
@<TRIPOS>ATOM
      1 C1         -0.0167    1.3792    0.0096 C.ar      1 <0>        -0.0527
      2 C2          1.1698    2.0842    0.0021 C.ar      1 <0>        -0.1346
      3 C3          2.3852    1.4094   -0.0120 C.ar      1 <0>         0.1737
      4 C4          2.4020    0.0239   -0.0158 C.ar      1 <0>        -0.1715
      5 C5          1.2089   -0.6783   -0.0112 C.ar      1 <0>        -0.0509
      6 C6          0.0021   -0.0041    0.0020 C.ar      1 <0>        -0.0673
      7 Cl1        -1.4891   -0.8928    0.0085 Cl        1 <0>        -0.0559
      8 C7          3.6982   -0.7371   -0.0185 C.3       1 <0>         0.1175
      9 C8          4.8547    0.1681   -0.4323 C.3       1 <0>        -0.1565
     10 C9          4.7455    1.4818    0.3536 C.3       1 <0>         0.0576
     11 O1          3.5333    2.1355   -0.0243 O.3       1 <0>        -0.3012
     12 C10         3.9601   -1.3354    1.3443 C.2       1 <0>         0.5146
     13 O2          4.1039   -0.7421    2.3917 O.2       1 <0>        -0.4356
     14 N1          3.9996   -2.6701    1.1485 N.am      1 <0>        -0.6975
     15 C11         3.8002   -2.9785   -0.1393 C.2       1 <0>         0.6542
     16 O3          3.7906   -4.1147   -0.5684 O.2       1 <0>        -0.4635
     17 O4          3.6113   -1.8886   -0.9035 O.3       1 <0>        -0.2855
     18 H1         -0.9589    1.9069    0.0170 H         1 <0>         0.1496
     19 H2          1.1539    3.1641    0.0072 H         1 <0>         0.1522
     20 H3          1.2210   -1.7582   -0.0177 H         1 <0>         0.1331
     21 H4          5.8091   -0.3290   -0.2043 H         1 <0>         0.1055
     22 H5          4.7948    0.3691   -1.5121 H         1 <0>         0.1160
     23 H6          4.7347    1.2642    1.4318 H         1 <0>         0.0882
     24 H7          5.6075    2.1230    0.1176 H         1 <0>         0.1325
     25 H8          4.1788   -3.3455    1.9980 H         1 <0>         0.4781
@<TRIPOS>BOND
     1    1    6 ar
     2    1    2 ar
     3    1   18 1
     4    2    3 ar
     5    2   19 1
     6    3   11 1
     7    3    4 ar
     8    4    5 ar
     9    4    8 1
    10    5    6 ar
    11    5   20 1
    12    6    7 1
    13    8   17 1
    14    8    9 1
    15    8   12 1
    16    9   10 1
    17    9   21 1
    18    9   22 1
    19   10   11 1
    20   10   23 1
    21   10   24 1
    22   12   13 2
    23   12   14 am
    24   14   15 am
    25   14   25 1
    26   15   16 2
    27   15   17 1
@<TRIPOS>MOLECULE
ZINC00538652
   36    39     0     0     0
SMALL
USER_CHARGES
2-[3-[(4,5,7-trifluorobenzothiazol-2-yl)methyl]indol-1-yl]acetic acid
@<TRIPOS>ATOM
      1 C1         -1.2456    3.1385    0.0299 C.ar      1 <0>        -0.1487
      2 C2         -1.2134    1.7506    0.0173 C.ar      1 <0>        -0.1112
      3 C3         -0.0126    1.0758    0.0080 C.ar      1 <0>        -0.1120
      4 C4          1.1813    1.7901    0.0004 C.ar      1 <0>         0.1141
      5 C5          1.1432    3.1962    0.0078 C.ar      1 <0>        -0.0956
      6 C6         -0.0853    3.8597    0.0226 C.ar      1 <0>        -0.0810
      7 C7          2.5395    3.6390   -0.0030 C.2       1 <0>        -0.2161
      8 C8          3.3015    2.5339   -0.0157 C.2       1 <0>         0.1081
      9 N1          2.5074    1.4197   -0.0139 N.pl3     1 <0>        -0.4428
     10 C9          2.9953    0.0383   -0.0249 C.3       1 <0>         0.0569
     11 C10         3.0324   -0.4699   -1.4431 C.2       1 <0>         0.4490
     12 O1          2.6868    0.2480   -2.3514 O.co2     1 <0>        -0.6144
     13 C11         3.0279    5.0646   -0.0009 C.3       1 <0>         0.0468
     14 C12         3.0867    5.5734    1.4165 C.2       1 <0>         0.1897
     15 N2          4.0802    5.5109    2.2574 N.2       1 <0>        -0.5099
     16 C13         4.0043    6.0138    3.5076 C.ar      1 <0>         0.1179
     17 C14         4.9889    6.0259    4.5235 C.ar      1 <0>         0.1075
     18 C15         4.7209    6.5842    5.7497 C.ar      1 <0>         0.1068
     19 C16         3.4843    7.1523    6.0327 C.ar      1 <0>        -0.1533
     20 C17         2.5000    7.1562    5.0603 C.ar      1 <0>         0.1865
     21 C18         2.7599    6.5988    3.8296 C.ar      1 <0>        -0.2084
     22 S1          1.8443    6.3771    2.3248 S.3       1 <0>         0.0972
     23 F1          1.2922    7.7040    5.3174 F         1 <0>        -0.1150
     24 F2          5.6802    6.5816    6.7010 F         1 <0>        -0.1144
     25 F3          6.2034    5.4839    4.2855 F         1 <0>        -0.1081
     26 H1         -2.1956    3.6522    0.0410 H         1 <0>         0.1162
     27 H2         -2.1392    1.1944    0.0190 H         1 <0>         0.1194
     28 H3          0.0021   -0.0041    0.0020 H         1 <0>         0.1163
     29 H4         -0.1181    4.9392    0.0280 H         1 <0>         0.1125
     30 H5          4.3815    2.5255   -0.0261 H         1 <0>         0.1648
     31 H6          3.9985    0.0040    0.3998 H         1 <0>         0.0960
     32 H7          2.3281   -0.5874    0.5679 H         1 <0>         0.0915
     33 H8          4.0227    5.1086   -0.4442 H         1 <0>         0.1136
     34 H9          2.3439    5.6839   -0.5811 H         1 <0>         0.1066
     35 H10         3.2933    7.5863    7.0030 H         1 <0>         0.1720
     36 O2          3.4495   -1.7202   -1.6972 O.co2     1 <0>        -0.7585
@<TRIPOS>BOND
     1    1    6 ar
     2    1    2 ar
     3    1   26 1
     4    2    3 ar
     5    2   27 1
     6    3    4 ar
     7    3   28 1
     8    4    9 1
     9    4    5 ar
    10    5    6 ar
    11    5    7 1
    12    6   29 1
    13    7    8 2
    14    7   13 1
    15    8    9 1
    16    8   30 1
    17    9   10 1
    18   10   11 1
    19   10   31 1
    20   10   32 1
    21   11   12 2
    22   11   36 1
    23   13   14 1
    24   13   33 1
    25   13   34 1
    26   14   22 1
    27   14   15 2
    28   15   16 1
    29   16   21 ar
    30   16   17 ar
    31   17   18 ar
    32   17   25 1
    33   18   19 ar
    34   18   24 1
    35   19   20 ar
    36   19   35 1
    37   20   21 ar
    38   20   23 1
    39   21   22 1
@<TRIPOS>MOLECULE
ZINC11536222
   23    24     0     0     0
SMALL
USER_CHARGES
6-(4-bromophenyl)sulfonylpyridazin-3-ol
@<TRIPOS>ATOM
      1 C1         -0.0036    0.0001   -0.0093 C.ar      1 <0>        -0.0167
      2 C2         -0.0256    1.3821   -0.0074 C.ar      1 <0>        -0.1157
      3 C3          1.1612    2.0924   -0.0185 C.ar      1 <0>        -0.0439
      4 C4          2.3696    1.4193   -0.0312 C.ar      1 <0>        -0.1138
      5 C5          2.3906    0.0373   -0.0328 C.ar      1 <0>        -0.0073
      6 C6          1.2042   -0.6722   -0.0220 C.ar      1 <0>        -0.6393
      7 S1          1.2315   -2.4340   -0.0239 S.o2      1 <0>         2.6115
      8 O1          2.4884   -2.8213    0.5141 O.2       1 <0>        -0.9298
      9 O2         -0.0018   -2.8599    0.5389 O.2       1 <0>        -0.9462
     10 C7          1.2228   -2.9534   -1.7076 C.ar      1 <0>        -0.6255
     11 C8          0.0180   -3.1767   -2.3588 C.ar      1 <0>        -0.0232
     12 C9          0.0591   -3.5744   -3.6863 C.ar      1 <0>        -0.2288
     13 C10         1.3084   -3.7348   -4.2805 C.ar      1 <0>         0.3856
     14 N1          2.4046   -3.5027   -3.5764 N.ar      1 <0>        -0.3408
     15 N2          2.3607   -3.1300   -2.3490 N.ar      1 <0>        -0.0940
     16 O3          1.4013   -4.1271   -5.5762 O.3       1 <0>        -0.6649
     17 Br1         1.1320    3.9832   -0.0159 Br        1 <0>        -0.0451
     18 H1         -0.9303   -0.5547   -0.0006 H         1 <0>         0.1513
     19 H2         -0.9693    1.9073   -0.0015 H         1 <0>         0.1418
     20 H3          3.2965    1.9735   -0.0393 H         1 <0>         0.1432
     21 H4          3.3340   -0.4884   -0.0419 H         1 <0>         0.1568
     22 H5         -0.8623   -3.0589   -1.8991 H         1 <0>         0.1244
     23 H6         -0.7916   -3.7366   -4.1862 H         1 <0>         0.1204
@<TRIPOS>BOND
     1    1    6 ar
     2    1    2 ar
     3    1   18 1
     4    2    3 ar
     5    2   19 1
     6    3    4 ar
     7    3   17 1
     8    4    5 ar
     9    4   20 1
    10    5    6 ar
    11    5   21 1
    12    6    7 1
    13    7    8 2
    14    7    9 2
    15    7   10 1
    16   10   11 ar
    17   10   15 ar
    18   11   12 ar
    19   11   22 1
    20   12   13 ar
    21   12   23 1
    22   13   16 1
    23   13   14 ar
    24   14   15 ar
@<TRIPOS>MOLECULE
ZINC11536219
   23    24     0     0     0
SMALL
USER_CHARGES
6-(4-chlorophenyl)sulfonylpyridazin-3-ol
@<TRIPOS>ATOM
      1 C1         -0.0039    0.0002   -0.0098 C.ar      1 <0>        -0.0101
      2 C2         -0.0260    1.3822   -0.0081 C.ar      1 <0>        -0.1352
      3 C3          1.1611    2.0928   -0.0194 C.ar      1 <0>         0.0124
      4 C4          2.3696    1.4194   -0.0320 C.ar      1 <0>        -0.1333
      5 C5          2.3904    0.0374   -0.0342 C.ar      1 <0>        -0.0008
      6 C6          1.2039   -0.6720   -0.0228 C.ar      1 <0>        -0.6502
      7 S1          1.2313   -2.4338   -0.0244 S.o2      1 <0>         2.6128
      8 O1          2.4885   -2.8210    0.5130 O.2       1 <0>        -0.9306
      9 O2         -0.0018   -2.8596    0.5389 O.2       1 <0>        -0.9470
     10 C7          1.2219   -2.9534   -1.7080 C.ar      1 <0>        -0.6255
     11 C8          0.0168   -3.1767   -2.3588 C.ar      1 <0>        -0.0232
     12 C9          0.0574   -3.5743   -3.6863 C.ar      1 <0>        -0.2291
     13 C10         1.3064   -3.7349   -4.2810 C.ar      1 <0>         0.3856
     14 N1          2.4029   -3.5029   -3.5773 N.ar      1 <0>        -0.3411
     15 N2          2.3595   -3.1302   -2.3499 N.ar      1 <0>        -0.0942
     16 O3          1.3987   -4.1272   -5.5767 O.3       1 <0>        -0.6653
     17 Cl1         1.1342    3.8286   -0.0179 Cl        1 <0>        -0.0644
     18 H1         -0.9304   -0.5545   -0.0005 H         1 <0>         0.1515
     19 H2         -0.9697    1.9074   -0.0024 H         1 <0>         0.1423
     20 H3          3.2966    1.9736   -0.0402 H         1 <0>         0.1437
     21 H4          3.3338   -0.4884   -0.0444 H         1 <0>         0.1570
     22 H5         -0.8633   -3.0590   -1.8988 H         1 <0>         0.1243
     23 H6         -0.7935   -3.7363   -4.1860 H         1 <0>         0.1203
@<TRIPOS>BOND
     1    1    6 ar
     2    1    2 ar
     3    1   18 1
     4    2    3 ar
     5    2   19 1
     6    3    4 ar
     7    3   17 1
     8    4    5 ar
     9    4   20 1
    10    5    6 ar
    11    5   21 1
    12    6    7 1
    13    7    8 2
    14    7    9 2
    15    7   10 1
    16   10   11 ar
    17   10   15 ar
    18   11   12 ar
    19   11   22 1
    20   12   13 ar
    21   12   23 1
    22   13   16 1
    23   13   14 ar
    24   14   15 ar
@<TRIPOS>MOLECULE
ZINC03780343
   37    38     0     0     0
SMALL
USER_CHARGES

@<TRIPOS>ATOM
      1 C1          2.4337   -0.6161   -1.2464 C.3       1 <0>         0.0561
      2 N1          1.1760   -1.0005   -0.6009 N.pl3     1 <0>        -0.4647
      3 C2          1.1956   -1.8358    0.6025 C.3       1 <0>         0.0136
      4 C3          1.2610   -0.9556    1.8240 C.2       1 <0>         0.5006
      5 O1          1.2886    0.2571    1.7007 O.co2     1 <0>        -0.6791
      6 O2          1.2863   -1.4562    2.9354 O.co2     1 <0>        -0.6856
      7 C4          0.0008   -0.5856   -1.1141 C.2       1 <0>         0.3683
      8 S1         -1.4605   -0.9226   -0.2883 S.2       1 <0>        -0.5802
      9 C5         -0.0262    0.1575   -2.3849 C.ar      1 <0>        -0.0334
     10 C6          0.1653    1.5335   -2.4062 C.ar      1 <0>        -0.0908
     11 C7          0.1393    2.2316   -3.6056 C.ar      1 <0>        -0.0750
     12 C8         -0.0720    1.6062   -4.7961 C.ar      1 <0>        -0.1240
     13 C9         -0.2731    0.2166   -4.8500 C.ar      1 <0>         0.0285
     14 C10        -0.2489   -0.5377   -3.6510 C.ar      1 <0>        -0.0605
     15 C11        -0.4428   -1.9239   -3.6991 C.ar      1 <0>        -0.0158
     16 C12        -0.6474   -2.5353   -4.8989 C.ar      1 <0>        -0.2023
     17 C13        -0.6665   -1.7970   -6.0856 C.ar      1 <0>         0.1946
     18 C14        -0.4927   -0.4420   -6.0714 C.ar      1 <0>        -0.2313
     19 C15        -0.5163    0.3389   -7.3601 C.3       1 <0>         0.5200
     20 F1          0.6708    1.0685   -7.4851 F         1 <0>        -0.1789
     21 F2         -0.6365   -0.5444   -8.4384 F         1 <0>        -0.1637
     22 F3         -1.6050    1.2174   -7.3533 F         1 <0>        -0.1779
     23 O3         -0.8728   -2.4340   -7.2681 O.3       1 <0>        -0.2991
     24 C16        -1.0609   -3.8497   -7.2182 C.3       1 <0>         0.0201
     25 H1          2.7474   -1.4053   -1.9297 H         1 <0>         0.0700
     26 H2          2.2883    0.3098   -1.8029 H         1 <0>         0.0820
     27 H3          3.2011   -0.4668   -0.4869 H         1 <0>         0.0912
     28 H4          0.2902   -2.4415    0.6391 H         1 <0>         0.1126
     29 H5          2.0685   -2.4882    0.5776 H         1 <0>         0.0861
     30 H6          0.3354    2.0646   -1.4813 H         1 <0>         0.1406
     31 H7          0.2906    3.3009   -3.5941 H         1 <0>         0.1360
     32 H8         -0.0855    2.1840   -5.7084 H         1 <0>         0.1314
     33 H9         -0.4298   -2.5054   -2.7891 H         1 <0>         0.1394
     34 H10        -0.7963   -3.6044   -4.9338 H         1 <0>         0.1441
     35 H11        -1.2149   -4.2316   -8.2275 H         1 <0>         0.1051
     36 H12        -0.1782   -4.3184   -6.7832 H         1 <0>         0.0604
     37 H13        -1.9330   -4.0791   -6.6060 H         1 <0>         0.0615
@<TRIPOS>BOND
     1    1    2 1
     2    1   25 1
     3    1   26 1
     4    1   27 1
     5    2    3 1
     6    2    7 1
     7    3    4 1
     8    3   28 1
     9    3   29 1
    10    4    5 2
    11    4    6 1
    12    7    8 2
    13    7    9 1
    14    9   14 ar
    15    9   10 ar
    16   10   11 ar
    17   10   30 1
    18   11   12 ar
    19   11   31 1
    20   12   13 ar
    21   12   32 1
    22   13   18 ar
    23   13   14 ar
    24   14   15 ar
    25   15   16 ar
    26   15   33 1
    27   16   17 ar
    28   16   34 1
    29   17   18 ar
    30   17   23 1
    31   18   19 1
    32   19   20 1
    33   19   21 1
    34   19   22 1
    35   23   24 1
    36   24   35 1
    37   24   36 1
    38   24   37 1
@<TRIPOS>MOLECULE
ZINC26479654
   22    23     0     0     0
SMALL
USER_CHARGES
(4R)-6-chlorochroman-4-carboxylic acid
@<TRIPOS>ATOM
      1 C1          3.7496   -0.0053    2.9625 C.ar      1 <0>        -0.0899
      2 C2          2.5463   -0.5437    2.5538 C.ar      1 <0>        -0.1537
      3 C3          1.7781    0.1067    1.5937 C.ar      1 <0>         0.1281
      4 C4          2.2265    1.2965    1.0470 C.ar      1 <0>        -0.1185
      5 C5          3.4333    1.8339    1.4618 C.ar      1 <0>        -0.0630
      6 C6          4.1941    1.1858    2.4169 C.ar      1 <0>        -0.0740
      7 Cl1         5.7060    1.8662    2.9316 Cl        1 <0>        -0.0856
      8 C7          1.4280    2.0299   -0.0007 C.3       1 <0>        -0.0976
      9 H1          1.8834    1.8523   -0.9861 H         1 <0>         0.0872
     10 C8         -0.0187    1.5299    0.0105 C.3       1 <0>        -0.1386
     11 C9          0.0021   -0.0041    0.0020 C.3       1 <0>         0.0589
     12 O1          0.5980   -0.4532    1.2198 O.3       1 <0>        -0.3184
     13 C10         1.4502    3.5075    0.2950 C.2       1 <0>         0.4742
     14 O2          0.4158    4.0994    0.4940 O.co2     1 <0>        -0.6285
     15 O3          2.6191    4.1660    0.3372 O.co2     1 <0>        -0.7520
     16 H2          4.3435   -0.5132    3.7080 H         1 <0>         0.1306
     17 H3          2.2000   -1.4733    2.9808 H         1 <0>         0.1319
     18 H4          3.7820    2.7636    1.0369 H         1 <0>         0.1795
     19 H5         -0.5259    1.8954    0.9156 H         1 <0>         0.0834
     20 H6         -0.5433    1.9051   -0.8806 H         1 <0>         0.0815
     21 H7         -1.0271   -0.3843   -0.0761 H         1 <0>         0.1046
     22 H8          0.5900   -0.3581   -0.8577 H         1 <0>         0.0600
@<TRIPOS>BOND
     1    1    6 ar
     2    1    2 ar
     3    1   16 1
     4    2    3 ar
     5    2   17 1
     6    3   12 1
     7    3    4 ar
     8    4    5 ar
     9    4    8 1
    10    5    6 ar
    11    5   18 1
    12    6    7 1
    13    8    9 1
    14    8   10 1
    15    8   13 1
    16   10   11 1
    17   10   19 1
    18   10   20 1
    19   11   12 1
    20   11   21 1
    21   11   22 1
    22   13   14 2
    23   13   15 1
@<TRIPOS>MOLECULE
ZINC26479662
   22    23     0     0     0
SMALL
USER_CHARGES
(4S)-6-chlorochroman-4-carboxylic acid
@<TRIPOS>ATOM
      1 C1         -1.2423    3.1308    0.0301 C.ar      1 <0>        -0.0900
      2 C2         -0.0573    3.8381    0.0199 C.ar      1 <0>        -0.1534
      3 C3          1.1599    3.1652    0.0033 C.ar      1 <0>         0.1278
      4 C4          1.1789    1.7812    0.0004 C.ar      1 <0>        -0.1181
      5 C5         -0.0126    1.0758    0.0080 C.ar      1 <0>        -0.0634
      6 C6         -1.2209    1.7475    0.0173 C.ar      1 <0>        -0.0738
      7 Cl1        -2.7103    0.8557    0.0197 Cl        1 <0>        -0.0855
      8 C7          2.4764    1.0134   -0.0051 C.3       1 <0>        -0.0976
      9 H1          2.6703    0.6330    1.0086 H         1 <0>         0.0871
     10 C8          3.6170    1.9314   -0.4515 C.3       1 <0>        -0.1387
     11 C9          3.5217    3.2402    0.3430 C.3       1 <0>         0.0589
     12 O1          2.3048    3.8967   -0.0149 O.3       1 <0>        -0.3184
     13 C10         2.3668   -0.1496   -0.9573 C.2       1 <0>         0.4743
     14 O2          3.1203   -0.2331   -1.8981 O.co2     1 <0>        -0.6285
     15 O3          1.4322   -1.0926   -0.7601 O.co2     1 <0>        -0.7520
     16 H2         -2.1855    3.6566    0.0435 H         1 <0>         0.1306
     17 H3         -0.0751    4.9180    0.0252 H         1 <0>         0.1319
     18 H4          0.0021   -0.0041    0.0020 H         1 <0>         0.1795
     19 H5          4.5814    1.4402   -0.2547 H         1 <0>         0.0813
     20 H6          3.5229    2.1362   -1.5282 H         1 <0>         0.0835
     21 H7          3.5261    3.0165    1.4200 H         1 <0>         0.0599
     22 H8          4.3814    3.8812    0.0981 H         1 <0>         0.1047
@<TRIPOS>BOND
     1    1    6 ar
     2    1    2 ar
     3    1   16 1
     4    2    3 ar
     5    2   17 1
     6    3   12 1
     7    3    4 ar
     8    4    5 ar
     9    4    8 1
    10    5    6 ar
    11    5   18 1
    12    6    7 1
    13    8    9 1
    14    8   10 1
    15    8   13 1
    16   10   11 1
    17   10   19 1
    18   10   20 1
    19   11   12 1
    20   11   21 1
    21   11   22 1
    22   13   14 2
    23   13   15 1
@<TRIPOS>MOLECULE
ZINC40891656
   54    58     0     0     0
SMALL
USER_CHARGES

@<TRIPOS>ATOM
      1 C1         -0.0635    0.4260    0.1451 C.ar      1 <0>        -0.0926
      2 C2          1.0787    1.2067    0.1229 C.ar      1 <0>        -0.1228
      3 C3          2.3235    0.6128    0.1016 C.ar      1 <0>        -0.0790
      4 C4          2.4293   -0.7797    0.1023 C.ar      1 <0>        -0.0749
      5 C5          1.2724   -1.5614    0.1247 C.ar      1 <0>        -0.0800
      6 C6          0.0340   -0.9543    0.1459 C.ar      1 <0>        -0.1209
      7 C7          3.7587   -1.4226    0.0790 C.2       1 <0>         0.2073
      8 C8          3.8280   -2.7797    0.0747 C.2       1 <0>        -0.3097
      9 C9          5.0942   -3.4141    0.0520 C.2       1 <0>         0.4249
     10 O1          5.1942   -4.6302    0.0471 O.2       1 <0>        -0.4558
     11 C10         6.2851   -2.5483    0.0339 C.ar      1 <0>        -0.2870
     12 C11         7.5771   -3.0889    0.0105 C.ar      1 <0>         0.2456
     13 C12         8.6693   -2.2415   -0.0064 C.ar      1 <0>        -0.2694
     14 C13         8.4843   -0.8630   -0.0001 C.ar      1 <0>         0.2105
     15 C14         7.2086   -0.3213    0.0236 C.ar      1 <0>        -0.1820
     16 C15         6.1010   -1.1548    0.0402 C.ar      1 <0>         0.2071
     17 O2          4.8518   -0.6439    0.0573 O.3       1 <0>        -0.2158
     18 O3          9.5638   -0.0400   -0.0167 O.3       1 <0>        -0.2808
     19 C16        10.8514   -0.6592   -0.0403 C.3       1 <0>         0.0669
     20 C17        11.9197    0.4036   -0.0562 C.2       1 <0>         0.4721
     21 O4         11.6101    1.5715   -0.0482 O.2       1 <0>        -0.4645
     22 O5         13.2151    0.0528   -0.0793 O.3       1 <0>        -0.3425
     23 C18        14.1740    1.1123   -0.0934 C.3       1 <0>         0.1383
     24 C19        15.5642    0.5312   -0.1186 C.2       1 <0>         0.0741
     25 C20        16.4130    0.2992    1.0468 C.2       1 <0>         0.1885
     26 N1         17.5446   -0.2151    0.6362 N.2       1 <0>        -0.2345
     27 O6         17.4766   -0.3340   -0.7742 O.3       1 <0>         0.0571
     28 N2         16.2078    0.1468   -1.1814 N.pl3     1 <0>        -0.0020
     29 O7         15.7259    0.2013   -2.5118 O.3       1 <0>        -0.3853
     30 C21        16.0543    0.5965    2.4559 C.ar      1 <0>        -0.0656
     31 C22        14.7767    0.3041    2.9288 C.ar      1 <0>        -0.0797
     32 C23        14.4487    0.5822    4.2403 C.ar      1 <0>        -0.1155
     33 C24        15.3855    1.1502    5.0847 C.ar      1 <0>        -0.0823
     34 C25        16.6553    1.4426    4.6205 C.ar      1 <0>        -0.1163
     35 C26        16.9958    1.1637    3.3123 C.ar      1 <0>        -0.0681
     36 O8          7.7554   -4.4342    0.0048 O.3       1 <0>        -0.4728
     37 H1         -1.0356    0.8962    0.1662 H         1 <0>         0.1306
     38 H2          0.9954    2.2835    0.1221 H         1 <0>         0.1326
     39 H3          3.2142    1.2233    0.0840 H         1 <0>         0.1357
     40 H4          1.3470   -2.6389    0.1250 H         1 <0>         0.1360
     41 H5         -0.8616   -1.5577    0.1633 H         1 <0>         0.1345
     42 H6          2.9240   -3.3704    0.0889 H         1 <0>         0.1636
     43 H7          9.6686   -2.6509   -0.0241 H         1 <0>         0.1507
     44 H8          7.0775    0.7507    0.0286 H         1 <0>         0.1586
     45 H9         10.9715   -1.2818    0.8463 H         1 <0>         0.1191
     46 H10        10.9409   -1.2777   -0.9333 H         1 <0>         0.1195
     47 H11        14.0216    1.7285   -0.9794 H         1 <0>         0.1185
     48 H12        14.0522    1.7244    0.8002 H         1 <0>         0.1226
     49 H13        14.0444   -0.1390    2.2703 H         1 <0>         0.1333
     50 H14        13.4586    0.3563    4.6078 H         1 <0>         0.1380
     51 H15        15.1245    1.3666    6.1101 H         1 <0>         0.1355
     52 H16        17.3830    1.8860    5.2840 H         1 <0>         0.1381
     53 H17        17.9887    1.3886    2.9520 H         1 <0>         0.1350
     54 H18         7.7918   -4.8224   -0.8801 H         1 <0>         0.4055
@<TRIPOS>BOND
     1    1    6 ar
     2    1    2 ar
     3    1   37 1
     4    2    3 ar
     5    2   38 1
     6    3    4 ar
     7    3   39 1
     8    4    5 ar
     9    4    7 1
    10    5    6 ar
    11    5   40 1
    12    6   41 1
    13    7   17 1
    14    7    8 2
    15    8    9 1
    16    8   42 1
    17    9   10 2
    18    9   11 1
    19   11   16 ar
    20   11   12 ar
    21   12   13 ar
    22   12   36 1
    23   13   14 ar
    24   13   43 1
    25   14   15 ar
    26   14   18 1
    27   15   16 ar
    28   15   44 1
    29   16   17 1
    30   18   19 1
    31   19   20 1
    32   19   45 1
    33   19   46 1
    34   20   21 2
    35   20   22 1
    36   22   23 1
    37   23   24 1
    38   23   47 1
    39   23   48 1
    40   24   28 2
    41   24   25 1
    42   25   26 2
    43   25   30 1
    44   26   27 1
    45   27   28 1
    46   28   29 1
    47   30   35 ar
    48   30   31 ar
    49   31   32 ar
    50   31   49 1
    51   32   33 ar
    52   32   50 1
    53   33   34 ar
    54   33   51 1
    55   34   35 ar
    56   34   52 1
    57   35   53 1
    58   36   54 1
@<TRIPOS>MOLECULE
ZINC01189988
   27    28     0     0     0
SMALL
USER_CHARGES
2-[5-[(4-hydroxyphenyl)methylene]-2,4-dioxo-thiazolidin-3-yl]acetic acid
@<TRIPOS>ATOM
      1 C1          0.0143    1.3675   -0.2172 C.ar      1 <0>        -0.0680
      2 C2          0.0377    0.0219   -0.5068 C.ar      1 <0>        -0.1495
      3 C3          1.2287   -0.5912   -0.8783 C.ar      1 <0>         0.1207
      4 C4          2.4020    0.1499   -0.9600 C.ar      1 <0>        -0.1417
      5 C5          2.3902    1.4961   -0.6726 C.ar      1 <0>        -0.0771
      6 C6          1.1933    2.1190   -0.2978 C.ar      1 <0>        -0.0880
      7 C7          1.1745    3.5548    0.0094 C.2       1 <0>         0.0412
      8 C8          2.3399    4.2437    0.1045 C.2       1 <0>        -0.1801
      9 C9          2.5664    5.6972    0.2301 C.2       1 <0>         0.5588
     10 O1          1.6417    6.4879    0.2625 O.2       1 <0>        -0.4692
     11 N1          3.8248    6.0967    0.3052 N.am      1 <0>        -0.5496
     12 C10         4.8465    5.2172    0.2689 C.2       1 <0>         0.5474
     13 O2          6.0402    5.4431    0.3281 O.2       1 <0>        -0.4201
     14 S1          4.0225    3.6401    0.1198 S.3       1 <0>        -0.0671
     15 C11         4.1156    7.5270    0.4311 C.3       1 <0>         0.0471
     16 C12         4.1673    7.9026    1.8896 C.2       1 <0>         0.4591
     17 O3          3.9805    7.0617    2.7370 O.co2     1 <0>        -0.6261
     18 O4          1.2460   -1.9186   -1.1629 O.3       1 <0>        -0.4984
     19 H1         -0.9123    1.8437    0.0673 H         1 <0>         0.1380
     20 H2         -0.8710   -0.5586   -0.4450 H         1 <0>         0.1342
     21 H3          3.3245   -0.3315   -1.2492 H         1 <0>         0.1356
     22 H4          3.3024    2.0709   -0.7361 H         1 <0>         0.1424
     23 H5          0.2332    4.0625    0.1598 H         1 <0>         0.1628
     24 H6          5.0768    7.7447   -0.0345 H         1 <0>         0.1020
     25 H7          3.3333    8.1018   -0.0646 H         1 <0>         0.1060
     26 H8          1.0790   -2.1236   -2.0930 H         1 <0>         0.3927
     27 O5          4.4210    9.1712    2.2474 O.co2     1 <0>        -0.7531
@<TRIPOS>BOND
     1    1    6 ar
     2    1    2 ar
     3    1   19 1
     4    2    3 ar
     5    2   20 1
     6    3    4 ar
     7    3   18 1
     8    4    5 ar
     9    4   21 1
    10    5    6 ar
    11    5   22 1
    12    6    7 1
    13    7    8 2
    14    7   23 1
    15    8   14 1
    16    8    9 1
    17    9   10 2
    18    9   11 am
    19   11   12 am
    20   11   15 1
    21   12   13 2
    22   12   14 1
    23   15   16 1
    24   15   24 1
    25   15   25 1
    26   16   17 2
    27   16   27 1
    28   18   26 1
@<TRIPOS>MOLECULE
ZINC03869685
   32    34     0     0     0
SMALL
USER_CHARGES

@<TRIPOS>ATOM
      1 C1          0.9741   -0.2755   -0.9644 C.ar      1 <0>        -0.0748
      2 C2          2.1569    0.4329   -0.9701 C.ar      1 <0>        -0.1346
      3 C3          2.3856    1.4156   -0.0177 C.ar      1 <0>         0.1032
      4 C4          1.4203    1.6918    0.9495 C.ar      1 <0>         0.0788
      5 C5          0.2328    0.9863    0.9617 C.ar      1 <0>        -0.0762
      6 C6          0.0021   -0.0041    0.0020 C.ar      1 <0>        -0.0447
      7 C7         -1.2637   -0.7605    0.0100 C.2       1 <0>         0.1350
      8 C8         -2.4363   -0.0759    0.1235 C.2       1 <0>        -0.0429
      9 C9         -3.6628   -0.7894    0.1327 C.2       1 <0>         0.4011
     10 O1         -4.7327   -0.2102    0.2323 O.2       1 <0>        -0.4484
     11 C10        -3.5946   -2.2549    0.0170 C.ar      1 <0>        -0.2690
     12 C11        -4.7561   -3.0387    0.0170 C.ar      1 <0>         0.2244
     13 C12        -4.6504   -4.4123   -0.0941 C.ar      1 <0>        -0.2081
     14 C13        -3.3994   -5.0103   -0.2044 C.ar      1 <0>         0.2000
     15 C14        -2.2463   -4.2416   -0.2047 C.ar      1 <0>        -0.1854
     16 C15        -2.3316   -2.8618   -0.0952 C.ar      1 <0>         0.1876
     17 O2         -1.2182   -2.0992   -0.1003 O.3       1 <0>        -0.1970
     18 O3         -3.3070   -6.3605   -0.3125 O.3       1 <0>        -0.4866
     19 O4         -5.9758   -2.4535    0.1257 O.3       1 <0>        -0.4726
     20 O5         -2.4312    1.2810    0.2275 O.3       1 <0>        -0.4502
     21 O6          1.6480    2.6557    1.8815 O.3       1 <0>        -0.4836
     22 O7          3.5534    2.1101   -0.0273 O.3       1 <0>        -0.4861
     23 H1          0.7971   -1.0371   -1.7094 H         1 <0>         0.1379
     24 H2          2.9075    0.2221   -1.7176 H         1 <0>         0.1421
     25 H3         -0.5155    1.1988    1.7108 H         1 <0>         0.1429
     26 H4         -5.5413   -5.0229   -0.0948 H         1 <0>         0.1515
     27 H5         -1.2805   -4.7174   -0.2903 H         1 <0>         0.1559
     28 H6         -3.3257   -6.6843   -1.2235 H         1 <0>         0.4050
     29 H7         -6.3751   -2.2160   -0.7224 H         1 <0>         0.4036
     30 H8         -3.3120    1.6729    0.3033 H         1 <0>         0.4079
     31 H9          1.3508    3.5370    1.6166 H         1 <0>         0.3905
     32 H10         3.5287    2.9137   -0.5647 H         1 <0>         0.3924
@<TRIPOS>BOND
     1    1    6 ar
     2    1    2 ar
     3    1   23 1
     4    2    3 ar
     5    2   24 1
     6    3    4 ar
     7    3   22 1
     8    4    5 ar
     9    4   21 1
    10    5    6 ar
    11    5   25 1
    12    6    7 1
    13    7   17 1
    14    7    8 2
    15    8    9 1
    16    8   20 1
    17    9   10 2
    18    9   11 1
    19   11   16 ar
    20   11   12 ar
    21   12   13 ar
    22   12   19 1
    23   13   14 ar
    24   13   26 1
    25   14   15 ar
    26   14   18 1
    27   15   16 ar
    28   15   27 1
    29   16   17 1
    30   18   28 1
    31   19   29 1
    32   20   30 1
    33   21   31 1
    34   22   32 1
@<TRIPOS>MOLECULE
ZINC03869685
   31    33     0     0     0
SMALL
USER_CHARGES

@<TRIPOS>ATOM
      1 C1          0.1390    1.1246   -0.8120 C.ar      1 <0>        -0.0626
      2 C2          1.3229    1.8301   -0.8179 C.ar      1 <0>        -0.1333
      3 C3          2.3812    1.4233   -0.0172 C.ar      1 <0>         0.0878
      4 C4          2.2522    0.2984    0.7970 C.ar      1 <0>         0.0757
      5 C5          1.0694   -0.4139    0.8086 C.ar      1 <0>        -0.0997
      6 C6          0.0021   -0.0041    0.0020 C.ar      1 <0>        -0.0194
      7 C7         -1.2620   -0.7597    0.0100 C.2       1 <0>         0.1007
      8 C8         -2.4587   -0.0763    0.1245 C.2       1 <0>        -0.0038
      9 C9         -3.6655   -0.7872    0.1324 C.2       1 <0>         0.3349
     10 C10        -3.6167   -2.1939    0.0219 C.2       1 <0>        -0.3331
     11 C11        -4.8018   -2.9593    0.0240 C.2       1 <0>         0.2664
     12 C12        -4.7326   -4.3182   -0.0844 C.2       1 <0>        -0.3749
     13 C13        -3.4871   -4.9570   -0.1979 C.2       1 <0>         0.3648
     14 O1         -3.4307   -6.2860   -0.3033 O.2       1 <0>        -0.6598
     15 C14        -2.3054   -4.2086   -0.2016 C.2       1 <0>        -0.3143
     16 C15        -2.3616   -2.8325   -0.0921 C.2       1 <0>         0.2118
     17 O2         -1.2290   -2.0988   -0.0996 O.3       1 <0>        -0.2018
     18 O3         -6.0073   -2.3463    0.1339 O.3       1 <0>        -0.4482
     19 O4         -4.8484   -0.1420    0.2437 O.3       1 <0>        -0.5747
     20 O5         -2.4638    1.2803    0.2294 O.3       1 <0>        -0.4649
     21 O6          3.2919   -0.0973    1.5794 O.3       1 <0>        -0.4856
     22 O7          3.5458    2.1225   -0.0269 O.3       1 <0>        -0.4881
     23 H1         -0.6843    1.4460   -1.4327 H         1 <0>         0.1397
     24 H2          1.4276    2.7014   -1.4473 H         1 <0>         0.1381
     25 H3          0.9685   -1.2854    1.4384 H         1 <0>         0.1410
     26 H4         -5.6395   -4.9047   -0.0825 H         1 <0>         0.1180
     27 H5         -1.3506   -4.7057   -0.2895 H         1 <0>         0.1230
     28 H6         -6.7597   -2.9537    0.1258 H         1 <0>         0.3847
     29 H7         -3.3475    1.6656    0.3047 H         1 <0>         0.4058
     30 H8          3.2925    0.2977    2.4620 H         1 <0>         0.3855
     31 H9          3.5825    2.8346    0.6263 H         1 <0>         0.3863
@<TRIPOS>BOND
     1    1    6 ar
     2    1    2 ar
     3    1   23 1
     4    2    3 ar
     5    2   24 1
     6    3    4 ar
     7    3   22 1
     8    4    5 ar
     9    4   21 1
    10    5    6 ar
    11    5   25 1
    12    6    7 1
    13    7   17 1
    14    7    8 2
    15    8    9 1
    16    8   20 1
    17    9   10 2
    18    9   19 1
    19   10   16 1
    20   10   11 1
    21   11   12 2
    22   11   18 1
    23   12   13 1
    24   12   26 1
    25   13   14 2
    26   13   15 1
    27   15   16 2
    28   15   27 1
    29   16   17 1
    30   18   28 1
    31   20   29 1
    32   21   30 1
    33   22   31 1
@<TRIPOS>MOLECULE
ZINC03775575
   68    71     0     0     0
SMALL
NO_CHARGES

@<TRIPOS>ATOM
      1 C1         -0.1332    0.9866   -0.0935 C.3       1 <0>        -0.1195
      2 C2         -0.1527   -0.5035    0.1302 C.ar      1 <0>        -0.0470
      3 C3         -0.2460   -1.3404   -0.9367 C.ar      1 <0>        -0.1024
      4 C4         -0.2657   -2.7335   -0.7415 C.ar      1 <0>        -0.0347
      5 C5         -0.1872   -3.2551    0.5719 C.ar      1 <0>        -0.0297
      6 C6         -0.2086   -4.7079    0.7624 C.ar      1 <0>        -0.2039
      7 C7         -0.3063   -5.5287   -0.3656 C.ar      1 <0>         0.1689
      8 C8         -0.3813   -4.9639   -1.6442 C.ar      1 <0>         0.0750
      9 C9         -0.3627   -3.6149   -1.8332 C.ar      1 <0>        -0.0411
     10 C10        -0.4467   -3.0593   -3.2316 C.3       1 <0>        -0.0595
     11 C11         0.7028   -3.6182   -4.0724 C.3       1 <0>        -0.1516
     12 C12        -1.7818   -3.4621   -3.8610 C.3       1 <0>        -0.1487
     13 O1         -0.4752   -5.7829   -2.7254 O.3       1 <0>        -0.4766
     14 O2         -0.3279   -6.8761   -0.2203 O.3       1 <0>        -0.4682
     15 C13        -0.1292   -5.2865    2.1020 C.2       1 <0>         0.3607
     16 O3         -0.2442   -6.4855    2.2531 O.2       1 <0>        -0.4500
     17 C14        -0.0914   -2.3815    1.6623 C.ar      1 <0>         0.1208
     18 C15        -0.0686   -1.0082    1.4362 C.ar      1 <0>        -0.0391
     19 C16         0.0389   -0.0749    2.5810 C.ar      1 <0>        -0.0461
     20 C17         1.3026    0.3395    3.0269 C.ar      1 <0>        -0.0567
     21 C18         1.4264    1.1957    4.0752 C.ar      1 <0>        -0.1031
     22 C19         0.2795    1.6801    4.7303 C.ar      1 <0>        -0.0342
     23 C20        -1.0013    1.2694    4.2899 C.ar      1 <0>        -0.0312
     24 C21        -1.1147    0.3908    3.2051 C.ar      1 <0>         0.1359
     25 O4         -2.3383   -0.0064    2.7694 O.3       1 <0>        -0.4811
     26 C22        -2.1884    1.7809    4.9804 C.ar      1 <0>        -0.2012
     27 C23        -2.0107    2.6597    6.0536 C.ar      1 <0>         0.1673
     28 C24        -0.7222    3.0362    6.4509 C.ar      1 <0>         0.0764
     29 C25         0.3883    2.5670    5.8164 C.ar      1 <0>        -0.0431
     30 C26         1.7523    3.0037    6.2855 C.3       1 <0>        -0.0586
     31 C27         1.8520    4.5288    6.2142 C.3       1 <0>        -0.1518
     32 C28         1.9658    2.5455    7.7295 C.3       1 <0>        -0.1488
     33 O5         -0.5754    3.8922    7.4970 O.3       1 <0>        -0.4763
     34 O6         -3.0900    3.1490    6.7114 O.3       1 <0>        -0.4658
     35 C29        -3.5286    1.3817    4.5565 C.2       1 <0>         0.3587
     36 O7         -4.5042    1.8859    5.0738 O.2       1 <0>        -0.4469
     37 C30         2.5397   -0.1719    2.3347 C.3       1 <0>        -0.1187
     38 O8         -0.0154   -2.8696    2.9275 O.3       1 <0>        -0.4830
     39 H1          0.8960    1.3212   -0.2231 H         1 <0>         0.0749
     40 H2         -0.7087    1.2274   -0.9874 H         1 <0>         0.0721
     41 H3         -0.5729    1.4892    0.7680 H         1 <0>         0.0722
     42 H4         -0.3056   -0.9353   -1.9360 H         1 <0>         0.1397
     43 H5         -0.3754   -1.9722   -3.1955 H         1 <0>         0.0863
     44 H6          0.6315   -4.7053   -4.1084 H         1 <0>         0.0803
     45 H7          0.6421   -3.2163   -5.0838 H         1 <0>         0.0593
     46 H8          1.6540   -3.3312   -3.6239 H         1 <0>         0.0528
     47 H9         -1.8426   -3.0602   -4.8724 H         1 <0>         0.0667
     48 H10        -1.8532   -4.5492   -3.8971 H         1 <0>         0.0587
     49 H11        -2.6008   -3.0639   -3.2620 H         1 <0>         0.0571
     50 H12        -1.3834   -5.9991   -2.9774 H         1 <0>         0.3853
     51 H13        -1.2152   -7.2464   -0.1170 H         1 <0>         0.3976
     52 H14         0.0317   -4.6473    2.9576 H         1 <0>         0.1324
     53 H15         2.4070    1.5045    4.4061 H         1 <0>         0.1398
     54 H16        -2.6683   -0.8070    3.1998 H         1 <0>         0.3955
     55 H17         2.5156    2.5594    5.6467 H         1 <0>         0.0860
     56 H18         1.0887    4.9730    6.8530 H         1 <0>         0.0798
     57 H19         2.8385    4.8446    6.5535 H         1 <0>         0.0593
     58 H20         1.6998    4.8552    5.1854 H         1 <0>         0.0531
     59 H21         1.8948    1.4590    7.7803 H         1 <0>         0.0567
     60 H22         2.9524    2.8614    8.0688 H         1 <0>         0.0665
     61 H23         1.2025    2.9898    8.3683 H         1 <0>         0.0591
     62 H24        -0.5043    3.4545    8.3563 H         1 <0>         0.3850
     63 H25        -3.3748    2.6056    7.4588 H         1 <0>         0.3953
     64 H26        -3.6512    0.6381    3.7829 H         1 <0>         0.1327
     65 H27         2.8051    0.5020    1.5201 H         1 <0>         0.0775
     66 H28         3.3619   -0.2202    3.0487 H         1 <0>         0.0736
     67 H29         2.3470   -1.1673    1.9346 H         1 <0>         0.0662
     68 H30         0.8876   -3.0316    3.2331 H         1 <0>         0.3935
@<TRIPOS>BOND
     1    1    2 1
     2    1   39 1
     3    1   40 1
     4    1   41 1
     5    2   18 ar
     6    2    3 ar
     7    3    4 ar
     8    3   42 1
     9    4    9 ar
    10    4    5 ar
    11    5    6 ar
    12    5   17 ar
    13    6    7 ar
    14    6   15 1
    15    7    8 ar
    16    7   14 1
    17    8    9 ar
    18    8   13 1
    19    9   10 1
    20   10   11 1
    21   10   12 1
    22   10   43 1
    23   11   44 1
    24   11   45 1
    25   11   46 1
    26   12   47 1
    27   12   48 1
    28   12   49 1
    29   13   50 1
    30   14   51 1
    31   15   16 2
    32   15   52 1
    33   17   18 ar
    34   17   38 1
    35   18   19 1
    36   19   24 ar
    37   19   20 ar
    38   20   21 ar
    39   20   37 1
    40   21   22 ar
    41   21   53 1
    42   22   29 ar
    43   22   23 ar
    44   23   24 ar
    45   23   26 ar
    46   24   25 1
    47   25   54 1
    48   26   27 ar
    49   26   35 1
    50   27   28 ar
    51   27   34 1
    52   28   29 ar
    53   28   33 1
    54   29   30 1
    55   30   31 1
    56   30   32 1
    57   30   55 1
    58   31   56 1
    59   31   57 1
    60   31   58 1
    61   32   59 1
    62   32   60 1
    63   32   61 1
    64   33   62 1
    65   34   63 1
    66   35   36 2
    67   35   64 1
    68   37   65 1
    69   37   66 1
    70   37   67 1
    71   38   68 1
@<TRIPOS>MOLECULE
ZINC01533688
   33    34     0     0     0
SMALL
USER_CHARGES

@<TRIPOS>ATOM
      1 C1          1.3012    0.9079    0.3155 C.3       1 <0>        -0.1391
      2 C2          0.4991   -0.3678    0.3371 C.2       1 <0>        -0.1104
      3 C3          0.1102   -0.9030    1.5185 C.2       1 <0>        -0.0613
      4 C4          0.3142   -0.1544    2.7673 C.ar      1 <0>        -0.0665
      5 C5          0.1047    1.2288    2.8005 C.ar      1 <0>        -0.1005
      6 C6          0.2982    1.9233    3.9756 C.ar      1 <0>        -0.1223
      7 C7          0.6986    1.2562    5.1204 C.ar      1 <0>        -0.1141
      8 C8          0.9080   -0.1119    5.0960 C.ar      1 <0>        -0.1239
      9 C9          0.7133   -0.8221    3.9305 C.ar      1 <0>        -0.1016
     10 C10         0.1539   -1.0035   -0.8720 C.2       1 <0>         0.0519
     11 C11         0.4461   -0.4073   -2.0639 C.2       1 <0>        -0.2133
     12 C12         0.3055   -0.9298   -3.4359 C.2       1 <0>         0.5441
     13 O1         -0.1249   -2.0477   -3.6530 O.2       1 <0>        -0.4585
     14 N1          0.6699   -0.1233   -4.4185 N.am      1 <0>        -0.4829
     15 C13         1.1458    1.1146   -4.1737 C.2       1 <0>         0.2866
     16 S1          1.6639    2.2966   -5.2986 S.2       1 <0>        -0.3724
     17 S2          1.0972    1.2249   -2.3921 S.3       1 <0>         0.0579
     18 C14         0.5544   -0.5850   -5.8040 C.3       1 <0>         0.0079
     19 C15        -0.8060   -0.2236   -6.3422 C.2       1 <0>         0.4995
     20 O2         -1.6051    0.3651   -5.6341 O.co2     1 <0>        -0.6804
     21 O3         -1.1076   -0.5199   -7.4858 O.co2     1 <0>        -0.6790
     22 H1          1.8435    1.0120    1.2552 H         1 <0>         0.0857
     23 H2          2.0103    0.8772   -0.5118 H         1 <0>         0.0830
     24 H3          0.6299    1.7570    0.1873 H         1 <0>         0.0829
     25 H4         -0.3498   -1.8798    1.5435 H         1 <0>         0.1339
     26 H5         -0.2073    1.7508    1.9081 H         1 <0>         0.1312
     27 H6          0.1374    2.9909    4.0028 H         1 <0>         0.1251
     28 H7          0.8489    1.8061    6.0377 H         1 <0>         0.1215
     29 H8          1.2207   -0.6250    5.9935 H         1 <0>         0.1231
     30 H9          0.8724   -1.8902    3.9143 H         1 <0>         0.1255
     31 H10        -0.3420   -1.9628   -0.8553 H         1 <0>         0.1555
     32 H11         1.3238   -0.1082   -6.4112 H         1 <0>         0.1109
     33 H12         0.6830   -1.6669   -5.8383 H         1 <0>         0.1000
@<TRIPOS>BOND
     1    1    2 1
     2    1   22 1
     3    1   23 1
     4    1   24 1
     5    2    3 2
     6    2   10 1
     7    3    4 1
     8    3   25 1
     9    4    9 ar
    10    4    5 ar
    11    5    6 ar
    12    5   26 1
    13    6    7 ar
    14    6   27 1
    15    7    8 ar
    16    7   28 1
    17    8    9 ar
    18    8   29 1
    19    9   30 1
    20   10   11 2
    21   10   31 1
    22   11   17 1
    23   11   12 1
    24   12   13 2
    25   12   14 am
    26   14   15 1
    27   14   18 1
    28   15   16 2
    29   15   17 1
    30   18   19 1
    31   18   32 1
    32   18   33 1
    33   19   20 2
    34   19   21 1
@<TRIPOS>MOLECULE
ZINC00601283
   40    42     0     0     0
SMALL
USER_CHARGES

@<TRIPOS>ATOM
      1 C1         -0.0182    1.5027    0.0102 C.3       1 <0>        -0.0883
      2 C2          0.0021   -0.0042    0.0020 C.2       1 <0>         0.0711
      3 C3          0.0074   -0.7679   -1.0995 C.2       1 <0>        -0.0782
      4 C4          0.0293   -2.1662   -0.6567 C.ar      1 <0>        -0.0368
      5 C5          0.0428   -3.3917   -1.3243 C.ar      1 <0>        -0.0938
      6 C6          0.0625   -4.5656   -0.5961 C.ar      1 <0>         0.0956
      7 C7          0.0688   -4.5275    0.7953 C.ar      1 <0>        -0.1804
      8 C8          0.0551   -3.3226    1.4635 C.ar      1 <0>        -0.0946
      9 C9          0.0357   -2.1316    0.7482 C.ar      1 <0>         0.0803
     10 N1          0.0240   -0.7990    1.1223 N.am      1 <0>        -0.5123
     11 C10         0.0297   -0.3494    2.3928 C.2       1 <0>         0.6115
     12 O1         -1.0174   -0.0751    2.9450 O.2       1 <0>        -0.4412
     13 C11         1.3084   -0.1902    3.1139 C.ar      1 <0>        -0.1622
     14 C12         2.5190   -0.3985    2.4491 C.ar      1 <0>        -0.0360
     15 C13         3.7097   -0.2483    3.1279 C.ar      1 <0>        -0.1193
     16 C14         3.7070    0.1084    4.4664 C.ar      1 <0>         0.0005
     17 C15         2.5096    0.3160    5.1314 C.ar      1 <0>        -0.1284
     18 C16         1.3125    0.1750    4.4621 C.ar      1 <0>        -0.0426
     19 Cl1         5.2103    0.2955    5.3141 Cl        1 <0>        -0.0622
     20 O2          0.0753   -5.7626   -1.2410 O.3       1 <0>        -0.3182
     21 C17         0.0954   -6.9375   -0.4278 C.3       1 <0>         0.0304
     22 C18        -0.0069   -0.2812   -2.5257 C.3       1 <0>        -0.1253
     23 C19         1.4090   -0.0991   -3.0085 C.2       1 <0>         0.4982
     24 O3          2.3431   -0.3421   -2.2636 O.co2     1 <0>        -0.6866
     25 O4          1.6204    0.2911   -4.1441 O.co2     1 <0>        -0.7049
     26 H1          1.0044    1.8799    0.0025 H         1 <0>         0.0804
     27 H2         -0.5453    1.8638   -0.8729 H         1 <0>         0.0881
     28 H3         -0.5284    1.8543    0.9070 H         1 <0>         0.0568
     29 H4          0.0376   -3.4222   -2.4038 H         1 <0>         0.1332
     30 H5          0.0842   -5.4504    1.3560 H         1 <0>         0.1288
     31 H6          0.0595   -3.3039    2.5434 H         1 <0>         0.1161
     32 H7          2.5224   -0.6770    1.4056 H         1 <0>         0.1519
     33 H8          4.6464   -0.4095    2.6151 H         1 <0>         0.1453
     34 H9          2.5140    0.5936    6.1751 H         1 <0>         0.1420
     35 H10         0.3798    0.3418    4.9804 H         1 <0>         0.1449
     36 H11         0.9887   -6.9318    0.1968 H         1 <0>         0.0516
     37 H12        -0.7911   -6.9558    0.2062 H         1 <0>         0.0506
     38 H13         0.1040   -7.8210   -1.0660 H         1 <0>         0.0947
     39 H14        -0.5139   -1.0132   -3.1543 H         1 <0>         0.0698
     40 H15        -0.5343    0.6712   -2.5793 H         1 <0>         0.0692
@<TRIPOS>BOND
     1    1    2 1
     2    1   26 1
     3    1   27 1
     4    1   28 1
     5    2   10 1
     6    2    3 2
     7    3    4 1
     8    3   22 1
     9    4    9 ar
    10    4    5 ar
    11    5    6 ar
    12    5   29 1
    13    6    7 ar
    14    6   20 1
    15    7    8 ar
    16    7   30 1
    17    8    9 ar
    18    8   31 1
    19    9   10 1
    20   10   11 am
    21   11   12 2
    22   11   13 1
    23   13   18 ar
    24   13   14 ar
    25   14   15 ar
    26   14   32 1
    27   15   16 ar
    28   15   33 1
    29   16   17 ar
    30   16   19 1
    31   17   18 ar
    32   17   34 1
    33   18   35 1
    34   20   21 1
    35   21   36 1
    36   21   37 1
    37   21   38 1
    38   22   23 1
    39   22   39 1
    40   22   40 1
    41   23   24 2
    42   23   25 1
@<TRIPOS>MOLECULE
ZINC03871501
   27    29     0     0     0
SMALL
USER_CHARGES

@<TRIPOS>ATOM
      1 C1         -0.0168    1.3857    0.0097 C.ar      1 <0>        -0.1332
      2 C2          1.1363    2.1169    0.0026 C.ar      1 <0>        -0.0661
      3 C3          2.3822    1.4660   -0.0128 C.ar      1 <0>        -0.0709
      4 C4          3.5968    2.1738   -0.0211 C.ar      1 <0>        -0.0661
      5 C5          4.7823    1.4966   -0.0369 C.ar      1 <0>        -0.1332
      6 C6          4.8276    0.1074   -0.0447 C.ar      1 <0>        -0.0225
      7 C7          3.6516   -0.6280   -0.0370 C.ar      1 <0>        -0.1358
      8 C8          2.4148    0.0559   -0.0206 C.ar      1 <0>         0.0006
      9 C9          1.2107   -0.6844   -0.0131 C.ar      1 <0>        -0.1358
     10 C10         0.0021   -0.0041    0.0020 C.ar      1 <0>        -0.0226
     11 C11         1.2851   -2.1528   -0.0221 C.2       1 <0>         0.5690
     12 O1          0.2620   -2.8102   -0.0163 O.2       1 <0>        -0.4945
     13 N1          2.4799   -2.7737   -0.0372 N.am      1 <0>        -0.5259
     14 C12         3.6448   -2.0983   -0.0457 C.2       1 <0>         0.5690
     15 O2          4.6971   -2.7078   -0.0602 O.2       1 <0>        -0.4945
     16 C13         2.5136   -4.2383   -0.0458 C.3       1 <0>         0.0254
     17 C14         2.5114   -4.7325   -1.4695 C.2       1 <0>         0.4935
     18 O3          2.4841   -3.9352   -2.3915 O.co2     1 <0>        -0.6856
     19 O4          2.5368   -5.9296   -1.6993 O.co2     1 <0>        -0.6912
     20 H1         -0.9665    1.8997    0.0261 H         1 <0>         0.1351
     21 H2          1.0912    3.1960    0.0084 H         1 <0>         0.1361
     22 H3          3.5922    3.2538   -0.0153 H         1 <0>         0.1361
     23 H4          5.7074    2.0539   -0.0438 H         1 <0>         0.1351
     24 H5          5.7806   -0.4005   -0.0572 H         1 <0>         0.1443
     25 H6         -0.9265   -0.5555    0.0079 H         1 <0>         0.1443
     26 H7          3.4167   -4.5839    0.4573 H         1 <0>         0.0946
     27 H8          1.6373   -4.6250    0.4744 H         1 <0>         0.0946
@<TRIPOS>BOND
     1    1   10 ar
     2    1    2 ar
     3    1   20 1
     4    2    3 ar
     5    2   21 1
     6    3    8 ar
     7    3    4 ar
     8    4    5 ar
     9    4   22 1
    10    5    6 ar
    11    5   23 1
    12    6    7 ar
    13    6   24 1
    14    7   14 1
    15    7    8 ar
    16    8    9 ar
    17    9   10 ar
    18    9   11 1
    19   10   25 1
    20   11   12 2
    21   11   13 am
    22   13   14 am
    23   13   16 1
    24   14   15 2
    25   16   17 1
    26   16   26 1
    27   16   27 1
    28   17   18 2
    29   17   19 1
@<TRIPOS>MOLECULE
ZINC20246686
   30    31     0     0     0
SMALL
USER_CHARGES
ethyl 4-hydroxy-5-oxo-1-(2-thienylmethyl)-2H-pyrrole-3-carboxylate
@<TRIPOS>ATOM
      1 C1          2.2503   -0.4451    4.4771 C.3       1 <0>        -0.1491
      2 C2          0.9898    0.4104    4.3352 C.3       1 <0>         0.0624
      3 O1          0.6953    0.6087    2.9272 O.3       1 <0>        -0.3741
      4 C3         -0.3927    1.3469    2.6273 C.2       1 <0>         0.5376
      5 O2         -1.0762    1.8120    3.5186 O.2       1 <0>        -0.5365
      6 C4         -0.7511    1.5886    1.2264 C.2       1 <0>        -0.4651
      7 C5         -1.8074    2.3038    0.7742 C.2       1 <0>         0.2815
      8 C6         -1.8011    2.2985   -0.7047 C.2       1 <0>         0.5160
      9 O3         -2.6216    2.8542   -1.4076 O.2       1 <0>        -0.5308
     10 N1         -0.7524    1.5868   -1.1563 N.am      1 <0>        -0.6110
     11 C7         -0.0127    1.0858    0.0080 C.3       1 <0>         0.1892
     12 C8         -0.4095    1.3537   -2.5614 C.3       1 <0>         0.2149
     13 C9         -1.0892    0.0977   -3.0427 C.2       1 <0>        -0.1504
     14 C10        -2.3124   -0.0478   -3.6083 C.2       1 <0>        -0.1459
     15 C11        -2.7333   -1.3110   -3.9795 C.2       1 <0>        -0.1529
     16 C12        -1.9148   -2.3683   -3.7572 C.2       1 <0>        -0.1817
     17 S1         -0.4955   -1.5856   -3.0087 S.3       1 <0>         0.0328
     18 O4         -2.7235    2.9251    1.5518 O.3       1 <0>        -0.6131
     19 H1          2.4733   -0.5953    5.5437 H         1 <0>         0.0699
     20 H2          3.0963    0.0656    3.9939 H         1 <0>         0.0622
     21 H3          2.0874   -1.4206    3.9956 H         1 <0>         0.0623
     22 H4          0.1438   -0.1003    4.8184 H         1 <0>         0.0592
     23 H5          1.1526    1.3859    4.8167 H         1 <0>         0.0594
     24 H6          1.0172    1.4721    0.0181 H         1 <0>         0.0593
     25 H7          0.0081   -0.0139    0.0197 H         1 <0>         0.0568
     26 H8         -0.7458    2.2079   -3.1674 H         1 <0>         0.1043
     27 H9          0.6804    1.2413   -2.6591 H         1 <0>         0.0948
     28 H10        -2.9475    0.8108   -3.7691 H         1 <0>         0.1353
     29 H11        -3.7018   -1.4540   -4.4356 H         1 <0>         0.1306
     30 H12        -2.0788   -3.4132   -3.9758 H         1 <0>         0.1823
@<TRIPOS>BOND
     1    1    2 1
     2    1   19 1
     3    1   20 1
     4    1   21 1
     5    2    3 1
     6    2   22 1
     7    2   23 1
     8    3    4 1
     9    4    5 2
    10    4    6 1
    11    6   11 1
    12    6    7 2
    13    7    8 1
    14    7   18 1
    15    8    9 2
    16    8   10 am
    17   10   11 1
    18   10   12 1
    19   11   24 1
    20   11   25 1
    21   12   13 1
    22   12   26 1
    23   12   27 1
    24   13   17 1
    25   13   14 2
    26   14   15 1
    27   14   28 1
    28   15   16 2
    29   15   29 1
    30   16   17 1
    31   16   30 1
@<TRIPOS>MOLECULE
ZINC11536215
   26    27     0     0     0
SMALL
USER_CHARGES
6-(p-tolylsulfonyl)pyridazin-3-ol
@<TRIPOS>ATOM
      1 C1          3.6706    2.1972   -0.0505 C.3       1 <0>        -0.1230
      2 C2          2.3777    1.4231   -0.0355 C.ar      1 <0>        -0.0386
      3 C3          1.1700    2.0951   -0.0148 C.ar      1 <0>        -0.1460
      4 C4         -0.0161    1.3850   -0.0017 C.ar      1 <0>        -0.0193
      5 C5          0.0059    0.0029   -0.0073 C.ar      1 <0>        -0.6565
      6 C6          1.2136   -0.6692   -0.0262 C.ar      1 <0>        -0.0101
      7 C7          2.3996    0.0409   -0.0398 C.ar      1 <0>        -0.1450
      8 S1         -1.5058   -0.9022    0.0101 S.o2      1 <0>         2.6120
      9 O1         -1.2070   -2.1814    0.5519 O.2       1 <0>        -0.9350
     10 O2         -2.4862   -0.0445    0.5778 O.2       1 <0>        -0.9513
     11 C8         -1.9761   -1.1633   -1.6678 C.ar      1 <0>        -0.6239
     12 C9         -2.7785   -0.2353   -2.3162 C.ar      1 <0>        -0.0229
     13 C10        -3.1150   -0.4769   -3.6393 C.ar      1 <0>        -0.2303
     14 C11        -2.6346   -1.6420   -4.2320 C.ar      1 <0>         0.3850
     15 N1         -1.8784   -2.4713   -3.5308 N.ar      1 <0>        -0.3425
     16 N2         -1.5658   -2.2403   -2.3076 N.ar      1 <0>        -0.0951
     17 O3         -2.9402   -1.9254   -5.5234 O.3       1 <0>        -0.6677
     18 H1          3.4525    3.2754   -0.0445 H         1 <0>         0.0682
     19 H2          4.2396    1.9432   -0.9570 H         1 <0>         0.0754
     20 H3          4.2634    1.9381    0.8392 H         1 <0>         0.0748
     21 H4          1.1528    3.1750   -0.0107 H         1 <0>         0.1297
     22 H5         -0.9598    1.9102    0.0086 H         1 <0>         0.1408
     23 H6          1.2308   -1.7491   -0.0299 H         1 <0>         0.1464
     24 H7          3.3433   -0.4842   -0.0542 H         1 <0>         0.1311
     25 H8         -3.1126    0.5882   -1.8577 H         1 <0>         0.1238
     26 H9         -3.6858    0.1759   -4.1373 H         1 <0>         0.1199
@<TRIPOS>BOND
     1    1    2 1
     2    1   18 1
     3    1   19 1
     4    1   20 1
     5    2    7 ar
     6    2    3 ar
     7    3    4 ar
     8    3   21 1
     9    4    5 ar
    10    4   22 1
    11    5    6 ar
    12    5    8 1
    13    6    7 ar
    14    6   23 1
    15    7   24 1
    16    8    9 2
    17    8   10 2
    18    8   11 1
    19   11   12 ar
    20   11   16 ar
    21   12   13 ar
    22   12   25 1
    23   13   14 ar
    24   13   26 1
    25   14   17 1
    26   14   15 ar
    27   15   16 ar
@<TRIPOS>MOLECULE
ZINC20421698
   30    31     0     0     0
SMALL
USER_CHARGES
ethyl 1-(2-furylmethyl)-4-hydroxy-5-oxo-2H-pyrrole-3-carboxylate
@<TRIPOS>ATOM
      1 C1         -1.5089    8.1778    0.0577 C.3       1 <0>        -0.1490
      2 C2         -2.2552    6.8422    0.0580 C.3       1 <0>         0.0622
      3 O1         -1.2964    5.7520    0.0435 O.3       1 <0>        -0.3744
      4 C3         -1.7944    4.4987    0.0419 C.2       1 <0>         0.5376
      5 O2         -2.9971    4.3225    0.0522 O.2       1 <0>        -0.5361
      6 C4         -0.8852    3.3486    0.0276 C.2       1 <0>        -0.4655
      7 C5         -1.2367    2.0431    0.0184 C.2       1 <0>         0.2821
      8 C6         -0.0144    1.2107    0.0087 C.2       1 <0>         0.5139
      9 O3          0.0021   -0.0041    0.0020 O.2       1 <0>        -0.5264
     10 N1          1.0767    1.9980    0.0025 N.am      1 <0>        -0.6132
     11 C7          0.6249    3.3943    0.0138 C.3       1 <0>         0.1905
     12 C8          2.4689    1.5421   -0.0123 C.3       1 <0>         0.2104
     13 C9          2.9335    1.3932   -1.4382 C.2       1 <0>        -0.0240
     14 C10         3.5155    2.3524   -2.1801 C.2       1 <0>        -0.2005
     15 C11         3.7849    1.7839   -3.4463 C.2       1 <0>        -0.2188
     16 C12         3.3514    0.5113   -3.4023 C.2       1 <0>        -0.0420
     17 O4          2.8419    0.2785   -2.1817 O.3       1 <0>        -0.1661
     18 O5         -2.5051    1.5729    0.0217 O.3       1 <0>        -0.6127
     19 H1         -2.2353    9.0037    0.0687 H         1 <0>         0.0699
     20 H2         -0.8859    8.2495   -0.8460 H         1 <0>         0.0621
     21 H3         -0.8690    8.2404    0.9502 H         1 <0>         0.0622
     22 H4         -2.8782    6.7705    0.9617 H         1 <0>         0.0595
     23 H5         -2.8952    6.7795   -0.8345 H         1 <0>         0.0592
     24 H6          0.9674    3.9283   -0.8849 H         1 <0>         0.0569
     25 H7          0.9841    3.9191    0.9113 H         1 <0>         0.0601
     26 H8          3.1015    2.2788    0.5045 H         1 <0>         0.1126
     27 H9          2.5425    0.5718    0.5006 H         1 <0>         0.0970
     28 H10         3.7345    3.3631   -1.8686 H         1 <0>         0.1480
     29 H11         4.2494    2.2769   -4.2875 H         1 <0>         0.1457
     30 H12         3.4072   -0.2032   -4.2103 H         1 <0>         0.1990
@<TRIPOS>BOND
     1    1    2 1
     2    1   19 1
     3    1   20 1
     4    1   21 1
     5    2    3 1
     6    2   22 1
     7    2   23 1
     8    3    4 1
     9    4    5 2
    10    4    6 1
    11    6   11 1
    12    6    7 2
    13    7    8 1
    14    7   18 1
    15    8    9 2
    16    8   10 am
    17   10   11 1
    18   10   12 1
    19   11   24 1
    20   11   25 1
    21   12   13 1
    22   12   26 1
    23   12   27 1
    24   13   17 1
    25   13   14 2
    26   14   15 1
    27   14   28 1
    28   15   16 2
    29   15   29 1
    30   16   17 1
    31   16   30 1
@<TRIPOS>MOLECULE
ZINC25972840
   36    37     0     0     0
SMALL
USER_CHARGES
ethyl 4-hydroxy-5-oxo-1-phenethyl-2H-pyrrole-3-carboxylate
@<TRIPOS>ATOM
      1 C1         -0.7712   -4.5353    6.0072 C.3       1 <0>        -0.1491
      2 C2          0.2209   -3.3948    6.2438 C.3       1 <0>         0.0622
      3 O1          0.0339   -2.3724    5.2298 O.3       1 <0>        -0.3747
      4 C3          0.8362   -1.2904    5.2960 C.2       1 <0>         0.5371
      5 O2          1.6691   -1.2044    6.1773 O.2       1 <0>        -0.5368
      6 C4          0.7038   -0.2180    4.3052 C.2       1 <0>        -0.4676
      7 C5          1.4330    0.9191    4.2457 C.2       1 <0>         0.2808
      8 C6          0.9783    1.7284    3.0945 C.2       1 <0>         0.5124
      9 O3          1.4380    2.8065    2.7749 O.2       1 <0>        -0.5345
     10 N1         -0.0203    1.0939    2.4537 N.am      1 <0>        -0.6151
     11 C7         -0.2782   -0.1675    3.1581 C.3       1 <0>         0.1902
     12 C8         -0.7288    1.5792    1.2668 C.3       1 <0>         0.1429
     13 C9         -0.0127    1.0858    0.0080 C.3       1 <0>        -0.1033
     14 C10        -0.7416    1.5850   -1.2129 C.ar      1 <0>        -0.0724
     15 C11        -1.7499    0.8246   -1.7750 C.ar      1 <0>        -0.1167
     16 C12        -2.4217    1.2848   -2.8921 C.ar      1 <0>        -0.1209
     17 C13        -2.0785    2.5007   -3.4529 C.ar      1 <0>        -0.1293
     18 C14        -1.0663    3.2585   -2.8942 C.ar      1 <0>        -0.1194
     19 C15        -0.3980    2.8008   -1.7740 C.ar      1 <0>        -0.1144
     20 O4          2.4210    1.2623    5.1036 O.3       1 <0>        -0.6143
     21 H1         -0.6295   -5.3098    6.7754 H         1 <0>         0.0699
     22 H2         -0.5990   -4.9704    5.0117 H         1 <0>         0.0621
     23 H3         -1.7983   -4.1456    6.0645 H         1 <0>         0.0621
     24 H4          0.0487   -2.9597    7.2393 H         1 <0>         0.0592
     25 H5          1.2480   -3.7844    6.1866 H         1 <0>         0.0592
     26 H6         -0.1140   -1.0309    2.4966 H         1 <0>         0.0563
     27 H7         -1.3046   -0.1978    3.5525 H         1 <0>         0.0567
     28 H8         -1.7608    1.1985    1.2746 H         1 <0>         0.0778
     29 H9         -0.7437    2.6791    1.2728 H         1 <0>         0.0795
     30 H10         1.0193    1.4666    0.0002 H         1 <0>         0.0787
     31 H11         0.0023   -0.0141    0.0019 H         1 <0>         0.0780
     32 H12        -2.0153   -0.1273   -1.3392 H         1 <0>         0.1225
     33 H13        -3.2122    0.6925   -3.3288 H         1 <0>         0.1194
     34 H14        -2.6009    2.8585   -4.3278 H         1 <0>         0.1178
     35 H15        -0.7979    4.2083   -3.3326 H         1 <0>         0.1198
     36 H16         0.3927    3.3928   -1.3375 H         1 <0>         0.1238
@<TRIPOS>BOND
     1    1    2 1
     2    1   21 1
     3    1   22 1
     4    1   23 1
     5    2    3 1
     6    2   24 1
     7    2   25 1
     8    3    4 1
     9    4    5 2
    10    4    6 1
    11    6   11 1
    12    6    7 2
    13    7    8 1
    14    7   20 1
    15    8    9 2
    16    8   10 am
    17   10   11 1
    18   10   12 1
    19   11   26 1
    20   11   27 1
    21   12   13 1
    22   12   28 1
    23   12   29 1
    24   13   14 1
    25   13   30 1
    26   13   31 1
    27   14   19 ar
    28   14   15 ar
    29   15   16 ar
    30   15   32 1
    31   16   17 ar
    32   16   33 1
    33   17   18 ar
    34   17   34 1
    35   18   19 ar
    36   18   35 1
    37   19   36 1
@<TRIPOS>MOLECULE
ZINC11536216
   27    28     0     0     0
SMALL
USER_CHARGES
6-(4-methoxyphenyl)sulfonylpyridazin-3-ol
@<TRIPOS>ATOM
      1 C1         -0.0454    1.0706    0.0065 C.3       1 <0>         0.0197
      2 O1         -0.7099    1.5330    1.1841 O.3       1 <0>        -0.3139
      3 C2         -0.1715    1.1716    2.3784 C.ar      1 <0>         0.1736
      4 C3          0.9696    0.3834    2.4162 C.ar      1 <0>        -0.2306
      5 C4          1.5184    0.0226    3.6315 C.ar      1 <0>         0.0268
      6 C5          0.9245    0.4361    4.8097 C.ar      1 <0>        -0.6881
      7 C6         -0.2161    1.2169    4.7748 C.ar      1 <0>         0.0154
      8 C7         -0.7653    1.5856    3.5619 C.ar      1 <0>        -0.1745
      9 S1          1.6225   -0.0324    6.3582 S.o2      1 <0>         2.6158
     10 O2          2.9960   -0.3068    6.1182 O.2       1 <0>        -0.9361
     11 O3          1.1933    0.9350    7.3065 O.2       1 <0>        -0.9514
     12 C8          0.8778   -1.5597    6.8246 C.ar      1 <0>        -0.6240
     13 C9         -0.2852   -1.5622    7.5815 C.ar      1 <0>        -0.0228
     14 C10        -0.8416   -2.7871    7.9164 C.ar      1 <0>        -0.2304
     15 C11        -0.1922   -3.9394    7.4804 C.ar      1 <0>         0.3850
     16 N1          0.9170   -3.8370    6.7660 N.ar      1 <0>        -0.3432
     17 N2          1.4253   -2.7003    6.4546 N.ar      1 <0>        -0.0958
     18 O4         -0.6950   -5.1620    7.7864 O.3       1 <0>        -0.6681
     19 H1         -0.5816    1.4325   -0.8832 H         1 <0>         0.1032
     20 H2         -0.0290   -0.0293    0.0026 H         1 <0>         0.0610
     21 H3          0.9861    1.4527   -0.0065 H         1 <0>         0.0601
     22 H4          1.4311    0.0562    1.4963 H         1 <0>         0.1373
     23 H5          2.4096   -0.5866    3.6615 H         1 <0>         0.1496
     24 H6         -0.6778    1.5393    5.6964 H         1 <0>         0.1486
     25 H7         -1.6560    2.1958    3.5352 H         1 <0>         0.1391
     26 H8         -0.7218   -0.7151    7.8845 H         1 <0>         0.1241
     27 H9         -1.6835   -2.8234    8.4549 H         1 <0>         0.1198
@<TRIPOS>BOND
     1    1    2 1
     2    1   19 1
     3    1   20 1
     4    1   21 1
     5    2    3 1
     6    3    8 ar
     7    3    4 ar
     8    4    5 ar
     9    4   22 1
    10    5    6 ar
    11    5   23 1
    12    6    7 ar
    13    6    9 1
    14    7    8 ar
    15    7   24 1
    16    8   25 1
    17    9   10 2
    18    9   11 2
    19    9   12 1
    20   12   13 ar
    21   12   17 ar
    22   13   14 ar
    23   13   26 1
    24   14   15 ar
    25   14   27 1
    26   15   18 1
    27   15   16 ar
    28   16   17 ar
@<TRIPOS>MOLECULE
ZINC11536236
   23    24     0     0     0
SMALL
USER_CHARGES
6-(benzenesulfonyl)pyridazin-3-ol
@<TRIPOS>ATOM
      1 C1          1.1677    3.1599    0.0289 C.ar      1 <0>        -0.0713
      2 C2          1.1832    1.7777    0.0175 C.ar      1 <0>        -0.1451
      3 C3         -0.0061    1.0731    0.0194 C.ar      1 <0>        -0.0243
      4 C4         -1.2109    1.7506    0.0267 C.ar      1 <0>        -0.6507
      5 C5         -1.2265    3.1328    0.0421 C.ar      1 <0>        -0.0149
      6 C6         -0.0372    3.8375    0.0411 C.ar      1 <0>        -0.1433
      7 S1         -2.7268    0.8525    0.0219 S.o2      1 <0>         2.6115
      8 O1         -3.7119    1.7214   -0.5204 O.2       1 <0>        -0.9343
      9 O2         -2.4423   -0.4214   -0.5399 O.2       1 <0>        -0.9507
     10 C7         -3.1724    0.5733    1.7035 C.ar      1 <0>        -0.6242
     11 C8         -2.7355   -0.5704    2.3566 C.ar      1 <0>        -0.0229
     12 C9         -3.1019   -0.7435    3.6825 C.ar      1 <0>        -0.2302
     13 C10        -3.8946    0.2373    4.2733 C.ar      1 <0>         0.3851
     14 N1         -4.2670    1.2931    3.5675 N.ar      1 <0>        -0.3424
     15 N2         -3.9209    1.4507    2.3417 N.ar      1 <0>        -0.0950
     16 O3         -4.2832    0.1112    5.5672 O.3       1 <0>        -0.6672
     17 H1          2.0967    3.7105    0.0278 H         1 <0>         0.1273
     18 H2          2.1245    1.2484    0.0076 H         1 <0>         0.1301
     19 H3          0.0062   -0.0068    0.0105 H         1 <0>         0.1406
     20 H4         -2.1678    3.6623    0.0513 H         1 <0>         0.1463
     21 H5         -0.0493    4.9174    0.0497 H         1 <0>         0.1316
     22 H6         -2.1727   -1.2590    1.8994 H         1 <0>         0.1239
     23 H7         -2.7974   -1.5535    4.1837 H         1 <0>         0.1200
@<TRIPOS>BOND
     1    1    6 ar
     2    1    2 ar
     3    1   17 1
     4    2    3 ar
     5    2   18 1
     6    3    4 ar
     7    3   19 1
     8    4    5 ar
     9    4    7 1
    10    5    6 ar
    11    5   20 1
    12    6   21 1
    13    7    8 2
    14    7    9 2
    15    7   10 1
    16   10   11 ar
    17   10   15 ar
    18   11   12 ar
    19   11   22 1
    20   12   13 ar
    21   12   23 1
    22   13   16 1
    23   13   14 ar
    24   14   15 ar
@<TRIPOS>MOLECULE
ZINC25971863
   30    31     0     0     0
SMALL
USER_CHARGES
methyl 1-benzyl-4-hydroxy-5-oxo-2H-pyrrole-3-carboxylate
@<TRIPOS>ATOM
      1 C1         -4.8417   -0.7829    0.0453 C.3       1 <0>         0.0392
      2 O1         -3.4792   -1.2846    0.0292 O.3       1 <0>        -0.3773
      3 C2         -2.4895   -0.3685    0.0243 C.2       1 <0>         0.5354
      4 O2         -2.7585    0.8170    0.0331 O.2       1 <0>        -0.5361
      5 C3         -1.0892   -0.8023    0.0081 C.2       1 <0>        -0.4671
      6 C4          0.0021   -0.0041    0.0020 C.2       1 <0>         0.2814
      7 C5          1.2188   -0.8443   -0.0205 C.2       1 <0>         0.5143
      8 O3          2.3578   -0.4220   -0.0356 O.2       1 <0>        -0.5335
      9 N1          0.8776   -2.1458   -0.0178 N.am      1 <0>        -0.6098
     10 C6         -0.5877   -2.2275   -0.0043 C.3       1 <0>         0.1905
     11 C7          1.8043   -3.2803   -0.0331 C.3       1 <0>         0.1715
     12 C8          2.1085   -3.6612   -1.4591 C.ar      1 <0>        -0.1035
     13 C9          1.3244   -4.5975   -2.1067 C.ar      1 <0>        -0.1034
     14 C10         1.6002   -4.9430   -3.4165 C.ar      1 <0>        -0.1264
     15 C11         2.6668   -4.3603   -4.0751 C.ar      1 <0>        -0.1218
     16 C12         3.4544   -3.4282   -3.4256 C.ar      1 <0>        -0.1243
     17 C13         3.1751   -3.0785   -2.1177 C.ar      1 <0>        -0.0962
     18 O4         -0.0163    1.3486    0.0095 O.3       1 <0>        -0.6144
     19 H1         -5.5441   -1.6294    0.0477 H         1 <0>         0.0862
     20 H2         -5.0154   -0.1648   -0.8479 H         1 <0>         0.0516
     21 H3         -4.9977   -0.1744    0.9483 H         1 <0>         0.0518
     22 H4         -0.9466   -2.7503    0.8945 H         1 <0>         0.0577
     23 H5         -0.9637   -2.7407   -0.9017 H         1 <0>         0.0555
     24 H6          2.7367   -2.9990    0.4782 H         1 <0>         0.0879
     25 H7          1.3457   -4.1354    0.4850 H         1 <0>         0.0869
     26 H8          0.4938   -5.0560   -1.5908 H         1 <0>         0.1218
     27 H9          0.9847   -5.6710   -3.9240 H         1 <0>         0.1194
     28 H10         2.8846   -4.6330   -5.0971 H         1 <0>         0.1177
     29 H11         4.2877   -2.9730   -3.9401 H         1 <0>         0.1196
     30 H12         3.7905   -2.3503   -1.6103 H         1 <0>         0.1257
@<TRIPOS>BOND
     1    1    2 1
     2    1   19 1
     3    1   20 1
     4    1   21 1
     5    2    3 1
     6    3    4 2
     7    3    5 1
     8    5   10 1
     9    5    6 2
    10    6    7 1
    11    6   18 1
    12    7    8 2
    13    7    9 am
    14    9   10 1
    15    9   11 1
    16   10   22 1
    17   10   23 1
    18   11   12 1
    19   11   24 1
    20   11   25 1
    21   12   17 ar
    22   12   13 ar
    23   13   14 ar
    24   13   26 1
    25   14   15 ar
    26   14   27 1
    27   15   16 ar
    28   15   28 1
    29   16   17 ar
    30   16   29 1
    31   17   30 1
@<TRIPOS>MOLECULE
ZINC00538211
   35    37     0     0     0
SMALL
USER_CHARGES

@<TRIPOS>ATOM
      1 C1         -0.0165    1.3627    0.0095 C.ar      1 <0>        -0.0929
      2 C2          1.1654    2.0924    0.0022 C.ar      1 <0>        -0.1289
      3 C3          2.3861    1.4540   -0.0134 C.ar      1 <0>        -0.0568
      4 C4          2.4294    0.0605   -0.0213 C.ar      1 <0>        -0.1348
      5 C5          1.2244   -0.6786   -0.0133 C.ar      1 <0>        -0.0423
      6 C6          0.0021   -0.0041    0.0020 C.ar      1 <0>        -0.1011
      7 C7          1.3000   -2.1396   -0.0224 C.2       1 <0>         0.1202
      8 N1          2.4575   -2.7306   -0.0371 N.2       1 <0>        -0.1227
      9 N2          3.6626   -2.0276   -0.0452 N.am      1 <0>        -0.4387
     10 C8          3.6977   -0.6787   -0.0384 C.2       1 <0>         0.5198
     11 O1          4.7616   -0.0856   -0.0461 O.2       1 <0>        -0.5442
     12 C9          4.9232   -2.7737   -0.0618 C.3       1 <0>         0.1765
     13 C10         5.3696   -3.0372    1.3533 C.ar      1 <0>        -0.1367
     14 C11         6.3386   -2.2394    1.9323 C.ar      1 <0>        -0.0601
     15 C12         6.7481   -2.4801    3.2301 C.ar      1 <0>        -0.1184
     16 C13         6.1890   -3.5202    3.9512 C.ar      1 <0>        -0.0564
     17 C14         5.2199   -4.3196    3.3736 C.ar      1 <0>        -0.1435
     18 C15         4.8051   -4.0748    2.0754 C.ar      1 <0>         0.1436
     19 F1          3.8543   -4.8517    1.5118 F         1 <0>        -0.0845
     20 Br1         6.7507   -3.8489    5.7267 Br        1 <0>        -0.0474
     21 C16         0.0356   -2.9595   -0.0143 C.3       1 <0>        -0.1331
     22 C17         0.3870   -4.4249   -0.0262 C.2       1 <0>         0.4871
     23 O2          1.5559   -4.7714   -0.0401 O.co2     1 <0>        -0.6424
     24 O3         -0.4975   -5.2640   -0.0221 O.co2     1 <0>        -0.7075
     25 H1         -0.9631    1.8823    0.0259 H         1 <0>         0.1295
     26 H2          1.1269    3.1717    0.0083 H         1 <0>         0.1292
     27 H3          3.3010    2.0277   -0.0197 H         1 <0>         0.1369
     28 H4         -0.9242   -0.5594    0.0075 H         1 <0>         0.1398
     29 H5          4.7775   -3.7219   -0.5793 H         1 <0>         0.1108
     30 H6          5.6841   -2.1901   -0.5800 H         1 <0>         0.1048
     31 H7          6.7761   -1.4277    1.3701 H         1 <0>         0.1442
     32 H8          7.5053   -1.8562    3.6816 H         1 <0>         0.1367
     33 H9          4.7839   -5.1320    3.9360 H         1 <0>         0.1450
     34 H10        -0.5398   -2.7311    0.8829 H         1 <0>         0.0838
     35 H11        -0.5578   -2.7210   -0.8970 H         1 <0>         0.0846
@<TRIPOS>BOND
     1    1    6 ar
     2    1    2 ar
     3    1   25 1
     4    2    3 ar
     5    2   26 1
     6    3    4 ar
     7    3   27 1
     8    4   10 1
     9    4    5 ar
    10    5    6 ar
    11    5    7 1
    12    6   28 1
    13    7    8 2
    14    7   21 1
    15    8    9 1
    16    9   10 am
    17    9   12 1
    18   10   11 2
    19   12   13 1
    20   12   29 1
    21   12   30 1
    22   13   18 ar
    23   13   14 ar
    24   14   15 ar
    25   14   31 1
    26   15   16 ar
    27   15   32 1
    28   16   17 ar
    29   16   20 1
    30   17   18 ar
    31   17   33 1
    32   18   19 1
    33   21   22 1
    34   21   34 1
    35   21   35 1
    36   22   23 2
    37   22   24 1
@<TRIPOS>MOLECULE
ZINC26495007
   25    26     0     0     0
SMALL
USER_CHARGES
(4S)-6-chloro-8-methyl-chroman-4-carboxylic acid
@<TRIPOS>ATOM
      1 C1         -0.0899    4.1190   -0.7163 C.3       1 <0>        -0.0937
      2 C2          1.1943    3.4204   -0.3505 C.ar      1 <0>        -0.1234
      3 C3          2.3852    4.1177   -0.3667 C.ar      1 <0>        -0.0892
      4 C4          3.5649    3.4776   -0.0313 C.ar      1 <0>        -0.0726
      5 C5          3.5494    2.1400    0.3177 C.ar      1 <0>        -0.0310
      6 C6          2.3573    1.4359    0.3339 C.ar      1 <0>        -0.1164
      7 C7          1.1753    2.0750    0.0020 C.ar      1 <0>         0.1304
      8 O1         -0.0173    1.4241    0.0099 O.3       1 <0>        -0.3161
      9 C8          0.0021   -0.0041    0.0020 C.3       1 <0>         0.0586
     10 C9          0.9703   -0.4803    1.0926 C.3       1 <0>        -0.1323
     11 C10         2.3815   -0.0225    0.7158 C.3       1 <0>        -0.0956
     12 H1          2.7556   -0.6086   -0.1366 H         1 <0>         0.0866
     13 C11         3.3028   -0.2176    1.8923 C.2       1 <0>         0.4707
     14 O2          3.8770    0.7303    2.3736 O.co2     1 <0>        -0.6220
     15 O3          3.4855   -1.4444    2.4054 O.co2     1 <0>        -0.7612
     16 Cl1         5.0637    4.3533   -0.0488 Cl        1 <0>        -0.0869
     17 H2          0.1219    5.1697   -0.9638 H         1 <0>         0.0599
     18 H3         -0.7860    4.0758    0.1344 H         1 <0>         0.0662
     19 H4         -0.5429    3.6215   -1.5865 H         1 <0>         0.0648
     20 H5          2.3961    5.1624   -0.6407 H         1 <0>         0.1301
     21 H6          4.4714    1.6420    0.5793 H         1 <0>         0.1455
     22 H7         -1.0097   -0.3856    0.2038 H         1 <0>         0.1047
     23 H8          0.3389   -0.3608   -0.9826 H         1 <0>         0.0611
     24 H9          0.6775   -0.0437    2.0589 H         1 <0>         0.0727
     25 H10         0.9353   -1.5776    1.1604 H         1 <0>         0.0893
@<TRIPOS>BOND
     1    1    2 1
     2    1   17 1
     3    1   18 1
     4    1   19 1
     5    2    7 ar
     6    2    3 ar
     7    3    4 ar
     8    3   20 1
     9    4    5 ar
    10    4   16 1
    11    5    6 ar
    12    5   21 1
    13    6   11 1
    14    6    7 ar
    15    7    8 1
    16    8    9 1
    17    9   10 1
    18    9   22 1
    19    9   23 1
    20   10   11 1
    21   10   24 1
    22   10   25 1
    23   11   12 1
    24   11   13 1
    25   13   14 2
    26   13   15 1
@<TRIPOS>MOLECULE
ZINC26495009
   25    26     0     0     0
SMALL
USER_CHARGES
(4R)-6-chloro-8-methyl-chroman-4-carboxylic acid
@<TRIPOS>ATOM
      1 C1         -0.0127    1.0858    0.0080 C.3       1 <0>        -0.0937
      2 C2         -0.7181    1.5718    1.2479 C.ar      1 <0>        -0.1235
      3 C3         -2.0809    1.7881    1.2236 C.ar      1 <0>        -0.0890
      4 C4         -2.7303    2.2308    2.3621 C.ar      1 <0>        -0.0727
      5 C5         -2.0117    2.4647    3.5198 C.ar      1 <0>        -0.0310
      6 C6         -0.6438    2.2521    3.5481 C.ar      1 <0>        -0.1164
      7 C7          0.0076    1.8063    2.4112 C.ar      1 <0>         0.1305
      8 O1          1.3490    1.5912    2.3925 O.3       1 <0>        -0.3161
      9 C8          2.0232    1.4711    3.6459 C.3       1 <0>         0.0586
     10 C9          1.6006    2.6462    4.5370 C.3       1 <0>        -0.1323
     11 C10         0.1043    2.5126    4.8309 C.3       1 <0>        -0.0956
     12 H1         -0.0732    1.6769    5.5237 H         1 <0>         0.0866
     13 C11        -0.3999    3.7882    5.4553 C.2       1 <0>         0.4707
     14 O2         -1.2735    4.4223    4.9125 O.co2     1 <0>        -0.6220
     15 O3          0.1215    4.2199    6.6144 O.co2     1 <0>        -0.7612
     16 Cl1        -4.4451    2.4996    2.3349 Cl        1 <0>        -0.0869
     17 H2         -0.7441    0.9581   -0.8037 H         1 <0>         0.0599
     18 H3          0.4747    0.1222    0.2174 H         1 <0>         0.0649
     19 H4          0.7461    1.8224   -0.2947 H         1 <0>         0.0662
     20 H5         -2.6406    1.6083    0.3175 H         1 <0>         0.1301
     21 H6         -2.5198    2.8146    4.4063 H         1 <0>         0.1457
     22 H7          1.7457    0.5190    4.1217 H         1 <0>         0.0610
     23 H8          3.1105    1.4955    3.4812 H         1 <0>         0.1047
     24 H9          2.1733    2.6190    5.4757 H         1 <0>         0.0893
     25 H10         1.7992    3.5932    4.0137 H         1 <0>         0.0727
@<TRIPOS>BOND
     1    1    2 1
     2    1   17 1
     3    1   18 1
     4    1   19 1
     5    2    7 ar
     6    2    3 ar
     7    3    4 ar
     8    3   20 1
     9    4    5 ar
    10    4   16 1
    11    5    6 ar
    12    5   21 1
    13    6   11 1
    14    6    7 ar
    15    7    8 1
    16    8    9 1
    17    9   10 1
    18    9   22 1
    19    9   23 1
    20   10   11 1
    21   10   24 1
    22   10   25 1
    23   11   12 1
    24   11   13 1
    25   13   14 2
    26   13   15 1
@<TRIPOS>MOLECULE
ZINC26498982
   30    32     0     0     0
SMALL
USER_CHARGES
(4R)-6-methoxyspiro[chroman-4,5'-imidazolidine]-2',4'-dione
@<TRIPOS>ATOM
      1 C1          2.6673    2.1623    5.9318 C.3       1 <0>         0.0224
      2 O1          1.8403    2.3960    4.7901 O.3       1 <0>        -0.3154
      3 C2          2.2896    1.9260    3.5958 C.ar      1 <0>         0.1020
      4 C3          3.5012    1.2541    3.5248 C.ar      1 <0>        -0.1558
      5 C4          3.9549    0.7810    2.3110 C.ar      1 <0>        -0.1060
      6 C5          3.2032    0.9744    1.1570 C.ar      1 <0>         0.1199
      7 C6          1.9917    1.6420    1.2286 C.ar      1 <0>        -0.1309
      8 C7          1.5386    2.1177    2.4477 C.ar      1 <0>        -0.0982
      9 C8          1.1526    1.8612    0.0010 C.3       1 <0>         0.1546
     10 C9          1.9802    1.6520   -1.2634 C.3       1 <0>        -0.1583
     11 C10         2.7738    0.3470   -1.1097 C.3       1 <0>         0.0663
     12 O2          3.6856    0.4982   -0.0211 O.3       1 <0>        -0.3077
     13 C11         0.5504    3.2470    0.0140 C.2       1 <0>         0.5349
     14 O3          1.1427    4.3048    0.0139 O.2       1 <0>        -0.4542
     15 N1         -0.7857    3.0589    0.0253 N.am      1 <0>        -0.6948
     16 C12        -1.1004    1.7578    0.0161 C.2       1 <0>         0.7230
     17 O4         -2.2411    1.3383    0.0187 O.2       1 <0>        -0.5393
     18 N2         -0.0111    0.9658    0.0074 N.am      1 <0>        -0.7260
     19 H1          2.1891    2.5910    6.8248 H         1 <0>         0.1044
     20 H2          3.6478    2.6364    5.7775 H         1 <0>         0.0584
     21 H3          2.8015    1.0795    6.0718 H         1 <0>         0.0579
     22 H4          4.0884    1.1018    4.4184 H         1 <0>         0.1410
     23 H5          4.8981    0.2578    2.2566 H         1 <0>         0.1417
     24 H6          0.5954    2.6409    2.5035 H         1 <0>         0.1263
     25 H7          1.3103    1.5858   -2.1333 H         1 <0>         0.1019
     26 H8          2.6693    2.4992   -1.3950 H         1 <0>         0.1051
     27 H9          2.0801   -0.4822   -0.9066 H         1 <0>         0.0682
     28 H10         3.3273    0.1429   -2.0381 H         1 <0>         0.1232
     29 H11        -1.4630    3.9255    0.0401 H         1 <0>         0.4668
     30 H12         0.1339   -0.1246    0.0046 H         1 <0>         0.4686
@<TRIPOS>BOND
     1    1    2 1
     2    1   19 1
     3    1   20 1
     4    1   21 1
     5    2    3 1
     6    3    8 ar
     7    3    4 ar
     8    4    5 ar
     9    4   22 1
    10    5    6 ar
    11    5   23 1
    12    6   12 1
    13    6    7 ar
    14    7    8 ar
    15    7    9 1
    16    8   24 1
    17    9   18 1
    18    9   10 1
    19    9   13 1
    20   10   11 1
    21   10   25 1
    22   10   26 1
    23   11   12 1
    24   11   27 1
    25   11   28 1
    26   13   14 2
    27   13   15 am
    28   15   16 am
    29   15   29 1
    30   16   17 2
    31   16   18 am
    32   18   30 1
@<TRIPOS>MOLECULE
ZINC26498986
   30    32     0     0     0
SMALL
USER_CHARGES
(4S)-6-methoxyspiro[chroman-4,5'-imidazolidine]-2',4'-dione
@<TRIPOS>ATOM
      1 C1         -2.3751    0.0595    0.0207 C.3       1 <0>         0.0225
      2 O1         -1.1655   -0.7012    0.0072 O.3       1 <0>        -0.3156
      3 C2          0.0021   -0.0041    0.0020 C.ar      1 <0>         0.0983
      4 C3         -0.0167    1.3830    0.0096 C.ar      1 <0>        -0.1558
      5 C4          1.1698    2.0866    0.0021 C.ar      1 <0>        -0.1078
      6 C5          2.3858    1.4119   -0.0144 C.ar      1 <0>         0.1246
      7 C6          2.4044    0.0269   -0.0191 C.ar      1 <0>        -0.1377
      8 C7          1.2124   -0.6778   -0.0114 C.ar      1 <0>        -0.0985
      9 C8          3.7018   -0.7319   -0.0288 C.3       1 <0>         0.1565
     10 C9          4.8552    0.1748   -0.4474 C.3       1 <0>        -0.1528
     11 C10         4.7485    1.4870    0.3417 C.3       1 <0>         0.0561
     12 O2          3.5336    2.1398   -0.0290 O.3       1 <0>        -0.3078
     13 C11         3.9710   -1.3324    1.3317 C.2       1 <0>         0.5320
     14 O3          4.1196   -0.7403    2.3790 O.2       1 <0>        -0.4581
     15 N1          4.0110   -2.6666    1.1348 N.am      1 <0>        -0.6933
     16 C12         3.8057   -2.9817   -0.1500 C.2       1 <0>         0.7217
     17 O4          3.7957   -4.1209   -0.5733 O.2       1 <0>        -0.5383
     18 N2          3.6114   -1.8944   -0.9209 N.am      1 <0>        -0.7236
     19 H1         -3.2376   -0.6232    0.0236 H         1 <0>         0.1040
     20 H2         -2.4163    0.6986   -0.8737 H         1 <0>         0.0579
     21 H3         -2.4025    0.6887    0.9225 H         1 <0>         0.0577
     22 H4         -0.9588    1.9112    0.0170 H         1 <0>         0.1403
     23 H5          1.1544    3.1665    0.0087 H         1 <0>         0.1414
     24 H6          1.2264   -1.7577   -0.0162 H         1 <0>         0.1309
     25 H7          5.8112   -0.3219   -0.2254 H         1 <0>         0.0970
     26 H8          4.7893    0.3775   -1.5266 H         1 <0>         0.1027
     27 H9          4.7434    1.2673    1.4195 H         1 <0>         0.0836
     28 H10         5.6086    2.1297    0.1026 H         1 <0>         0.1221
     29 H11         4.1956   -3.3424    1.9828 H         1 <0>         0.4665
     30 H12         3.4170   -1.7504   -1.9940 H         1 <0>         0.4735
@<TRIPOS>BOND
     1    1    2 1
     2    1   19 1
     3    1   20 1
     4    1   21 1
     5    2    3 1
     6    3    8 ar
     7    3    4 ar
     8    4    5 ar
     9    4   22 1
    10    5    6 ar
    11    5   23 1
    12    6   12 1
    13    6    7 ar
    14    7    8 ar
    15    7    9 1
    16    8   24 1
    17    9   18 1
    18    9   10 1
    19    9   13 1
    20   10   11 1
    21   10   25 1
    22   10   26 1
    23   11   12 1
    24   11   27 1
    25   11   28 1
    26   13   14 2
    27   13   15 am
    28   15   16 am
    29   15   29 1
    30   16   17 2
    31   16   18 am
    32   18   30 1
