@<TRIPOS>MOLECULE
ZINC00538557
   40    43     0     0     0
SMALL
USER_CHARGES
2-[4-oxo-3-[[5-(trifluoromethyl)benzothiazol-2-yl]methyl]phthalazin-1-yl]acetic acid
@<TRIPOS>ATOM
      1 C1          0.0515    4.2341    0.0251 C.ar      1 <0>        -0.0906
      2 C2         -1.1651    3.5640    0.0327 C.ar      1 <0>        -0.1257
      3 C3         -1.2097    2.1870    0.0311 C.ar      1 <0>        -0.0553
      4 C4         -0.0178    1.4639    0.0101 C.ar      1 <0>        -0.1331
      5 C5          1.2183    2.1497    0.0020 C.ar      1 <0>        -0.0432
      6 C6          1.2323    3.5457    0.0097 C.ar      1 <0>        -0.0990
      7 C7          2.4532    1.3653   -0.0140 C.2       1 <0>         0.1253
      8 N1          2.3985    0.0668   -0.0204 N.2       1 <0>        -0.1321
      9 N2          1.1938   -0.6368   -0.0127 N.am      1 <0>        -0.4399
     10 C8          0.0021   -0.0041    0.0020 C.2       1 <0>         0.5209
     11 O1         -1.0375   -0.6389    0.0081 O.2       1 <0>        -0.5340
     12 C9          1.2235   -2.1015   -0.0204 C.3       1 <0>         0.2214
     13 C10         1.2198   -2.5965   -1.4438 C.2       1 <0>         0.1329
     14 N3          2.2398   -2.8364   -2.2189 N.2       1 <0>        -0.4661
     15 C11         2.0992   -3.2855   -3.4835 C.ar      1 <0>         0.0805
     16 C12         3.0968   -3.5925   -4.4354 C.ar      1 <0>         0.0020
     17 C13         2.7594   -4.0324   -5.6777 C.ar      1 <0>        -0.1769
     18 C14         1.4343   -4.1951   -6.0576 C.ar      1 <0>        -0.0626
     19 C15         0.4286   -3.9050   -5.1550 C.ar      1 <0>        -0.0620
     20 C16         0.7591   -3.4605   -3.8978 C.ar      1 <0>        -0.1409
     21 S1         -0.1443   -2.9774   -2.4482 S.3       1 <0>         0.0636
     22 C17         3.8515   -4.3504   -6.6663 C.3       1 <0>         0.5123
     23 F1          3.2810   -4.7814   -7.8688 F         1 <0>        -0.1763
     24 F2          4.6186   -3.2037   -6.8986 F         1 <0>        -0.1720
     25 F3          4.6687   -5.3613   -6.1491 F         1 <0>        -0.1738
     26 C18         3.7888    2.0632   -0.0234 C.3       1 <0>        -0.1064
     27 C19         4.8919    1.0366   -0.0398 C.2       1 <0>         0.4557
     28 O2          4.6212   -0.1410   -0.0435 O.co2     1 <0>        -0.5905
     29 H1          0.0647    5.3140    0.0311 H         1 <0>         0.1314
     30 H2         -2.0859    4.1283    0.0449 H         1 <0>         0.1310
     31 H3         -2.1592    1.6725    0.0416 H         1 <0>         0.1389
     32 H4          2.1714    4.0791    0.0032 H         1 <0>         0.1421
     33 H5          2.1256   -2.4493    0.4829 H         1 <0>         0.1381
     34 H6          0.3460   -2.4854    0.5000 H         1 <0>         0.1252
     35 H7          4.1383   -3.4767   -4.1741 H         1 <0>         0.1482
     36 H8          1.1912   -4.5452   -7.0499 H         1 <0>         0.1524
     37 H9         -0.6073   -4.0261   -5.4355 H         1 <0>         0.1452
     38 H10         3.8641    2.6916   -0.9108 H         1 <0>         0.0930
     39 H11         3.8817    2.6821    0.8690 H         1 <0>         0.0945
     40 O3          6.1751    1.4303   -0.0504 O.co2     1 <0>        -0.7740
@<TRIPOS>BOND
     1    1    6 ar
     2    1    2 ar
     3    1   29 1
     4    2    3 ar
     5    2   30 1
     6    3    4 ar
     7    3   31 1
     8    4   10 1
     9    4    5 ar
    10    5    6 ar
    11    5    7 1
    12    6   32 1
    13    7    8 2
    14    7   26 1
    15    8    9 1
    16    9   10 am
    17    9   12 1
    18   10   11 2
    19   12   13 1
    20   12   33 1
    21   12   34 1
    22   13   21 1
    23   13   14 2
    24   14   15 1
    25   15   20 ar
    26   15   16 ar
    27   16   17 ar
    28   16   35 1
    29   17   18 ar
    30   17   22 1
    31   18   19 ar
    32   18   36 1
    33   19   20 ar
    34   19   37 1
    35   20   21 1
    36   22   23 1
    37   22   24 1
    38   22   25 1
    39   26   27 1
    40   26   38 1
    41   26   39 1
    42   27   28 2
    43   27   40 1
@<TRIPOS>MOLECULE
ZINC00596737
   36    38     0     0     0
SMALL
USER_CHARGES
2-[3-[(4-bromo-2-fluoro-phenyl)methyl]-7-chloro-2,4-dioxo-quinazolin-1-yl]acetic acid
@<TRIPOS>ATOM
      1 C1          0.3311    5.1927    2.9649 C.ar      1 <0>        -0.1614
      2 C2         -0.6668    4.4229    3.5242 C.ar      1 <0>        -0.0009
      3 C3         -1.0081    3.2078    2.9351 C.ar      1 <0>        -0.2048
      4 C4         -0.3336    2.7707    1.7808 C.ar      1 <0>         0.2401
      5 C5          0.6626    3.5596    1.2289 C.ar      1 <0>        -0.1556
      6 C6          0.9926    4.7635    1.8231 C.ar      1 <0>         0.0371
      7 Cl1         2.2458    5.7476    1.1341 Cl        1 <0>        -0.0566
      8 N1         -0.6984    1.5583    1.2133 N.am      1 <0>        -0.5072
      9 C7         -1.6712    0.8104    1.7622 C.2       1 <0>         0.7084
     10 O1         -1.9578   -0.2480    1.2370 O.2       1 <0>        -0.5330
     11 N2         -2.3399    1.1823    2.8649 N.am      1 <0>        -0.5541
     12 C8         -2.0660    2.3467    3.4920 C.2       1 <0>         0.5643
     13 O2         -2.6771    2.6761    4.4904 O.2       1 <0>        -0.4857
     14 C9         -3.3871    0.3079    3.3989 C.3       1 <0>         0.1527
     15 C10        -2.7821   -0.6532    4.3896 C.ar      1 <0>        -0.1341
     16 C11        -2.4971   -1.9508    4.0081 C.ar      1 <0>        -0.0533
     17 C12        -1.9379   -2.8314    4.9148 C.ar      1 <0>        -0.1081
     18 C13        -1.6724   -2.4181    6.2083 C.ar      1 <0>        -0.0571
     19 C14        -1.9617   -1.1220    6.5931 C.ar      1 <0>        -0.1379
     20 C15        -2.5171   -0.2381    5.6835 C.ar      1 <0>         0.1280
     21 F1         -2.8007    1.0285    6.0584 F         1 <0>        -0.1068
     22 Br1        -0.9145   -3.6261    7.4501 Br        1 <0>        -0.0402
     23 C16        -0.0127    1.0858    0.0080 C.3       1 <0>         0.0628
     24 C17        -0.7416    1.5850   -1.2129 C.2       1 <0>         0.4560
     25 O3         -1.7322    2.2656   -1.0889 O.co2     1 <0>        -0.6211
     26 H1          0.5993    6.1357    3.4180 H         1 <0>         0.1433
     27 H2         -1.1799    4.7596    4.4129 H         1 <0>         0.1511
     28 H3          1.1826    3.2331    0.3403 H         1 <0>         0.1514
     29 H4         -4.1464    0.9118    3.8957 H         1 <0>         0.1128
     30 H5         -3.8444   -0.2516    2.5828 H         1 <0>         0.1176
     31 H6         -2.7080   -2.2757    3.0000 H         1 <0>         0.1514
     32 H7         -1.7117   -3.8439    4.6147 H         1 <0>         0.1419
     33 H8         -1.7550   -0.7992    7.6028 H         1 <0>         0.1453
     34 H9          0.0021   -0.0041    0.0020 H         1 <0>         0.1087
     35 H10         1.0099    1.4631    0.0003 H         1 <0>         0.0986
     36 O4         -0.2903    1.2736   -2.4381 O.co2     1 <0>        -0.7535
@<TRIPOS>BOND
     1    1    6 ar
     2    1    2 ar
     3    1   26 1
     4    2    3 ar
     5    2   27 1
     6    3   12 1
     7    3    4 ar
     8    4    5 ar
     9    4    8 1
    10    5    6 ar
    11    5   28 1
    12    6    7 1
    13    8    9 am
    14    8   23 1
    15    9   10 2
    16    9   11 am
    17   11   12 am
    18   11   14 1
    19   12   13 2
    20   14   15 1
    21   14   29 1
    22   14   30 1
    23   15   20 ar
    24   15   16 ar
    25   16   17 ar
    26   16   31 1
    27   17   18 ar
    28   17   32 1
    29   18   19 ar
    30   18   22 1
    31   19   20 ar
    32   19   33 1
    33   20   21 1
    34   23   24 1
    35   23   34 1
    36   23   35 1
    37   24   25 2
    38   24   36 1
@<TRIPOS>MOLECULE
ZINC01237945
   25    26     0     0     0
SMALL
USER_CHARGES
2-(7-hydroxy-2-oxo-chromen-4-yl)acetamide
@<TRIPOS>ATOM
      1 C1         -3.4952    3.5545    3.6712 C.ar      1 <0>        -0.1632
      2 C2         -2.7811    3.4241    2.5152 C.ar      1 <0>        -0.0385
      3 C3         -3.3788    3.7383    1.2896 C.ar      1 <0>        -0.1514
      4 C4         -2.6352    3.6136    0.0342 C.2       1 <0>         0.0475
      5 C5         -3.2691    3.9397   -1.1222 C.2       1 <0>        -0.2347
      6 C6         -4.6052    4.3887   -1.0872 C.2       1 <0>         0.5130
      7 O1         -5.1616    4.6778   -2.1314 O.2       1 <0>        -0.4586
      8 O2         -5.2796    4.5062    0.0674 O.3       1 <0>        -0.2690
      9 C7         -4.7084    4.1987    1.2516 C.ar      1 <0>         0.1673
     10 C8         -5.4190    4.3256    2.4353 C.ar      1 <0>        -0.1630
     11 C9         -4.8134    4.0044    3.6394 C.ar      1 <0>         0.1667
     12 O3         -5.5104    4.1288    4.7976 O.3       1 <0>        -0.4909
     13 C10        -1.2077    3.1306    0.0248 C.3       1 <0>        -0.1180
     14 C11        -1.1873    1.6238    0.0165 C.2       1 <0>         0.5195
     15 O4         -2.2293    1.0032    0.0181 O.2       1 <0>        -0.5277
     16 N1         -0.0111    0.9658    0.0074 N.am      1 <0>        -0.8527
     17 H1         -3.0353    3.3075    4.6166 H         1 <0>         0.1427
     18 H2         -1.7596    3.0749    2.5460 H         1 <0>         0.1385
     19 H3         -2.7510    3.8550   -2.0661 H         1 <0>         0.1649
     20 H4         -6.4411    4.6741    2.4189 H         1 <0>         0.1522
     21 H5         -5.9945    3.3315    5.0529 H         1 <0>         0.4022
     22 H6         -0.6947    3.4961    0.9144 H         1 <0>         0.1195
     23 H7         -0.7031    3.5057   -0.8656 H         1 <0>         0.1224
     24 H8          0.0021   -0.0041    0.0020 H         1 <0>         0.4071
     25 H9          0.8223    1.4622    0.0021 H         1 <0>         0.4043
@<TRIPOS>BOND
     1    1   11 ar
     2    1    2 ar
     3    1   17 1
     4    2    3 ar
     5    2   18 1
     6    3    9 ar
     7    3    4 1
     8    4    5 2
     9    4   13 1
    10    5    6 1
    11    5   19 1
    12    6    7 2
    13    6    8 1
    14    8    9 1
    15    9   10 ar
    16   10   11 ar
    17   10   20 1
    18   11   12 1
    19   12   21 1
    20   13   14 1
    21   13   22 1
    22   13   23 1
    23   14   15 2
    24   14   16 am
    25   16   24 1
    26   16   25 1
@<TRIPOS>MOLECULE
ZINC00153920
   23    24     0     0     0
SMALL
USER_CHARGES
2-(7-hydroxy-2-oxo-chromen-4-yl)acetic acid
@<TRIPOS>ATOM
      1 C1         -1.2355    2.0276    0.0189 C.ar      1 <0>        -0.1677
      2 C2         -1.2707    3.3921    0.0320 C.ar      1 <0>        -0.0261
      3 C3         -0.0747    4.1185    0.0240 C.ar      1 <0>        -0.1398
      4 C4         -0.0821    5.5829    0.0324 C.2       1 <0>         0.0852
      5 C5          1.1119    6.2307    0.0249 C.2       1 <0>        -0.2755
      6 C6          2.3116    5.4900    0.0095 C.2       1 <0>         0.5186
      7 O1          3.3752    6.0835    0.0029 O.2       1 <0>        -0.4816
      8 O2          2.3117    4.1478    0.0022 O.3       1 <0>        -0.2758
      9 C7          1.1600    3.4429    0.0090 C.ar      1 <0>         0.1605
     10 C8          1.1774    2.0566    0.0019 C.ar      1 <0>        -0.1677
     11 C9         -0.0163    1.3533    0.0095 C.ar      1 <0>         0.1530
     12 O3          0.0021   -0.0041    0.0020 O.3       1 <0>        -0.4943
     13 C10        -1.3790    6.3503    0.0484 C.3       1 <0>        -0.1458
     14 C11        -1.8613    6.4919    1.4691 C.2       1 <0>         0.4704
     15 O4         -1.2180    6.0183    2.3756 O.co2     1 <0>        -0.6254
     16 H1         -2.1586    1.4671    0.0203 H         1 <0>         0.1390
     17 H2         -2.2186    3.9094    0.0431 H         1 <0>         0.1451
     18 H3          1.1422    7.3103    0.0312 H         1 <0>         0.1589
     19 H4          2.1184    1.5267   -0.0093 H         1 <0>         0.1460
     20 H5          0.0158   -0.4021    0.8832 H         1 <0>         0.3962
     21 H6         -1.2213    7.3392   -0.3821 H         1 <0>         0.0939
     22 H7         -2.1257    5.8140   -0.5371 H         1 <0>         0.0908
     23 O5         -3.0057    7.1442    1.7274 O.co2     1 <0>        -0.7578
@<TRIPOS>BOND
     1    1   11 ar
     2    1    2 ar
     3    1   16 1
     4    2    3 ar
     5    2   17 1
     6    3    9 ar
     7    3    4 1
     8    4    5 2
     9    4   13 1
    10    5    6 1
    11    5   18 1
    12    6    7 2
    13    6    8 1
    14    8    9 1
    15    9   10 ar
    16   10   11 ar
    17   10   19 1
    18   11   12 1
    19   12   20 1
    20   13   14 1
    21   13   21 1
    22   13   22 1
    23   14   15 2
    24   14   23 1
@<TRIPOS>MOLECULE
ZINC36175376
   28    29     0     0     0
SMALL
USER_CHARGES

@<TRIPOS>ATOM
      1 C1         -0.0187    1.5258    0.0104 C.3       1 <0>        -0.1472
      2 C2          0.0021   -0.0041    0.0020 C.3       1 <0>        -0.0850
      3 C3         -1.4117   -0.5257    0.0127 C.ar      1 <0>        -0.0390
      4 C4         -2.0465   -0.7645    1.2233 C.ar      1 <0>        -0.1437
      5 C5         -3.3285   -1.2370    1.2529 C.ar      1 <0>        -0.0384
      6 C6         -4.0050   -1.4815    0.0538 C.ar      1 <0>        -0.1335
      7 C7         -5.3809   -1.9880    0.0514 C.2       1 <0>         0.0942
      8 C8         -5.9819   -2.2042   -1.1460 C.2       1 <0>        -0.2837
      9 C9         -5.2791   -1.9406   -2.3417 C.2       1 <0>         0.5183
     10 O1         -5.8297   -2.1388   -3.4096 O.2       1 <0>        -0.4871
     11 O2         -4.0199   -1.4767   -2.3314 O.3       1 <0>        -0.2776
     12 C10        -3.3652   -1.2409   -1.1746 C.ar      1 <0>         0.1455
     13 C11        -2.0635   -0.7555   -1.1807 C.ar      1 <0>        -0.1387
     14 C12        -6.1075   -2.2613    1.3430 C.3       1 <0>        -0.1724
     15 C13        -5.7611   -3.6443    1.8313 C.2       1 <0>         0.5024
     16 O3         -4.9951   -4.3432    1.1899 O.co2     1 <0>        -0.6810
     17 O4         -6.2468   -4.0643    2.8677 O.co2     1 <0>        -0.6893
     18 H1          1.0039    1.9031    0.0027 H         1 <0>         0.0580
     19 H2         -0.5459    1.8868   -0.8726 H         1 <0>         0.0568
     20 H3         -0.5289    1.8773    0.9072 H         1 <0>         0.0574
     21 H4          0.5123   -0.3556   -0.8948 H         1 <0>         0.0751
     22 H5          0.5293   -0.3651    0.8851 H         1 <0>         0.0771
     23 H6         -1.5234   -0.5758    2.1491 H         1 <0>         0.1303
     24 H7         -3.8169   -1.4211    2.1984 H         1 <0>         0.1383
     25 H8         -6.9947   -2.5773   -1.1841 H         1 <0>         0.1555
     26 H9         -1.5620   -0.5625   -2.1175 H         1 <0>         0.1378
     27 H10        -5.8086   -1.5266    2.0906 H         1 <0>         0.0837
     28 H11        -7.1826   -2.1935    1.1765 H         1 <0>         0.0863
@<TRIPOS>BOND
     1    1    2 1
     2    1   18 1
     3    1   19 1
     4    1   20 1
     5    2    3 1
     6    2   21 1
     7    2   22 1
     8    3   13 ar
     9    3    4 ar
    10    4    5 ar
    11    4   23 1
    12    5    6 ar
    13    5   24 1
    14    6   12 ar
    15    6    7 1
    16    7    8 2
    17    7   14 1
    18    8    9 1
    19    8   25 1
    20    9   10 2
    21    9   11 1
    22   11   12 1
    23   12   13 ar
    24   13   26 1
    25   14   15 1
    26   14   27 1
    27   14   28 1
    28   15   16 2
    29   15   17 1
@<TRIPOS>MOLECULE
ZINC36175378
   27    28     0     0     0
SMALL
USER_CHARGES

@<TRIPOS>ATOM
      1 C1          0.0590    1.4266    0.0518 C.3       1 <0>         0.0243
      2 O1          0.0664   -0.0023    0.0377 O.3       1 <0>        -0.3102
      3 C2          0.6548   -0.6051   -1.0271 C.ar      1 <0>         0.1778
      4 C3          1.2195    0.1720   -2.0365 C.ar      1 <0>        -0.2281
      5 C4          1.8149   -0.4209   -3.1129 C.ar      1 <0>        -0.0075
      6 C5          1.8583   -1.8141   -3.2029 C.ar      1 <0>        -0.1775
      7 C6          2.4952   -2.4795   -4.3535 C.2       1 <0>         0.0929
      8 C7          2.5023   -3.8624   -4.3775 C.2       1 <0>        -0.2932
      9 C8          1.9083   -4.5774   -3.3152 C.2       1 <0>         0.5178
     10 O2          1.9180   -5.7948   -3.3416 O.2       1 <0>        -0.4766
     11 O3          1.3337   -3.9514   -2.2771 O.3       1 <0>        -0.2767
     12 C9          1.2909   -2.6048   -2.1890 C.ar      1 <0>         0.1888
     13 C10         0.6941   -1.9876   -1.0989 C.ar      1 <0>        -0.1784
     14 C11         3.1038   -1.6972   -5.4426 C.2       1 <0>        -0.1560
     15 C12         3.7826   -2.3239   -6.4251 C.2       1 <0>        -0.1121
     16 C13         4.4844   -1.5403   -7.4461 C.2       1 <0>         0.5019
     17 O4          4.4543   -0.3173   -7.4069 O.co2     1 <0>        -0.6816
     18 O5          5.1005   -2.1091   -8.3378 O.co2     1 <0>        -0.6814
     19 H1          1.0846    1.7954    0.0363 H         1 <0>         0.0606
     20 H2         -0.4732    1.7959   -0.8248 H         1 <0>         0.0605
     21 H3         -0.4400    1.7784    0.9548 H         1 <0>         0.1028
     22 H4          1.1859    1.2492   -1.9673 H         1 <0>         0.1405
     23 H5          2.2509    0.1858   -3.8927 H         1 <0>         0.1496
     24 H6          2.9581   -4.3905   -5.2020 H         1 <0>         0.1638
     25 H7          0.2582   -2.5835   -0.3107 H         1 <0>         0.1495
     26 H8          3.0066   -0.6217   -5.4545 H         1 <0>         0.1390
     27 H9          3.8092   -3.4030   -6.4597 H         1 <0>         0.1095
@<TRIPOS>BOND
     1    1    2 1
     2    1   19 1
     3    1   20 1
     4    1   21 1
     5    2    3 1
     6    3   13 ar
     7    3    4 ar
     8    4    5 ar
     9    4   22 1
    10    5    6 ar
    11    5   23 1
    12    6   12 ar
    13    6    7 1
    14    7    8 2
    15    7   14 1
    16    8    9 1
    17    8   24 1
    18    9   10 2
    19    9   11 1
    20   11   12 1
    21   12   13 ar
    22   13   25 1
    23   14   15 2
    24   14   26 1
    25   15   16 1
    26   15   27 1
    27   16   17 2
    28   16   18 1
@<TRIPOS>MOLECULE
ZINC03158095
   28    30     0     0     0
SMALL
USER_CHARGES
2-(oxoBLAHyl)acetic acid
@<TRIPOS>ATOM
      1 C1         -1.3087    1.8905   -0.2396 C.ar      1 <0>        -0.1243
      2 C2         -0.1136    1.1826   -0.1762 C.ar      1 <0>        -0.0997
      3 C3          1.0863    1.8335   -0.1242 C.ar      1 <0>        -0.1096
      4 C4          1.1372    3.2277   -0.1158 C.ar      1 <0>         0.0174
      5 C5         -0.0913    3.9368   -0.0246 C.ar      1 <0>        -0.0791
      6 C6         -1.3063    3.2511   -0.1746 C.ar      1 <0>        -0.0939
      7 C7         -0.0801    5.3148    0.2657 C.ar      1 <0>        -0.0505
      8 C8          1.0891    5.9917    0.3636 C.ar      1 <0>        -0.1324
      9 C9          2.3161    5.3679    0.1240 C.ar      1 <0>         0.1587
     10 C10         2.3699    4.0037   -0.2157 C.ar      1 <0>        -0.1169
     11 C11         3.5912    3.5012   -0.7134 C.2       1 <0>         0.0900
     12 C12         4.7354    4.2154   -0.4930 C.2       1 <0>        -0.2917
     13 C13         4.6530    5.5172    0.0353 C.2       1 <0>         0.5113
     14 O1          5.6705    6.1383    0.2815 O.2       1 <0>        -0.4897
     15 O2          3.4558    6.0792    0.2632 O.3       1 <0>        -0.2687
     16 C14         3.6997    2.2280   -1.5110 C.3       1 <0>        -0.1525
     17 C15         3.1961    2.4678   -2.9109 C.2       1 <0>         0.4746
     18 O3          2.7906    3.5609   -3.2282 O.co2     1 <0>        -0.6263
     19 H1         -2.2427    1.3600   -0.3404 H         1 <0>         0.1251
     20 H2         -0.1308    0.1028   -0.1866 H         1 <0>         0.1275
     21 H3          1.9809    1.2363   -0.0264 H         1 <0>         0.1335
     22 H4         -2.2367    3.7977   -0.2209 H         1 <0>         0.1299
     23 H5         -1.0144    5.8379    0.4017 H         1 <0>         0.1414
     24 H6          1.0726    7.0376    0.6328 H         1 <0>         0.1417
     25 H7          5.6906    3.7996   -0.7738 H         1 <0>         0.1569
     26 H8          4.7418    1.9108   -1.5490 H         1 <0>         0.0906
     27 H9          3.1003    1.4505   -1.0374 H         1 <0>         0.0953
     28 O4          3.1979    1.4670   -3.8055 O.co2     1 <0>        -0.7585
@<TRIPOS>BOND
     1    1    6 ar
     2    1    2 ar
     3    1   19 1
     4    2    3 ar
     5    2   20 1
     6    3    4 ar
     7    3   21 1
     8    4   10 ar
     9    4    5 ar
    10    5    6 ar
    11    5    7 ar
    12    6   22 1
    13    7    8 ar
    14    7   23 1
    15    8    9 ar
    16    8   24 1
    17    9   15 1
    18    9   10 ar
    19   10   11 1
    20   11   12 2
    21   11   16 1
    22   12   13 1
    23   12   25 1
    24   13   14 2
    25   13   15 1
    26   16   17 1
    27   16   26 1
    28   16   27 1
    29   17   18 2
    30   17   28 1
@<TRIPOS>MOLECULE
ZINC03869768
   31    33     0     0     0
SMALL
USER_CHARGES

@<TRIPOS>ATOM
      1 C1          0.9745   -0.2752   -0.9649 C.ar      1 <0>        -0.0474
      2 C2          2.1550    0.4346   -0.9693 C.ar      1 <0>        -0.1488
      3 C3          2.3800    1.4188   -0.0145 C.ar      1 <0>         0.1280
      4 C4          1.4162    1.6917    0.9485 C.ar      1 <0>        -0.1504
      5 C5          0.2327    0.9869    0.9606 C.ar      1 <0>        -0.0665
      6 C6          0.0021   -0.0041    0.0020 C.ar      1 <0>        -0.0625
      7 C7         -1.2634   -0.7608    0.0105 C.2       1 <0>         0.1356
      8 C8         -1.2167   -2.1184   -0.0957 C.2       1 <0>        -0.0454
      9 C9         -2.4259   -2.8610   -0.0886 C.2       1 <0>         0.4007
     10 O1         -2.4232   -4.0781   -0.1814 O.2       1 <0>        -0.4492
     11 C10        -3.6832   -2.1065    0.0355 C.ar      1 <0>        -0.2689
     12 C11        -4.9234   -2.7585    0.0517 C.ar      1 <0>         0.2243
     13 C12        -6.0821   -2.0144    0.1703 C.ar      1 <0>        -0.2086
     14 C13        -6.0155   -0.6287    0.2722 C.ar      1 <0>         0.1994
     15 C14        -4.7926    0.0230    0.2564 C.ar      1 <0>        -0.1859
     16 C15        -3.6188   -0.7060    0.1392 C.ar      1 <0>         0.1873
     17 O2         -2.4200   -0.0864    0.1283 O.3       1 <0>        -0.1981
     18 O3         -7.1599    0.0925    0.3877 O.3       1 <0>        -0.4869
     19 O4         -4.9864   -4.1104   -0.0487 O.3       1 <0>        -0.4727
     20 O5         -0.0202   -2.7570   -0.2082 O.3       1 <0>        -0.4492
     21 O6          3.5454    2.1157   -0.0224 O.3       1 <0>        -0.4978
     22 H1          0.7987   -1.0369   -1.7101 H         1 <0>         0.1366
     23 H2          2.9071    0.2256   -1.7157 H         1 <0>         0.1375
     24 H3          1.5954    2.4572    1.6889 H         1 <0>         0.1366
     25 H4         -0.5157    1.1995    1.7097 H         1 <0>         0.1340
     26 H5         -7.0416   -2.5100    0.1835 H         1 <0>         0.1512
     27 H6         -4.7536    1.0994    0.3359 H         1 <0>         0.1553
     28 H7         -7.4448    0.2345    1.3008 H         1 <0>         0.4049
     29 H8         -4.9577   -4.5698    0.8018 H         1 <0>         0.4037
     30 H9         -0.0926   -3.7187   -0.2778 H         1 <0>         0.4073
     31 H10         3.5195    2.9194   -0.5594 H         1 <0>         0.3958
@<TRIPOS>BOND
     1    1    6 ar
     2    1    2 ar
     3    1   22 1
     4    2    3 ar
     5    2   23 1
     6    3    4 ar
     7    3   21 1
     8    4    5 ar
     9    4   24 1
    10    5    6 ar
    11    5   25 1
    12    6    7 1
    13    7   17 1
    14    7    8 2
    15    8    9 1
    16    8   20 1
    17    9   10 2
    18    9   11 1
    19   11   16 ar
    20   11   12 ar
    21   12   13 ar
    22   12   19 1
    23   13   14 ar
    24   13   26 1
    25   14   15 ar
    26   14   18 1
    27   15   16 ar
    28   15   27 1
    29   16   17 1
    30   18   28 1
    31   19   29 1
    32   20   30 1
    33   21   31 1
@<TRIPOS>MOLECULE
ZINC03869768
   30    32     0     0     0
SMALL
USER_CHARGES

@<TRIPOS>ATOM
      1 C1          0.1387    1.1253   -0.8121 C.ar      1 <0>        -0.0723
      2 C2          1.3222    1.8291   -0.8163 C.ar      1 <0>        -0.1492
      3 C3          2.3802    1.4188   -0.0136 C.ar      1 <0>         0.1107
      4 C4          2.2493    0.2973    0.7970 C.ar      1 <0>        -0.1487
      5 C5          1.0698   -0.4131    0.8081 C.ar      1 <0>        -0.0549
      6 C6          0.0021   -0.0041    0.0020 C.ar      1 <0>        -0.0373
      7 C7         -1.2618   -0.7600    0.0105 C.2       1 <0>         0.1024
      8 C8         -1.2272   -2.1382   -0.0967 C.2       1 <0>        -0.0073
      9 C9         -2.4246   -2.8649   -0.0894 C.2       1 <0>         0.3353
     10 C10        -3.6396   -2.1555    0.0286 C.2       1 <0>        -0.3335
     11 C11        -4.8747   -2.8371    0.0419 C.2       1 <0>         0.2665
     12 C12        -6.0380   -2.1324    0.1573 C.2       1 <0>        -0.3754
     13 C13        -6.0102   -0.7324    0.2627 C.2       1 <0>         0.3645
     14 O1         -7.1532   -0.0530    0.3751 O.2       1 <0>        -0.6613
     15 C14        -4.7917   -0.0455    0.2513 C.2       1 <0>        -0.3154
     16 C15        -3.6071   -0.7470    0.1346 C.2       1 <0>         0.2120
     17 O2         -2.4247   -0.0966    0.1278 O.3       1 <0>        -0.2026
     18 O3         -4.9062   -4.1898   -0.0602 O.3       1 <0>        -0.4482
     19 O4         -2.4171   -4.2129   -0.1933 O.3       1 <0>        -0.5752
     20 O5         -0.0356   -2.7853   -0.2091 O.3       1 <0>        -0.4646
     21 O6          3.5454    2.1154   -0.0218 O.3       1 <0>        -0.5000
     22 H1         -0.6842    1.4472   -1.4330 H         1 <0>         0.1347
     23 H2          1.4286    2.7011   -1.4445 H         1 <0>         0.1321
     24 H3          3.0741   -0.0177    1.4190 H         1 <0>         0.1323
     25 H4          0.9692   -1.2847    1.4377 H         1 <0>         0.1358
     26 H5         -6.9838   -2.6538    0.1671 H         1 <0>         0.1177
     27 H6         -4.7769    1.0313    0.3327 H         1 <0>         0.1225
     28 H7         -5.7973   -4.5650   -0.0417 H         1 <0>         0.3845
     29 H8         -0.1151   -3.7466   -0.2784 H         1 <0>         0.4051
     30 H9          3.5829    2.8269    0.6320 H         1 <0>         0.3897
@<TRIPOS>BOND
     1    1    6 ar
     2    1    2 ar
     3    1   22 1
     4    2    3 ar
     5    2   23 1
     6    3    4 ar
     7    3   21 1
     8    4    5 ar
     9    4   24 1
    10    5    6 ar
    11    5   25 1
    12    6    7 1
    13    7   17 1
    14    7    8 2
    15    8    9 1
    16    8   20 1
    17    9   10 2
    18    9   19 1
    19   10   16 1
    20   10   11 1
    21   11   12 2
    22   11   18 1
    23   12   13 1
    24   12   26 1
    25   13   14 2
    26   13   15 1
    27   15   16 2
    28   15   27 1
    29   16   17 1
    30   18   28 1
    31   20   29 1
    32   21   30 1
@<TRIPOS>MOLECULE
ZINC18185774
   31    33     0     0     0
SMALL
USER_CHARGES

@<TRIPOS>ATOM
      1 C1         -0.0169    1.3929    0.0097 C.ar      1 <0>        -0.0705
      2 C2          1.1675    2.0983    0.0022 C.ar      1 <0>        -0.1309
      3 C3          2.3803    1.4240   -0.0135 C.ar      1 <0>         0.1099
      4 C4          2.4067    0.0300   -0.0212 C.ar      1 <0>         0.0792
      5 C5          1.2240   -0.6832   -0.0138 C.ar      1 <0>        -0.0904
      6 C6          0.0021   -0.0041    0.0020 C.ar      1 <0>        -0.0661
      7 C7         -1.2642   -0.7606    0.0105 C.2       1 <0>         0.2069
      8 C8         -2.4374   -0.0724    0.0203 C.2       1 <0>        -0.3067
      9 C9         -3.6620   -0.7813    0.0286 C.2       1 <0>         0.4226
     10 O1         -4.7331   -0.1964    0.0371 O.2       1 <0>        -0.4521
     11 C10        -3.5935   -2.2524    0.0260 C.ar      1 <0>        -0.2661
     12 C11        -4.7554   -3.0344    0.0332 C.ar      1 <0>         0.2196
     13 C12        -4.6484   -4.4128    0.0300 C.ar      1 <0>        -0.2046
     14 C13        -3.3955   -5.0163    0.0203 C.ar      1 <0>         0.1928
     15 C14        -2.2415   -4.2483    0.0131 C.ar      1 <0>        -0.1829
     16 C15        -2.3286   -2.8648    0.0157 C.ar      1 <0>         0.1832
     17 O2         -1.2147   -2.1022    0.0028 O.3       1 <0>        -0.2181
     18 O3         -3.3016   -6.3705    0.0182 O.3       1 <0>        -0.4872
     19 O4         -5.9771   -2.4436    0.0436 O.3       1 <0>        -0.4722
     20 O5          3.5971   -0.6274   -0.0366 O.3       1 <0>        -0.4831
     21 O6          3.5446    2.1239   -0.0217 O.3       1 <0>        -0.4848
     22 H1         -0.9593    1.9201    0.0260 H         1 <0>         0.1451
     23 H2          1.1515    3.1781    0.0081 H         1 <0>         0.1468
     24 H3          1.2430   -1.7630   -0.0205 H         1 <0>         0.1466
     25 H4         -2.4342    1.0076    0.0222 H         1 <0>         0.1649
     26 H5         -5.5400   -5.0224    0.0355 H         1 <0>         0.1504
     27 H6         -1.2739   -4.7281    0.0059 H         1 <0>         0.1535
     28 H7         -3.2809   -6.7620   -0.8658 H         1 <0>         0.4041
     29 H8         -6.3379   -2.2705   -0.8367 H         1 <0>         0.4034
     30 H9          3.9502   -0.8223    0.8423 H         1 <0>         0.3919
     31 H10         3.8907    2.3221    0.8592 H         1 <0>         0.3948
@<TRIPOS>BOND
     1    1    6 ar
     2    1    2 ar
     3    1   22 1
     4    2    3 ar
     5    2   23 1
     6    3    4 ar
     7    3   21 1
     8    4    5 ar
     9    4   20 1
    10    5    6 ar
    11    5   24 1
    12    6    7 1
    13    7   17 1
    14    7    8 2
    15    8    9 1
    16    8   25 1
    17    9   10 2
    18    9   11 1
    19   11   16 ar
    20   11   12 ar
    21   12   13 ar
    22   12   19 1
    23   13   14 ar
    24   13   26 1
    25   14   15 ar
    26   14   18 1
    27   15   16 ar
    28   15   27 1
    29   16   17 1
    30   18   28 1
    31   19   29 1
    32   20   30 1
    33   21   31 1
@<TRIPOS>MOLECULE
ZINC13735077
   28    30     0     0     0
SMALL
USER_CHARGES
2-(2,7-difluoro-9H-fluoren-9-yl)acetic acid
@<TRIPOS>ATOM
      1 C1          0.2511   -0.3206    0.2062 C.ar      1 <0>        -0.1587
      2 C2          0.0824    1.0407    0.0655 C.ar      1 <0>        -0.0710
      3 C3          1.1972    1.8781   -0.0098 C.ar      1 <0>        -0.0601
      4 C4          2.4732    1.3252    0.0583 C.ar      1 <0>        -0.0462
      5 C5          2.6348   -0.0364    0.1994 C.ar      1 <0>        -0.1327
      6 C6          1.5244   -0.8625    0.2732 C.ar      1 <0>         0.0993
      7 F1          1.6838   -2.1970    0.4110 F         1 <0>        -0.1402
      8 C7          3.4655    2.4572   -0.0479 C.3       1 <0>        -0.0031
      9 C8          2.6471    3.7177   -0.1845 C.ar      1 <0>        -0.0257
     10 C9          1.3042    3.3506   -0.1597 C.ar      1 <0>        -0.0818
     11 C10         0.3219    4.3368   -0.2694 C.ar      1 <0>        -0.0756
     12 C11         0.6856    5.6604   -0.4008 C.ar      1 <0>        -0.1617
     13 C12         2.0243    6.0170   -0.4245 C.ar      1 <0>         0.0988
     14 C13         3.0038    5.0425   -0.3160 C.ar      1 <0>        -0.1195
     15 F2          2.3749    7.3154   -0.5529 F         1 <0>        -0.1393
     16 C14         4.3508    2.2677   -1.2813 C.3       1 <0>        -0.1424
     17 C15         5.4537    3.2946   -1.2706 C.2       1 <0>         0.4636
     18 O1          5.6058    4.0078   -0.3072 O.co2     1 <0>        -0.6340
     19 H1         -0.6124   -0.9666    0.2647 H         1 <0>         0.1357
     20 H2         -0.9118    1.4588    0.0092 H         1 <0>         0.1313
     21 H3          3.6270   -0.4597    0.2521 H         1 <0>         0.1387
     22 H4          4.0801    2.5031    0.8512 H         1 <0>         0.1168
     23 H5         -0.7227    4.0630   -0.2517 H         1 <0>         0.1283
     24 H6         -0.0756    6.4219   -0.4851 H         1 <0>         0.1337
     25 H7          4.0471    5.3214   -0.3349 H         1 <0>         0.1677
     26 H8          4.7850    1.2680   -1.2668 H         1 <0>         0.0747
     27 H9          3.7495    2.3896   -2.1823 H         1 <0>         0.0696
     28 O2          6.2670    3.4170   -2.3314 O.co2     1 <0>        -0.7662
@<TRIPOS>BOND
     1    1    6 ar
     2    1    2 ar
     3    1   19 1
     4    2    3 ar
     5    2   20 1
     6    3   10 1
     7    3    4 ar
     8    4    5 ar
     9    4    8 1
    10    5    6 ar
    11    5   21 1
    12    6    7 1
    13    8    9 1
    14    8   16 1
    15    8   22 1
    16    9   14 ar
    17    9   10 ar
    18   10   11 ar
    19   11   12 ar
    20   11   23 1
    21   12   13 ar
    22   12   24 1
    23   13   14 ar
    24   13   15 1
    25   14   25 1
    26   16   17 1
    27   16   26 1
    28   16   27 1
    29   17   18 2
    30   17   28 1
@<TRIPOS>MOLECULE
ZINC00398741
   29    32     0     0     0
SMALL
USER_CHARGES
BLAHdione
@<TRIPOS>ATOM
      1 C1         -1.2206    1.7500    0.0174 C.ar      1 <0>        -0.0991
      2 C2         -0.0126    1.0758    0.0080 C.ar      1 <0>        -0.1096
      3 C3          1.1765    1.7825    0.0004 C.ar      1 <0>        -0.0760
      4 C4          1.1622    3.1615    0.0076 C.ar      1 <0>        -0.1056
      5 C5         -0.0505    3.8491    0.0218 C.ar      1 <0>        -0.0359
      6 C6         -1.2459    3.1289    0.0299 C.ar      1 <0>        -0.0932
      7 C7          0.2104    5.3107    0.0250 C.ar      1 <0>        -0.0359
      8 C8         -0.6621    6.4000    0.0369 C.ar      1 <0>        -0.0932
      9 C9         -0.1614    7.6850    0.0350 C.ar      1 <0>        -0.0991
     10 C10         1.2052    7.8998    0.0210 C.ar      1 <0>        -0.1095
     11 C11         2.0764    6.8255    0.0099 C.ar      1 <0>        -0.0760
     12 C12         1.5861    5.5365    0.0123 C.ar      1 <0>        -0.1055
     13 C13         2.2554    4.1917    0.0036 C.3       1 <0>         0.2136
     14 C14         3.1567    4.0334   -1.1956 C.2       1 <0>         0.5444
     15 O1          2.8416    4.0917   -2.3648 O.2       1 <0>        -0.4426
     16 N1          4.3890    3.8124   -0.6900 N.am      1 <0>        -0.6799
     17 C15         4.3792    3.8113    0.6490 C.2       1 <0>         0.7058
     18 O2          5.3686    3.6333    1.3321 O.2       1 <0>        -0.5322
     19 N2          3.1490    4.0299    1.1540 N.am      1 <0>        -0.7047
     20 H1         -2.1469    1.1946    0.0192 H         1 <0>         0.1346
     21 H2          0.0021   -0.0041    0.0020 H         1 <0>         0.1351
     22 H3          2.1179    1.2533   -0.0108 H         1 <0>         0.1251
     23 H4         -2.1909    3.6514    0.0419 H         1 <0>         0.1312
     24 H5         -1.7296    6.2365    0.0479 H         1 <0>         0.1312
     25 H6         -0.8384    8.5264    0.0442 H         1 <0>         0.1346
     26 H7          1.5924    8.9079    0.0183 H         1 <0>         0.1351
     27 H8          3.1427    6.9964   -0.0010 H         1 <0>         0.1251
     28 H9          5.1826    3.6714   -1.2296 H         1 <0>         0.4370
     29 H10         2.9038    4.0712    2.0915 H         1 <0>         0.4451
@<TRIPOS>BOND
     1    1    6 ar
     2    1    2 ar
     3    1   20 1
     4    2    3 ar
     5    2   21 1
     6    3    4 ar
     7    3   22 1
     8    4   13 1
     9    4    5 ar
    10    5    6 ar
    11    5    7 1
    12    6   23 1
    13    7   12 ar
    14    7    8 ar
    15    8    9 ar
    16    8   24 1
    17    9   10 ar
    18    9   25 1
    19   10   11 ar
    20   10   26 1
    21   11   12 ar
    22   11   27 1
    23   12   13 1
    24   13   19 1
    25   13   14 1
    26   14   15 2
    27   14   16 am
    28   16   17 am
    29   16   28 1
    30   17   18 2
    31   17   19 am
    32   19   29 1
@<TRIPOS>MOLECULE
ZINC00003761
   41    42     0     0     0
SMALL
USER_CHARGES

@<TRIPOS>ATOM
      1 C1         -0.0187    1.5258    0.0104 C.3       1 <0>        -0.1424
      2 C2          0.0021   -0.0041    0.0020 C.3       1 <0>        -0.0504
      3 C3          0.7182   -0.4975   -1.2568 C.3       1 <0>        -0.1407
      4 C4          0.7309   -0.5033    1.2229 C.ar      1 <0>        -0.0818
      5 C5          2.0511   -0.1482    1.4349 C.ar      1 <0>        -0.1078
      6 C6          2.7231   -0.6025    2.5543 C.ar      1 <0>        -0.1156
      7 C7          2.0812   -1.4206    3.4662 C.ar      1 <0>        -0.1139
      8 C8          0.7626   -1.7880    3.2548 C.ar      1 <0>         0.0960
      9 C9          0.0788   -1.3129    2.1364 C.ar      1 <0>         0.1062
     10 O1         -1.2297   -1.6378    1.9581 O.3       1 <0>        -0.2944
     11 C10        -1.6546   -2.9110    2.4496 C.3       1 <0>         0.1231
     12 H1         -2.7437   -2.9433    2.4797 H         1 <0>         0.1485
     13 C11        -1.1074   -3.1261    3.8382 C.2       1 <0>         0.2280
     14 S1         -1.9481   -3.9608    4.9121 S.2       1 <0>        -0.4323
     15 N1          0.0987   -2.6212    4.1643 N.pl3     1 <0>        -0.4279
     16 C12         0.7003   -2.9266    5.4647 C.3       1 <0>         0.0161
     17 C13         0.2600   -1.8994    6.4756 C.2       1 <0>         0.4995
     18 O2         -0.4870   -0.9959    6.1408 O.co2     1 <0>        -0.6739
     19 O3          0.6509   -1.9718    7.6282 O.co2     1 <0>        -0.6869
     20 C14        -1.1377   -4.0131    1.5228 C.3       1 <0>        -0.1153
     21 C15        -1.6951   -3.7980    0.1143 C.3       1 <0>        -0.1384
     22 C16         0.3910   -3.9673    1.4788 C.3       1 <0>        -0.1677
     23 H2          1.0039    1.9031    0.0027 H         1 <0>         0.0554
     24 H3         -0.5459    1.8868   -0.8726 H         1 <0>         0.0558
     25 H4         -0.5289    1.8773    0.9072 H         1 <0>         0.0576
     26 H5         -1.0205   -0.3814    0.0098 H         1 <0>         0.0859
     27 H6          1.7408   -0.1202   -1.2645 H         1 <0>         0.0556
     28 H7          0.7330   -1.5874   -1.2628 H         1 <0>         0.0541
     29 H8          0.1910   -0.1364   -2.1398 H         1 <0>         0.0562
     30 H9          2.5587    0.4860    0.7231 H         1 <0>         0.1289
     31 H10         3.7522   -0.3182    2.7170 H         1 <0>         0.1295
     32 H11         2.6070   -1.7719    4.3417 H         1 <0>         0.1331
     33 H12         0.3802   -3.9166    5.7895 H         1 <0>         0.1112
     34 H13         1.7865   -2.9069    5.3761 H         1 <0>         0.0872
     35 H14        -1.4615   -4.9842    1.8973 H         1 <0>         0.0932
     36 H15        -1.3714   -2.8269   -0.2602 H         1 <0>         0.0633
     37 H16        -1.3269   -4.5832   -0.5460 H         1 <0>         0.0587
     38 H17        -2.7842   -3.8307    0.1456 H         1 <0>         0.0598
     39 H18         0.7881   -4.1205    2.4823 H         1 <0>         0.0548
     40 H19         0.7592   -4.7524    0.8185 H         1 <0>         0.0617
     41 H20         0.7147   -2.9961    1.1044 H         1 <0>         0.0701
@<TRIPOS>BOND
     1    1    2 1
     2    1   23 1
     3    1   24 1
     4    1   25 1
     5    2    3 1
     6    2    4 1
     7    2   26 1
     8    3   27 1
     9    3   28 1
    10    3   29 1
    11    4    9 ar
    12    4    5 ar
    13    5    6 ar
    14    5   30 1
    15    6    7 ar
    16    6   31 1
    17    7    8 ar
    18    7   32 1
    19    8   15 1
    20    8    9 ar
    21    9   10 1
    22   10   11 1
    23   11   12 1
    24   11   13 1
    25   11   20 1
    26   13   14 2
    27   13   15 1
    28   15   16 1
    29   16   17 1
    30   16   33 1
    31   16   34 1
    32   17   18 2
    33   17   19 1
    34   20   21 1
    35   20   22 1
    36   20   35 1
    37   21   36 1
    38   21   37 1
    39   21   38 1
    40   22   39 1
    41   22   40 1
    42   22   41 1
@<TRIPOS>MOLECULE
ZINC00168475
   41    42     0     0     0
SMALL
USER_CHARGES

@<TRIPOS>ATOM
      1 C1         -0.0187    1.5258    0.0104 C.3       1 <0>        -0.1422
      2 C2          0.0021   -0.0041    0.0020 C.3       1 <0>        -0.0504
      3 C3          0.7182   -0.4975   -1.2568 C.3       1 <0>        -0.1407
      4 C4          0.7309   -0.5033    1.2229 C.ar      1 <0>        -0.0760
      5 C5          2.0511   -0.1482    1.4349 C.ar      1 <0>        -0.1087
      6 C6          2.7244   -0.6060    2.5521 C.ar      1 <0>        -0.1140
      7 C7          2.0795   -1.4162    3.4690 C.ar      1 <0>        -0.1023
      8 C8          0.7547   -1.7665    3.2684 C.ar      1 <0>         0.0903
      9 C9          0.0788   -1.3129    2.1364 C.ar      1 <0>         0.0903
     10 O1         -1.2106   -1.6902    1.9252 O.3       1 <0>        -0.3000
     11 C10        -2.0226   -1.9003    3.0827 C.3       1 <0>         0.1240
     12 H1         -2.9287   -2.4352    2.7980 H         1 <0>         0.1481
     13 C11        -1.2579   -2.7126    4.0971 C.2       1 <0>         0.2325
     14 S1         -2.0298   -3.7364    5.0527 S.2       1 <0>        -0.4379
     15 N1          0.0837   -2.5807    4.1898 N.pl3     1 <0>        -0.4297
     16 C12         0.8261   -3.2671    5.2500 C.3       1 <0>         0.0127
     17 C13         0.8954   -2.3827    6.4682 C.2       1 <0>         0.4976
     18 O2          0.3732   -1.2811    6.4523 O.co2     1 <0>        -0.6753
     19 O3          1.4738   -2.7687    7.4697 O.co2     1 <0>        -0.6840
     20 C14        -2.3994   -0.5487    3.6927 C.3       1 <0>        -0.1128
     21 C15        -3.1784    0.2751    2.6655 C.3       1 <0>        -0.1364
     22 C16        -3.2685   -0.7730    4.9317 C.3       1 <0>        -0.1485
     23 H2          1.0039    1.9031    0.0027 H         1 <0>         0.0558
     24 H3         -0.5459    1.8868   -0.8726 H         1 <0>         0.0563
     25 H4         -0.5289    1.8773    0.9072 H         1 <0>         0.0561
     26 H5         -1.0205   -0.3814    0.0098 H         1 <0>         0.0861
     27 H6          1.7408   -0.1202   -1.2645 H         1 <0>         0.0555
     28 H7          0.7330   -1.5874   -1.2628 H         1 <0>         0.0549
     29 H8          0.1910   -0.1364   -2.1398 H         1 <0>         0.0560
     30 H9          2.5577    0.4887    0.7248 H         1 <0>         0.1291
     31 H10         3.7565   -0.3299    2.7096 H         1 <0>         0.1300
     32 H11         2.6082   -1.7753    4.3396 H         1 <0>         0.1342
     33 H12         0.3187   -4.1975    5.5049 H         1 <0>         0.1172
     34 H13         1.8356   -3.4871    4.9028 H         1 <0>         0.0867
     35 H14        -1.4935   -0.0130    3.9765 H         1 <0>         0.0788
     36 H15        -4.0843   -0.2606    2.3817 H         1 <0>         0.0574
     37 H16        -3.4468    1.2380    3.1001 H         1 <0>         0.0588
     38 H17        -2.5592    0.4348    1.7828 H         1 <0>         0.0595
     39 H18        -2.7135   -1.3599    5.6636 H         1 <0>         0.0757
     40 H19        -3.5369    0.1899    5.3664 H         1 <0>         0.0561
     41 H20        -4.1744   -1.3087    4.6480 H         1 <0>         0.0595
@<TRIPOS>BOND
     1    1    2 1
     2    1   23 1
     3    1   24 1
     4    1   25 1
     5    2    3 1
     6    2    4 1
     7    2   26 1
     8    3   27 1
     9    3   28 1
    10    3   29 1
    11    4    9 ar
    12    4    5 ar
    13    5    6 ar
    14    5   30 1
    15    6    7 ar
    16    6   31 1
    17    7    8 ar
    18    7   32 1
    19    8   15 1
    20    8    9 ar
    21    9   10 1
    22   10   11 1
    23   11   12 1
    24   11   13 1
    25   11   20 1
    26   13   14 2
    27   13   15 1
    28   15   16 1
    29   16   17 1
    30   16   33 1
    31   16   34 1
    32   17   18 2
    33   17   19 1
    34   20   21 1
    35   20   22 1
    36   20   35 1
    37   21   36 1
    38   21   37 1
    39   21   38 1
    40   22   39 1
    41   22   40 1
    42   22   41 1
@<TRIPOS>MOLECULE
ZINC13543148
   20    21     0     0     0
SMALL
USER_CHARGES
7-hydroxy-4-oxo-chromene-2-carboxylic acid
@<TRIPOS>ATOM
      1 C1         -1.2365    2.0268    0.0189 C.ar      1 <0>        -0.1868
      2 C2         -1.2703    3.3918    0.0310 C.ar      1 <0>        -0.0135
      3 C3         -0.0759    4.1142    0.0240 C.ar      1 <0>        -0.2421
      4 C4         -0.0735    5.5876    0.0309 C.2       1 <0>         0.4229
      5 O1         -1.1104    6.2275    0.0434 O.2       1 <0>        -0.4814
      6 C5          1.2407    6.2498    0.0214 C.2       1 <0>        -0.3040
      7 C6          2.3573    5.4836    0.0072 C.2       1 <0>         0.1308
      8 O2          2.3128    4.1428    0.0013 O.3       1 <0>        -0.1964
      9 C7          1.1614    3.4434    0.0090 C.ar      1 <0>         0.1732
     10 C8          1.1772    2.0551    0.0019 C.ar      1 <0>        -0.1756
     11 C9         -0.0163    1.3530    0.0095 C.ar      1 <0>         0.1663
     12 O3          0.0021   -0.0041    0.0020 O.3       1 <0>        -0.4937
     13 C10         3.6787    6.1519   -0.0018 C.2       1 <0>         0.5057
     14 O4          3.7461    7.3641    0.0032 O.co2     1 <0>        -0.5857
     15 H1         -2.1598    1.4665    0.0203 H         1 <0>         0.1368
     16 H2         -2.2175    3.9106    0.0425 H         1 <0>         0.1429
     17 H3          1.3133    7.3273    0.0261 H         1 <0>         0.1672
     18 H4          2.1177    1.5243   -0.0093 H         1 <0>         0.1500
     19 H5          0.0158   -0.4021    0.8832 H         1 <0>         0.3965
     20 O5          4.8061    5.4148   -0.0156 O.co2     1 <0>        -0.7131
@<TRIPOS>BOND
     1    1   11 ar
     2    1    2 ar
     3    1   15 1
     4    2    3 ar
     5    2   16 1
     6    3    9 ar
     7    3    4 1
     8    4    5 2
     9    4    6 1
    10    6    7 2
    11    6   17 1
    12    7    8 1
    13    7   13 1
    14    8    9 1
    15    9   10 ar
    16   10   11 ar
    17   10   18 1
    18   11   12 1
    19   12   19 1
    20   13   14 2
    21   13   20 1
@<TRIPOS>MOLECULE
ZINC04102435
   52    55     0     0     0
SMALL
USER_CHARGES

@<TRIPOS>ATOM
      1 C1          0.7148   -0.0817   -0.4680 C.ar      1 <0>        -0.0420
      2 C2          1.7688    0.7557   -0.1761 C.ar      1 <0>        -0.1515
      3 C3          1.7042    1.5990    0.9264 C.ar      1 <0>         0.1349
      4 C4          0.5772    1.6018    1.7391 C.ar      1 <0>        -0.1513
      5 C5         -0.4816    0.7679    1.4549 C.ar      1 <0>        -0.0517
      6 C6         -0.4211   -0.0822    0.3468 C.ar      1 <0>        -0.0745
      7 C7         -1.5522   -0.9764    0.0381 C.2       1 <0>         0.2064
      8 C8         -1.2977   -2.2883   -0.2280 C.2       1 <0>        -0.0901
      9 C9         -2.3755   -3.1617   -0.5263 C.2       1 <0>         0.4103
     10 O1         -2.1860   -4.3428   -0.7693 O.2       1 <0>        -0.4417
     11 C10        -3.7307   -2.5880   -0.5308 C.ar      1 <0>        -0.2611
     12 C11        -4.8531   -3.3775   -0.8144 C.ar      1 <0>         0.2219
     13 C12        -6.1095   -2.8016   -0.8083 C.ar      1 <0>        -0.2036
     14 C13        -6.2566   -1.4481   -0.5231 C.ar      1 <0>         0.1956
     15 C14        -5.1510   -0.6610   -0.2422 C.ar      1 <0>        -0.1804
     16 C15        -3.8822   -1.2206   -0.2424 C.ar      1 <0>         0.1803
     17 O2         -2.7966   -0.4685    0.0350 O.3       1 <0>        -0.2025
     18 O3         -7.4953   -0.8925   -0.5203 O.3       1 <0>        -0.4865
     19 O4         -4.7075   -4.6977   -1.0933 O.3       1 <0>        -0.4715
     20 O5         -0.0202   -2.7570   -0.2082 O.3       1 <0>        -0.2710
     21 C16         0.3072   -3.7054    0.8093 C.3       1 <0>         0.2206
     22 H1         -0.4450   -4.4940    0.8268 H         1 <0>         0.0784
     23 C17         1.6801   -4.3158    0.5156 C.3       1 <0>         0.0648
     24 H2          2.4263   -3.5233    0.4577 H         1 <0>         0.0837
     25 C18         2.0503   -5.2860    1.6417 C.3       1 <0>         0.0859
     26 H3          1.3320   -6.1054    1.6678 H         1 <0>         0.0777
     27 C19         2.0211   -4.5362    2.9770 C.3       1 <0>         0.0910
     28 H4          2.7741   -3.7482    2.9688 H         1 <0>         0.0801
     29 C20         0.6350   -3.9173    3.1756 C.3       1 <0>         0.1104
     30 H5         -0.1129   -4.7088    3.2243 H         1 <0>         0.0794
     31 O6          0.3402   -3.0501    2.0788 O.3       1 <0>        -0.3742
     32 C21         0.6159   -3.1164    4.4791 C.3       1 <0>         0.0917
     33 O7         -0.7075   -2.6359    4.7236 O.3       1 <0>        -0.5663
     34 O8          2.2955   -5.4479    4.0427 O.3       1 <0>        -0.5502
     35 O9          3.3612   -5.8067    1.4124 O.3       1 <0>        -0.5548
     36 O10         1.6338   -5.0198   -0.7270 O.3       1 <0>        -0.5511
     37 O11         2.7458    2.4225    1.2106 O.3       1 <0>        -0.4976
     38 H6          0.7640   -0.7336   -1.3277 H         1 <0>         0.1370
     39 H7          2.6469    0.7565   -0.8049 H         1 <0>         0.1376
     40 H8          0.5314    2.2587    2.5952 H         1 <0>         0.1369
     41 H9         -1.3571    0.7705    2.0873 H         1 <0>         0.1345
     42 H10        -6.9792   -3.4038   -1.0260 H         1 <0>         0.1517
     43 H11        -5.2778    0.3888   -0.0225 H         1 <0>         0.1555
     44 H12        -7.9374   -0.9216    0.3391 H         1 <0>         0.4046
     45 H13        -4.7482   -5.2708   -0.3155 H         1 <0>         0.4033
     46 H14         0.9279   -3.7571    5.3039 H         1 <0>         0.0774
     47 H15         1.2997   -2.2716    4.3966 H         1 <0>         0.0570
     48 H16        -0.7943   -2.1182    5.5357 H         1 <0>         0.3833
     49 H17         3.1578   -5.8807    3.9778 H         1 <0>         0.3949
     50 H18         3.4526   -6.2891    0.5793 H         1 <0>         0.3957
     51 H19         1.4004   -4.4658   -1.4845 H         1 <0>         0.3948
     52 H20         2.6867    3.2911    0.7898 H         1 <0>         0.3964
@<TRIPOS>BOND
     1    1    6 ar
     2    1    2 ar
     3    1   38 1
     4    2    3 ar
     5    2   39 1
     6    3    4 ar
     7    3   37 1
     8    4    5 ar
     9    4   40 1
    10    5    6 ar
    11    5   41 1
    12    6    7 1
    13    7   17 1
    14    7    8 2
    15    8    9 1
    16    8   20 1
    17    9   10 2
    18    9   11 1
    19   11   16 ar
    20   11   12 ar
    21   12   13 ar
    22   12   19 1
    23   13   14 ar
    24   13   42 1
    25   14   15 ar
    26   14   18 1
    27   15   16 ar
    28   15   43 1
    29   16   17 1
    30   18   44 1
    31   19   45 1
    32   20   21 1
    33   21   22 1
    34   21   31 1
    35   21   23 1
    36   23   24 1
    37   23   25 1
    38   23   36 1
    39   25   26 1
    40   25   27 1
    41   25   35 1
    42   27   28 1
    43   27   29 1
    44   27   34 1
    45   29   30 1
    46   29   31 1
    47   29   32 1
    48   32   33 1
    49   32   46 1
    50   32   47 1
    51   33   48 1
    52   34   49 1
    53   35   50 1
    54   36   51 1
    55   37   52 1
@<TRIPOS>MOLECULE
ZINC13543704
   49    52     0     0     0
SMALL
USER_CHARGES

@<TRIPOS>ATOM
      1 C1         -0.0169    1.3935    0.0097 C.ar      1 <0>        -0.0618
      2 C2          1.1676    2.0963    0.0022 C.ar      1 <0>        -0.1489
      3 C3          2.3803    1.4179   -0.0135 C.ar      1 <0>         0.1286
      4 C4          2.4038    0.0284   -0.0212 C.ar      1 <0>        -0.1475
      5 C5          1.2241   -0.6823   -0.0133 C.ar      1 <0>        -0.0641
      6 C6          0.0021   -0.0041    0.0020 C.ar      1 <0>        -0.0762
      7 C7         -1.2639   -0.7610    0.0105 C.2       1 <0>         0.2019
      8 C8         -1.2134   -2.1203    0.0083 C.2       1 <0>        -0.3073
      9 C9         -2.4177   -2.8631    0.0169 C.2       1 <0>         0.4255
     10 O1         -2.4099   -4.0836    0.0156 O.2       1 <0>        -0.4599
     11 C10        -3.6809   -2.1061    0.0279 C.ar      1 <0>        -0.2893
     12 C11        -4.9199   -2.7591    0.0374 C.ar      1 <0>         0.2398
     13 C12        -6.0832   -2.0121    0.0480 C.ar      1 <0>        -0.2355
     14 C13        -6.0212   -0.6227    0.0493 C.ar      1 <0>         0.2189
     15 C14        -4.7984    0.0300    0.0400 C.ar      1 <0>        -0.1871
     16 C15        -3.6212   -0.7020    0.0293 C.ar      1 <0>         0.1954
     17 O2         -2.4220   -0.0821    0.0257 O.3       1 <0>        -0.2177
     18 O3         -7.1695    0.1013    0.0593 O.3       1 <0>        -0.2874
     19 C16        -8.3973   -0.6297    0.0681 C.3       1 <0>         0.2148
     20 H1         -8.4015   -1.3232    0.9090 H         1 <0>         0.0744
     21 C17        -9.5705    0.3444    0.2038 C.3       1 <0>         0.1052
     22 H2         -9.5434    1.0636   -0.6148 H         1 <0>         0.0860
     23 C18       -10.8847   -0.4409    0.1519 C.3       1 <0>         0.1266
     24 H3        -10.9341   -1.1253    0.9988 H         1 <0>         0.0708
     25 C19       -10.9392   -1.2380   -1.1550 C.3       1 <0>         0.0670
     26 H4        -10.9397   -0.5507   -2.0010 H         1 <0>         0.0702
     27 C20        -9.7131   -2.1509   -1.2382 C.3       1 <0>        -0.0031
     28 H5         -9.7346   -2.8645   -0.4145 H         1 <0>         0.0679
     29 O4         -8.5255   -1.3607   -1.1531 O.3       1 <0>        -0.3510
     30 C21        -9.7289   -2.8953   -2.5485 C.2       1 <0>         0.5072
     31 O5         -8.8555   -2.6934   -3.3749 O.co2     1 <0>        -0.6547
     32 O6        -10.6150   -3.6995   -2.7821 O.co2     1 <0>        -0.6792
     33 O7        -12.1284   -2.0298   -1.1822 O.3       1 <0>        -0.5647
     34 O8        -11.9867    0.4673    0.2063 O.3       1 <0>        -0.5505
     35 O9         -9.4751    1.0361    1.4506 O.3       1 <0>        -0.5452
     36 O10        -4.9782   -4.1150    0.0356 O.3       1 <0>        -0.4681
     37 O11         3.5455    2.1145   -0.0218 O.3       1 <0>        -0.4976
     38 H6         -0.9589    1.9215    0.0260 H         1 <0>         0.1419
     39 H7          1.1538    3.1762    0.0081 H         1 <0>         0.1377
     40 H8          3.3485   -0.4949   -0.0338 H         1 <0>         0.1390
     41 H9          1.2432   -1.7622   -0.0196 H         1 <0>         0.1413
     42 H10        -0.2608   -2.6290   -0.0002 H         1 <0>         0.1601
     43 H11        -7.0423   -2.5086    0.0550 H         1 <0>         0.1527
     44 H12        -4.7627    1.1094    0.0411 H         1 <0>         0.1539
     45 H13       -12.2284   -2.5619   -1.9834 H         1 <0>         0.4039
     46 H14       -12.8524    0.0374    0.1776 H         1 <0>         0.3882
     47 H15        -8.6634    1.5517    1.5532 H         1 <0>         0.3843
     48 H16        -4.9875   -4.5094    0.9185 H         1 <0>         0.3983
     49 H17         3.8920    2.3119    0.8591 H         1 <0>         0.3954
@<TRIPOS>BOND
     1    1    6 ar
     2    1    2 ar
     3    1   38 1
     4    2    3 ar
     5    2   39 1
     6    3    4 ar
     7    3   37 1
     8    4    5 ar
     9    4   40 1
    10    5    6 ar
    11    5   41 1
    12    6    7 1
    13    7   17 1
    14    7    8 2
    15    8    9 1
    16    8   42 1
    17    9   10 2
    18    9   11 1
    19   11   16 ar
    20   11   12 ar
    21   12   13 ar
    22   12   36 1
    23   13   14 ar
    24   13   43 1
    25   14   15 ar
    26   14   18 1
    27   15   16 ar
    28   15   44 1
    29   16   17 1
    30   18   19 1
    31   19   20 1
    32   19   29 1
    33   19   21 1
    34   21   22 1
    35   21   23 1
    36   21   35 1
    37   23   24 1
    38   23   25 1
    39   23   34 1
    40   25   26 1
    41   25   27 1
    42   25   33 1
    43   27   28 1
    44   27   29 1
    45   27   30 1
    46   30   31 2
    47   30   32 1
    48   33   45 1
    49   34   46 1
    50   35   47 1
    51   36   48 1
    52   37   49 1
@<TRIPOS>MOLECULE
ZINC00002070
   26    28     0     0     0
SMALL
USER_CHARGES

@<TRIPOS>ATOM
      1 C1         -0.0167    1.3801    0.0096 C.ar      1 <0>        -0.0990
      2 C2          1.1701    2.0848    0.0021 C.ar      1 <0>        -0.1186
      3 C3          2.3855    1.4100   -0.0123 C.ar      1 <0>         0.1542
      4 C4          2.4028    0.0246   -0.0169 C.ar      1 <0>        -0.1549
      5 C5          1.2099   -0.6782   -0.0114 C.ar      1 <0>        -0.0989
      6 C6          0.0021   -0.0041    0.0020 C.ar      1 <0>         0.0694
      7 F1         -1.1583   -0.6960    0.0081 F         1 <0>        -0.1342
      8 C7          3.6992   -0.7359   -0.0229 C.3       1 <0>         0.1719
      9 C8          4.8552    0.1695   -0.4367 C.3       1 <0>        -0.1544
     10 C9          4.7464    1.4825    0.3507 C.3       1 <0>         0.0573
     11 O1          3.5337    2.1363   -0.0253 O.3       1 <0>        -0.3038
     12 C10         3.9627   -1.3398    1.3369 C.2       1 <0>         0.5371
     13 O2          4.1092   -0.7502    2.3860 O.2       1 <0>        -0.4481
     14 N1          4.0007   -2.6737    1.1374 N.am      1 <0>        -0.6781
     15 C11         3.7990   -2.9857   -0.1487 C.2       1 <0>         0.7047
     16 O3          3.7883   -4.1240   -0.5744 O.2       1 <0>        -0.5297
     17 N2          3.6097   -1.8965   -0.9179 N.am      1 <0>        -0.7116
     18 H1         -0.9588    1.9080    0.0260 H         1 <0>         0.1498
     19 H2          1.1544    3.1647    0.0070 H         1 <0>         0.1504
     20 H3          1.2225   -1.7581   -0.0176 H         1 <0>         0.1355
     21 H4          5.8031   -0.3179   -0.2088 H         1 <0>         0.1010
     22 H5          4.7955    0.3761   -1.5053 H         1 <0>         0.1057
     23 H6          4.7312    1.2686    1.4194 H         1 <0>         0.0856
     24 H7          5.5963    2.1229    0.1144 H         1 <0>         0.1255
     25 H8          4.1546   -3.3257    1.8389 H         1 <0>         0.4374
     26 H9          3.4463   -1.8817   -1.8739 H         1 <0>         0.4456
@<TRIPOS>BOND
     1    1    6 ar
     2    1    2 ar
     3    1   18 1
     4    2    3 ar
     5    2   19 1
     6    3   11 1
     7    3    4 ar
     8    4    5 ar
     9    4    8 1
    10    5    6 ar
    11    5   20 1
    12    6    7 1
    13    8   17 1
    14    8    9 1
    15    8   12 1
    16    9   10 1
    17    9   21 1
    18    9   22 1
    19   10   11 1
    20   10   23 1
    21   10   24 1
    22   12   13 2
    23   12   14 am
    24   14   15 am
    25   14   25 1
    26   15   16 2
    27   15   17 am
    28   17   26 1
@<TRIPOS>MOLECULE
ZINC20231520
   35    36     0     0     0
SMALL
USER_CHARGES
2-(N-benzoyl-4-methoxy-anilino)acetic acid
@<TRIPOS>ATOM
      1 C1         10.7872   -1.8875    0.8188 C.3       1 <0>         0.0258
      2 O1          9.6331   -2.6804    0.5334 O.3       1 <0>        -0.3226
      3 C2          8.4564   -2.0200    0.3664 C.ar      1 <0>         0.0887
      4 C3          7.2971   -2.7290    0.0871 C.ar      1 <0>        -0.1323
      5 C4          6.1017   -2.0590   -0.0827 C.ar      1 <0>        -0.1267
      6 C5          6.0601   -0.6752    0.0262 C.ar      1 <0>         0.1422
      7 C6          7.2219    0.0341    0.3006 C.ar      1 <0>        -0.1021
      8 C7          8.4155   -0.6377    0.4757 C.ar      1 <0>        -0.1831
      9 N1          4.8483    0.0049   -0.1463 N.am      1 <0>        -0.5131
     10 C8          4.8315    1.4687   -0.2034 C.3       1 <0>         0.0148
     11 C9          4.8714    2.0265    1.1960 C.2       1 <0>         0.4450
     12 O2          4.9098    1.2781    2.1438 O.co2     1 <0>        -0.6094
     13 O3          4.8641    3.3547    1.3896 O.co2     1 <0>        -0.7560
     14 C10         3.6973   -0.6871   -0.2599 C.2       1 <0>         0.5629
     15 O4          3.6911   -1.8897   -0.0821 O.2       1 <0>        -0.5285
     16 C11         2.4426    0.0162   -0.6006 C.ar      1 <0>        -0.1299
     17 C12         1.4426   -0.6421   -1.3183 C.ar      1 <0>        -0.0649
     18 C13         0.2742    0.0202   -1.6333 C.ar      1 <0>        -0.1356
     19 C14         0.0924    1.3340   -1.2396 C.ar      1 <0>        -0.0994
     20 C15         1.0796    1.9924   -0.5280 C.ar      1 <0>        -0.1250
     21 C16         2.2527    1.3417   -0.2064 C.ar      1 <0>        -0.1022
     22 H1         11.6639   -2.5426    0.9295 H         1 <0>         0.0950
     23 H2         10.6265   -1.3290    1.7528 H         1 <0>         0.0540
     24 H3         10.9595   -1.1806   -0.0062 H         1 <0>         0.0524
     25 H4          7.3296   -3.8051    0.0021 H         1 <0>         0.1280
     26 H5          5.1992   -2.6111   -0.2998 H         1 <0>         0.1785
     27 H6          7.1912    1.1107    0.3810 H         1 <0>         0.1283
     28 H7          9.3184   -0.0865    0.6935 H         1 <0>         0.1264
     29 H8          5.7083    1.8238   -0.7648 H         1 <0>         0.0879
     30 H9          3.9130    1.8055   -0.7063 H         1 <0>         0.1231
     31 H10         1.5835   -1.6676   -1.6265 H         1 <0>         0.1314
     32 H11        -0.5002   -0.4879   -2.1889 H         1 <0>         0.1263
     33 H12        -0.8224    1.8494   -1.4926 H         1 <0>         0.1241
     34 H13         0.9315    3.0181   -0.2239 H         1 <0>         0.1307
     35 H14         3.0225    1.8568    0.3491 H         1 <0>         0.1651
@<TRIPOS>BOND
     1    1    2 1
     2    1   22 1
     3    1   23 1
     4    1   24 1
     5    2    3 1
     6    3    8 ar
     7    3    4 ar
     8    4    5 ar
     9    4   25 1
    10    5    6 ar
    11    5   26 1
    12    6    7 ar
    13    6    9 1
    14    7    8 ar
    15    7   27 1
    16    8   28 1
    17    9   10 1
    18    9   14 am
    19   10   11 1
    20   10   29 1
    21   10   30 1
    22   11   12 2
    23   11   13 1
    24   14   15 2
    25   14   16 1
    26   16   21 ar
    27   16   17 ar
    28   17   18 ar
    29   17   31 1
    30   18   19 ar
    31   18   32 1
    32   19   20 ar
    33   19   33 1
    34   20   21 ar
    35   20   34 1
    36   21   35 1
@<TRIPOS>MOLECULE
ZINC02924604
   28    30     0     0     0
SMALL
USER_CHARGES
2-(oxoBLAHyl)acetic acid
@<TRIPOS>ATOM
      1 C1          6.8329    4.4279   -4.8356 C.ar      1 <0>        -0.1030
      2 C2          7.4665    4.7268   -3.6326 C.ar      1 <0>        -0.1286
      3 C3          6.8027    4.6205   -2.4474 C.ar      1 <0>        -0.0816
      4 C4          5.4624    4.2049   -2.4358 C.ar      1 <0>        -0.0628
      5 C5          4.8169    3.9011   -3.6592 C.ar      1 <0>        -0.0118
      6 C6          5.5326    4.0217   -4.8608 C.ar      1 <0>        -0.1133
      7 C7          3.4704    3.4816   -3.6582 C.ar      1 <0>        -0.1343
      8 C8          2.7902    3.3680   -2.4925 C.ar      1 <0>        -0.0458
      9 C9          3.4139    3.6602   -1.2629 C.ar      1 <0>        -0.1295
     10 C10         4.7462    4.0838   -1.2261 C.ar      1 <0>         0.1592
     11 O1          5.3329    4.3646   -0.0464 O.3       1 <0>        -0.2692
     12 C11         4.6675    4.2540    1.1134 C.2       1 <0>         0.5146
     13 O2          5.2397    4.5189    2.1557 O.2       1 <0>        -0.4837
     14 C12         3.3207    3.8387    1.1529 C.2       1 <0>        -0.2747
     15 C13         2.6741    3.5412   -0.0045 C.2       1 <0>         0.0848
     16 C14         1.2350    3.0943    0.0069 C.3       1 <0>        -0.1454
     17 C15         1.1765    1.5884   -0.0006 C.2       1 <0>         0.4705
     18 O3          2.1986    0.9442   -0.0139 O.co2     1 <0>        -0.6247
     19 H1          7.3800    4.5190   -5.7623 H         1 <0>         0.1247
     20 H2          8.4979    5.0469   -3.6388 H         1 <0>         0.1256
     21 H3          7.3057    4.8553   -1.5210 H         1 <0>         0.1338
     22 H4          5.0542    3.7936   -5.8018 H         1 <0>         0.1324
     23 H5          2.9791    3.2503   -4.5917 H         1 <0>         0.1367
     24 H6          1.7595    3.0458   -2.5050 H         1 <0>         0.1405
     25 H7          2.8053    3.7578    2.0986 H         1 <0>         0.1594
     26 H8          0.7272    3.4820   -0.8762 H         1 <0>         0.0910
     27 H9          0.7441    3.4725    0.9036 H         1 <0>         0.0933
     28 O4         -0.0110    0.9628    0.0073 O.co2     1 <0>        -0.7583
@<TRIPOS>BOND
     1    1    6 ar
     2    1    2 ar
     3    1   19 1
     4    2    3 ar
     5    2   20 1
     6    3    4 ar
     7    3   21 1
     8    4   10 ar
     9    4    5 ar
    10    5    6 ar
    11    5    7 ar
    12    6   22 1
    13    7    8 ar
    14    7   23 1
    15    8    9 ar
    16    8   24 1
    17    9   15 1
    18    9   10 ar
    19   10   11 1
    20   11   12 1
    21   12   13 2
    22   12   14 1
    23   14   15 2
    24   14   25 1
    25   15   16 1
    26   16   17 1
    27   16   26 1
    28   16   27 1
    29   17   18 2
    30   17   28 1
@<TRIPOS>MOLECULE
ZINC00056577
   26    27     0     0     0
SMALL
USER_CHARGES

@<TRIPOS>ATOM
      1 C1         -0.0173    1.4248    0.0099 C.3       1 <0>         0.0253
      2 O1          0.0021   -0.0041    0.0020 O.3       1 <0>        -0.3116
      3 C2          0.6051   -0.6064   -1.0545 C.ar      1 <0>         0.1730
      4 C3          1.1726    0.1715   -2.0621 C.ar      1 <0>        -0.2292
      5 C4          1.7820   -0.4190   -3.1308 C.ar      1 <0>        -0.0004
      6 C5          1.8380   -1.8150   -3.2156 C.ar      1 <0>        -0.1655
      7 C6          2.4860   -2.4761   -4.3503 C.2       1 <0>         0.1018
      8 C7          2.5080   -3.8341   -4.3748 C.2       1 <0>        -0.2901
      9 C8          1.9159   -4.5642   -3.3238 C.2       1 <0>         0.5202
     10 O2          1.9427   -5.7814   -3.3580 O.2       1 <0>        -0.4858
     11 O3          1.3239   -3.9521   -2.2862 O.3       1 <0>        -0.2758
     12 C9          1.2671   -2.6057   -2.2012 C.ar      1 <0>         0.1843
     13 C10         0.6563   -1.9891   -1.1195 C.ar      1 <0>        -0.1783
     14 C11         3.1108   -1.6717   -5.4610 C.3       1 <0>        -0.1728
     15 C12         2.0549   -1.3068   -6.4724 C.2       1 <0>         0.5019
     16 O4          0.9018   -1.6665   -6.3066 O.co2     1 <0>        -0.6805
     17 O5          2.3537   -0.6518   -7.4563 O.co2     1 <0>        -0.6895
     18 H1          1.0053    1.8021    0.0021 H         1 <0>         0.0585
     19 H2         -0.5445    1.7859   -0.8732 H         1 <0>         0.0601
     20 H3         -0.5275    1.7763    0.9067 H         1 <0>         0.1010
     21 H4          1.1295    1.2486   -1.9968 H         1 <0>         0.1374
     22 H5          2.2195    0.1889   -3.9089 H         1 <0>         0.1425
     23 H6          2.9775   -4.3533   -5.1973 H         1 <0>         0.1556
     24 H7          0.2181   -2.5850   -0.3326 H         1 <0>         0.1476
     25 H8          3.5491   -0.7627   -5.0491 H         1 <0>         0.0833
     26 H9          3.8883   -2.2630   -5.9447 H         1 <0>         0.0868
@<TRIPOS>BOND
     1    1    2 1
     2    1   18 1
     3    1   19 1
     4    1   20 1
     5    2    3 1
     6    3   13 ar
     7    3    4 ar
     8    4    5 ar
     9    4   21 1
    10    5    6 ar
    11    5   22 1
    12    6   12 ar
    13    6    7 1
    14    7    8 2
    15    7   14 1
    16    8    9 1
    17    8   23 1
    18    9   10 2
    19    9   11 1
    20   11   12 1
    21   12   13 ar
    22   13   24 1
    23   14   15 1
    24   14   25 1
    25   14   26 1
    26   15   16 2
    27   15   17 1
@<TRIPOS>MOLECULE
ZINC36175372
   22    23     0     0     0
SMALL
USER_CHARGES

@<TRIPOS>ATOM
      1 C1         -0.0168    1.3844    0.0097 C.ar      1 <0>        -0.1353
      2 C2          1.1513    2.0935    0.0023 C.ar      1 <0>        -0.0293
      3 C3          2.3741    1.4156   -0.0129 C.ar      1 <0>        -0.1235
      4 C4          3.6440    2.1475   -0.0206 C.2       1 <0>         0.0909
      5 C5          4.7968    1.4309   -0.0350 C.2       1 <0>        -0.2754
      6 C6          4.7462    0.0205   -0.0421 C.2       1 <0>         0.5190
      7 O1          5.7876   -0.6106   -0.0550 O.2       1 <0>        -0.4804
      8 O2          3.5797   -0.6431   -0.0347 O.3       1 <0>        -0.2744
      9 C7          2.3978    0.0094   -0.0207 C.ar      1 <0>         0.1548
     10 C8          1.1996   -0.6916   -0.0135 C.ar      1 <0>        -0.1310
     11 C9          0.0021   -0.0041    0.0020 C.ar      1 <0>         0.0085
     12 Cl1        -1.4943   -0.8841    0.0121 Cl        1 <0>        -0.0594
     13 C10         3.6692    3.6543   -0.0132 C.3       1 <0>        -0.1730
     14 C11         3.5412    4.1658   -1.4249 C.2       1 <0>         0.5018
     15 O3          3.4389    3.3796   -2.3512 O.co2     1 <0>        -0.6810
     16 O4          3.5398    5.3657   -1.6408 O.co2     1 <0>        -0.6873
     17 H1         -0.9614    1.9076    0.0260 H         1 <0>         0.1431
     18 H2          1.1300    3.1733    0.0079 H         1 <0>         0.1492
     19 H3          5.7500    1.9386   -0.0413 H         1 <0>         0.1588
     20 H4          1.2040   -1.7716   -0.0196 H         1 <0>         0.1504
     21 H5          2.8389    4.0286    0.5856 H         1 <0>         0.0850
     22 H6          4.6104    3.9998    0.4145 H         1 <0>         0.0883
@<TRIPOS>BOND
     1    1   11 ar
     2    1    2 ar
     3    1   17 1
     4    2    3 ar
     5    2   18 1
     6    3    9 ar
     7    3    4 1
     8    4    5 2
     9    4   13 1
    10    5    6 1
    11    5   19 1
    12    6    7 2
    13    6    8 1
    14    8    9 1
    15    9   10 ar
    16   10   11 ar
    17   10   20 1
    18   11   12 1
    19   13   14 1
    20   13   21 1
    21   13   22 1
    22   14   15 2
    23   14   16 1
@<TRIPOS>MOLECULE
ZINC00003724
   29    32     0     0     0
SMALL
USER_CHARGES
difluoroBLAHdione
@<TRIPOS>ATOM
      1 C1         -0.0167    1.3813    0.0096 C.ar      1 <0>        -0.1308
      2 C2          1.1656    2.0909    0.0022 C.ar      1 <0>        -0.0612
      3 C3          2.3864    1.4147   -0.0139 C.ar      1 <0>        -0.0440
      4 C4          2.3970    0.0202   -0.0206 C.ar      1 <0>        -0.0769
      5 C5          1.2107   -0.6818   -0.0127 C.ar      1 <0>        -0.1098
      6 C6          0.0021   -0.0041    0.0020 C.ar      1 <0>         0.1132
      7 F1         -1.1590   -0.6948    0.0094 F         1 <0>        -0.1277
      8 C7          3.8357   -0.4116   -0.0350 C.3       1 <0>         0.2150
      9 C8          4.6659    0.8403   -0.0408 C.ar      1 <0>        -0.0769
     10 C9          3.7826    1.9193   -0.0261 C.ar      1 <0>        -0.0440
     11 C10         4.2891    3.2199   -0.0263 C.ar      1 <0>        -0.0612
     12 C11         5.6518    3.4302   -0.0423 C.ar      1 <0>        -0.1308
     13 C12         6.5229    2.3530   -0.0583 C.ar      1 <0>         0.1132
     14 C13         6.0268    1.0591   -0.0575 C.ar      1 <0>        -0.1099
     15 F2          7.8572    2.5642   -0.0744 F         1 <0>        -0.1277
     16 C14         4.1382   -1.2780   -1.2322 C.2       1 <0>         0.5438
     17 O1          4.0208   -0.9821   -2.4020 O.2       1 <0>        -0.4373
     18 N1          4.5674   -2.4529   -0.7242 N.am      1 <0>        -0.6782
     19 C15         4.5738   -2.4377    0.6149 C.2       1 <0>         0.7061
     20 O2          4.9198   -3.3801    1.3000 O.2       1 <0>        -0.5259
     21 N2          4.1527   -1.2601    1.1173 N.am      1 <0>        -0.7051
     22 H1         -0.9601    1.9069    0.0169 H         1 <0>         0.1497
     23 H2          1.1468    3.1707    0.0084 H         1 <0>         0.1448
     24 H3          1.2232   -1.7617   -0.0184 H         1 <0>         0.1402
     25 H4          3.6132    4.0622   -0.0138 H         1 <0>         0.1448
     26 H5          6.0411    4.4376   -0.0420 H         1 <0>         0.1497
     27 H6          6.7075    0.2207   -0.0696 H         1 <0>         0.1402
     28 H7          4.8371   -3.2136   -1.2622 H         1 <0>         0.4394
     29 H8          4.0752   -1.0217    2.0543 H         1 <0>         0.4472
@<TRIPOS>BOND
     1    1    6 ar
     2    1    2 ar
     3    1   22 1
     4    2    3 ar
     5    2   23 1
     6    3   10 1
     7    3    4 ar
     8    4    5 ar
     9    4    8 1
    10    5    6 ar
    11    5   24 1
    12    6    7 1
    13    8   21 1
    14    8    9 1
    15    8   16 1
    16    9   14 ar
    17    9   10 ar
    18   10   11 ar
    19   11   12 ar
    20   11   25 1
    21   12   13 ar
    22   12   26 1
    23   13   14 ar
    24   13   15 1
    25   14   27 1
    26   16   17 2
    27   16   18 am
    28   18   19 am
    29   18   28 1
    30   19   20 2
    31   19   21 am
    32   21   29 1
@<TRIPOS>MOLECULE
ZINC05853925
   33    34     0     0     0
SMALL
USER_CHARGES

@<TRIPOS>ATOM
      1 C1         -0.0187    1.5258    0.0104 C.3       1 <0>        -0.1470
      2 C2          0.0021   -0.0041    0.0020 C.3       1 <0>         0.0638
      3 O1          0.6709   -0.4649   -1.1737 O.3       1 <0>        -0.3705
      4 C3          0.7759   -1.7997   -1.3349 C.2       1 <0>         0.5369
      5 C4          1.4496   -2.3445   -2.5176 C.2       1 <0>        -0.4659
      6 C5          2.0816   -1.5532   -3.6388 C.3       1 <0>         0.1940
      7 N1          2.6222   -2.5393   -4.5817 N.am      1 <0>        -0.6126
      8 C6          2.3536   -3.7653   -4.0967 C.2       1 <0>         0.5140
      9 O2          2.6638   -4.8106   -4.6325 O.2       1 <0>        -0.5338
     10 C7          1.6301   -3.6518   -2.8120 C.2       1 <0>         0.2819
     11 O3          1.2125   -4.6909   -2.0532 O.3       1 <0>        -0.6139
     12 C8          3.3286   -2.2416   -5.8302 C.3       1 <0>         0.1738
     13 C9          4.8067   -2.1324   -5.5573 C.ar      1 <0>        -0.1040
     14 C10         5.3585   -0.9113   -5.2179 C.ar      1 <0>        -0.1032
     15 C11         6.7143   -0.8111   -4.9675 C.ar      1 <0>        -0.1265
     16 C12         7.5182   -1.9321   -5.0561 C.ar      1 <0>        -0.1216
     17 C13         6.9662   -3.1534   -5.3947 C.ar      1 <0>        -0.1244
     18 C14         5.6097   -3.2545   -5.6408 C.ar      1 <0>        -0.0960
     19 O4          0.3120   -2.5512   -0.4995 O.2       1 <0>        -0.5356
     20 H1          1.0039    1.9031    0.0027 H         1 <0>         0.0613
     21 H2         -0.5459    1.8868   -0.8726 H         1 <0>         0.0614
     22 H3         -0.5289    1.8773    0.9072 H         1 <0>         0.0686
     23 H4          0.5293   -0.3651    0.8851 H         1 <0>         0.0555
     24 H5         -1.0205   -0.3814    0.0098 H         1 <0>         0.0557
     25 H6          1.3304   -0.9360   -4.1316 H         1 <0>         0.0568
     26 H7          2.8848   -0.9275   -3.2494 H         1 <0>         0.0548
     27 H8          3.1499   -3.0418   -6.5485 H         1 <0>         0.0868
     28 H9          2.9638   -1.2990   -6.2381 H         1 <0>         0.0857
     29 H10         4.7304   -0.0354   -5.1486 H         1 <0>         0.1218
     30 H11         7.1455    0.1431   -4.7030 H         1 <0>         0.1194
     31 H12         8.5776   -1.8537   -4.8612 H         1 <0>         0.1178
     32 H13         7.5944   -4.0292   -5.4642 H         1 <0>         0.1196
     33 H14         5.1779   -4.2094   -5.9016 H         1 <0>         0.1256
@<TRIPOS>BOND
     1    1    2 1
     2    1   20 1
     3    1   21 1
     4    1   22 1
     5    2    3 1
     6    2   23 1
     7    2   24 1
     8    3    4 1
     9    4    5 1
    10    4   19 2
    11    5   10 2
    12    5    6 1
    13    6    7 1
    14    6   25 1
    15    6   26 1
    16    7    8 am
    17    7   12 1
    18    8    9 2
    19    8   10 1
    20   10   11 1
    21   12   13 1
    22   12   27 1
    23   12   28 1
    24   13   18 ar
    25   13   14 ar
    26   14   15 ar
    27   14   29 1
    28   15   16 ar
    29   15   30 1
    30   16   17 ar
    31   16   31 1
    32   17   18 ar
    33   17   32 1
    34   18   33 1
@<TRIPOS>MOLECULE
ZINC02386229
   31    32     0     0     0
SMALL
USER_CHARGES
2-(benzoyl-phenyl-amino)acetic acid
@<TRIPOS>ATOM
      1 C1         -3.5924    3.1858    1.5544 C.ar      1 <0>        -0.0973
      2 C2         -2.4031    3.8911    1.5046 C.ar      1 <0>        -0.1365
      3 C3         -1.2364    3.2567    1.1309 C.ar      1 <0>        -0.0634
      4 C4         -1.2577    1.9002    0.8026 C.ar      1 <0>        -0.1341
      5 C5         -2.4619    1.1957    0.8498 C.ar      1 <0>        -0.0914
      6 C6         -3.6203    1.8409    1.2306 C.ar      1 <0>        -0.1258
      7 C7         -0.0116    1.2141    0.4008 C.2       1 <0>         0.5602
      8 O1          0.8828    1.8413   -0.1325 O.2       1 <0>        -0.5276
      9 N1          0.1308   -0.1080    0.6207 N.am      1 <0>        -0.5162
     10 C8         -0.9021   -0.8440    1.3541 C.3       1 <0>         0.0235
     11 C9         -1.6334   -1.7607    0.4076 C.2       1 <0>         0.4472
     12 O2         -1.3237   -1.7957   -0.7597 O.co2     1 <0>        -0.6094
     13 C10         1.2644   -0.7773    0.1489 C.ar      1 <0>         0.1827
     14 C11         1.5014   -2.0938    0.5227 C.ar      1 <0>        -0.1414
     15 C12         2.6194   -2.7534    0.0512 C.ar      1 <0>        -0.1002
     16 C13         3.5079   -2.1011   -0.7839 C.ar      1 <0>        -0.1571
     17 C14         3.2777   -0.7887   -1.1538 C.ar      1 <0>        -0.1055
     18 C15         2.1589   -0.1251   -0.6900 C.ar      1 <0>        -0.1664
     19 H1         -4.5029    3.6872    1.8476 H         1 <0>         0.1247
     20 H2         -2.3880    4.9406    1.7592 H         1 <0>         0.1266
     21 H3         -0.3088    3.8085    1.0921 H         1 <0>         0.1318
     22 H4         -2.4859    0.1470    0.5927 H         1 <0>         0.1562
     23 H5         -4.5519    1.2961    1.2715 H         1 <0>         0.1311
     24 H6         -0.4365   -1.4335    2.1439 H         1 <0>         0.0851
     25 H7         -1.6071   -0.1389    1.7945 H         1 <0>         0.1162
     26 H8          0.8099   -2.6024    1.1781 H         1 <0>         0.1214
     27 H9          2.8020   -3.7784    0.3382 H         1 <0>         0.1189
     28 H10         4.3834   -2.6180   -1.1483 H         1 <0>         0.1136
     29 H11         3.9734   -0.2822   -1.8064 H         1 <0>         0.1174
     30 H12         1.9798    0.9000   -0.9789 H         1 <0>         0.1717
     31 O3         -2.6289   -2.5383    0.8615 O.co2     1 <0>        -0.7562
@<TRIPOS>BOND
     1    1    6 ar
     2    1    2 ar
     3    1   19 1
     4    2    3 ar
     5    2   20 1
     6    3    4 ar
     7    3   21 1
     8    4    5 ar
     9    4    7 1
    10    5    6 ar
    11    5   22 1
    12    6   23 1
    13    7    8 2
    14    7    9 am
    15    9   10 1
    16    9   13 1
    17   10   11 1
    18   10   24 1
    19   10   25 1
    20   11   12 2
    21   11   31 1
    22   13   18 ar
    23   13   14 ar
    24   14   15 ar
    25   14   26 1
    26   15   16 ar
    27   15   27 1
    28   16   17 ar
    29   16   28 1
    30   17   18 ar
    31   17   29 1
    32   18   30 1
@<TRIPOS>MOLECULE
ZINC05234694
   24    25     0     0     0
SMALL
USER_CHARGES
2-(5,7-dihydroxy-2-oxo-chromen-4-yl)acetic acid
@<TRIPOS>ATOM
      1 C1          0.4898    5.0755   -1.4723 C.ar      1 <0>        -0.2042
      2 C2         -0.1989    5.5053   -2.6022 C.ar      1 <0>         0.1763
      3 C3         -1.0609    4.6499   -3.2708 C.ar      1 <0>        -0.1836
      4 C4         -1.2443    3.3536   -2.8167 C.ar      1 <0>         0.1800
      5 C5         -0.5557    2.9143   -1.6710 C.ar      1 <0>        -0.1709
      6 C6          0.3207    3.7882   -1.0028 C.ar      1 <0>         0.2150
      7 O1          0.9921    3.3702    0.0999 O.3       1 <0>        -0.4611
      8 C7         -0.7416    1.5850   -1.2129 C.2       1 <0>         0.0933
      9 C8         -1.5924    0.7714   -1.8908 C.2       1 <0>        -0.2888
     10 C9         -2.2662    1.2537   -3.0305 C.2       1 <0>         0.5167
     11 O2         -3.0275    0.5180   -3.6330 O.2       1 <0>        -0.4822
     12 O3         -2.0822    2.5129   -3.4631 O.3       1 <0>        -0.2723
     13 C10        -0.0127    1.0858    0.0080 C.3       1 <0>        -0.1410
     14 C11         1.4142    0.7648   -0.3551 C.2       1 <0>         0.4875
     15 O4          1.7998    0.9249   -1.4889 O.co2     1 <0>        -0.6297
     16 O5         -0.0249    6.7734   -3.0542 O.3       1 <0>        -0.4890
     17 H1          1.1587    5.7514   -0.9604 H         1 <0>         0.1456
     18 H2         -1.5900    4.9943   -4.1471 H         1 <0>         0.1483
     19 H3          0.5194    3.5227    0.9296 H         1 <0>         0.3938
     20 H4         -1.7525   -0.2431   -1.5566 H         1 <0>         0.1580
     21 H5         -0.0269    1.8555    0.7797 H         1 <0>         0.0940
     22 H6         -0.5034    0.1873    0.3820 H         1 <0>         0.0823
     23 H7         -0.6416    7.4143   -2.6748 H         1 <0>         0.3958
     24 O6          2.2569    0.3009    0.5811 O.co2     1 <0>        -0.7636
@<TRIPOS>BOND
     1    1    6 ar
     2    1    2 ar
     3    1   17 1
     4    2    3 ar
     5    2   16 1
     6    3    4 ar
     7    3   18 1
     8    4   12 1
     9    4    5 ar
    10    5    6 ar
    11    5    8 1
    12    6    7 1
    13    7   19 1
    14    8    9 2
    15    8   13 1
    16    9   10 1
    17    9   20 1
    18   10   11 2
    19   10   12 1
    20   13   14 1
    21   13   21 1
    22   13   22 1
    23   14   15 2
    24   14   24 1
    25   16   23 1
@<TRIPOS>MOLECULE
ZINC01764809
   22    23     0     0     0
SMALL
USER_CHARGES
2-(2-oxochromen-4-yl)acetic acid
@<TRIPOS>ATOM
      1 C1          1.1665    3.1710    0.0080 C.ar      1 <0>        -0.1462
      2 C2          1.1712    1.7834    0.0005 C.ar      1 <0>        -0.0729
      3 C3         -0.0126    1.0758    0.0080 C.ar      1 <0>        -0.1397
      4 C4         -1.2239    1.7559    0.0174 C.ar      1 <0>         0.1416
      5 C5         -1.2246    3.1616    0.0308 C.ar      1 <0>        -0.1318
      6 C6         -0.0134    3.8604    0.0230 C.ar      1 <0>        -0.0436
      7 C7         -2.5071    3.8718    0.0464 C.2       1 <0>         0.0830
      8 C8         -3.6471    3.1356    0.0528 C.2       1 <0>        -0.2755
      9 C9         -3.5720    1.7258    0.0445 C.2       1 <0>         0.5178
     10 O1         -4.6022    1.0766    0.0508 O.2       1 <0>        -0.4837
     11 O2         -2.3941    1.0829    0.0303 O.3       1 <0>        -0.2768
     12 C10        -2.5580    5.3779    0.0555 C.3       1 <0>        -0.1451
     13 C11        -2.4640    5.8923   -1.3578 C.2       1 <0>         0.4703
     14 O3         -2.3656    5.1155   -2.2781 O.co2     1 <0>        -0.6252
     15 H1          2.1022    3.7102    0.0016 H         1 <0>         0.1319
     16 H2          2.1114    1.2522   -0.0118 H         1 <0>         0.1352
     17 H3          0.0021   -0.0041    0.0020 H         1 <0>         0.1393
     18 H4         -0.0104    4.9404    0.0285 H         1 <0>         0.1388
     19 H5         -4.6089    3.6267    0.0640 H         1 <0>         0.1577
     20 H6         -3.4972    5.7070    0.5002 H         1 <0>         0.0930
     21 H7         -1.7237    5.7661    0.6398 H         1 <0>         0.0903
     22 O4         -2.4894    7.2133   -1.5944 O.co2     1 <0>        -0.7585
@<TRIPOS>BOND
     1    1    6 ar
     2    1    2 ar
     3    1   15 1
     4    2    3 ar
     5    2   16 1
     6    3    4 ar
     7    3   17 1
     8    4   11 1
     9    4    5 ar
    10    5    6 ar
    11    5    7 1
    12    6   18 1
    13    7    8 2
    14    7   12 1
    15    8    9 1
    16    8   19 1
    17    9   10 2
    18    9   11 1
    19   12   13 1
    20   12   20 1
    21   12   21 1
    22   13   14 2
    23   13   22 1
@<TRIPOS>MOLECULE
ZINC20231389
   31    32     0     0     0
SMALL
USER_CHARGES
2-[benzoyl-(4-chlorophenyl)amino]acetic acid
@<TRIPOS>ATOM
      1 C1         -0.3280   -6.8463   -1.3098 C.ar      1 <0>        -0.0958
      2 C2         -1.4737   -6.0768   -1.2110 C.ar      1 <0>        -0.1370
      3 C3         -1.3838   -4.7384   -0.8892 C.ar      1 <0>        -0.0622
      4 C4         -0.1333   -4.1607   -0.6629 C.ar      1 <0>        -0.1361
      5 C5          1.0190   -4.9413   -0.7698 C.ar      1 <0>        -0.0950
      6 C6          0.9145   -6.2799   -1.0868 C.ar      1 <0>        -0.1257
      7 C7         -0.0294   -2.7272   -0.3176 C.2       1 <0>         0.5635
      8 O1         -0.9660   -2.1597    0.2101 O.2       1 <0>        -0.5257
      9 N1          1.1038   -2.0494   -0.5878 N.am      1 <0>        -0.5161
     10 C8          2.1847   -2.6977   -1.3344 C.3       1 <0>         0.0189
     11 C9          3.3215   -3.0163   -0.3977 C.2       1 <0>         0.4463
     12 O2          3.2373   -2.7311    0.7734 O.co2     1 <0>        -0.6092
     13 O3          4.4275   -3.6169   -0.8644 O.co2     1 <0>        -0.7530
     14 C10         1.2477   -0.7268   -0.1553 C.ar      1 <0>         0.1904
     15 C11         0.3020   -0.1654    0.6929 C.ar      1 <0>        -0.1545
     16 C12         0.4463    1.1406    1.1180 C.ar      1 <0>        -0.0905
     17 C13         1.5320    1.8898    0.6996 C.ar      1 <0>        -0.0678
     18 C14         2.4758    1.3329   -0.1455 C.ar      1 <0>        -0.0862
     19 C15         2.3363    0.0274   -0.5736 C.ar      1 <0>        -0.1336
     20 Cl1         1.7101    3.5314    1.2355 Cl        1 <0>        -0.0910
     21 H1         -0.4040   -7.8937   -1.5617 H         1 <0>         0.1249
     22 H2         -2.4406   -6.5251   -1.3860 H         1 <0>         0.1269
     23 H3         -2.2788   -4.1388   -0.8128 H         1 <0>         0.1324
     24 H4          1.9897   -4.4994   -0.6004 H         1 <0>         0.1616
     25 H5          1.8049   -6.8861   -1.1654 H         1 <0>         0.1314
     26 H6          1.8110   -3.6279   -1.7871 H         1 <0>         0.1196
     27 H7          2.5403   -2.0218   -2.1260 H         1 <0>         0.0886
     28 H8         -0.5453   -0.7498    1.0200 H         1 <0>         0.1806
     29 H9         -0.2912    1.5791    1.7739 H         1 <0>         0.1299
     30 H10         3.3221    1.9198   -0.4705 H         1 <0>         0.1314
     31 H11         3.0734   -0.4069   -1.2329 H         1 <0>         0.1326
@<TRIPOS>BOND
     1    1    6 ar
     2    1    2 ar
     3    1   21 1
     4    2    3 ar
     5    2   22 1
     6    3    4 ar
     7    3   23 1
     8    4    5 ar
     9    4    7 1
    10    5    6 ar
    11    5   24 1
    12    6   25 1
    13    7    8 2
    14    7    9 am
    15    9   10 1
    16    9   14 1
    17   10   11 1
    18   10   26 1
    19   10   27 1
    20   11   12 2
    21   11   13 1
    22   14   19 ar
    23   14   15 ar
    24   15   16 ar
    25   15   28 1
    26   16   17 ar
    27   16   29 1
    28   17   18 ar
    29   17   20 1
    30   18   19 ar
    31   18   30 1
    32   19   31 1
@<TRIPOS>MOLECULE
ZINC00595659
   34    35     0     0     0
SMALL
USER_CHARGES
2-(benzoyl-(p-tolyl)amino)acetic acid
@<TRIPOS>ATOM
      1 C1          9.7567   -2.7513    0.5494 C.3       1 <0>        -0.1037
      2 C2          8.4527   -2.0190    0.3642 C.ar      1 <0>        -0.1271
      3 C3          7.2977   -2.7265    0.0854 C.ar      1 <0>        -0.1038
      4 C4          6.1010   -2.0585   -0.0849 C.ar      1 <0>        -0.1628
      5 C5          6.0584   -0.6745    0.0242 C.ar      1 <0>         0.1713
      6 C6          7.2213    0.0335    0.2987 C.ar      1 <0>        -0.1379
      7 C7          8.4136   -0.6411    0.4740 C.ar      1 <0>        -0.0985
      8 N1          4.8482    0.0050   -0.1476 N.am      1 <0>        -0.5153
      9 C8          4.8317    1.4688   -0.2038 C.3       1 <0>         0.0170
     10 C9          4.8718    2.0258    1.1959 C.2       1 <0>         0.4455
     11 O1          4.9102    1.2769    2.1432 O.co2     1 <0>        -0.6093
     12 C10         3.6972   -0.6868   -0.2614 C.2       1 <0>         0.5632
     13 O2          3.6908   -1.8895   -0.0843 O.2       1 <0>        -0.5265
     14 C11         2.4425    0.0168   -0.6014 C.ar      1 <0>        -0.1308
     15 C12         1.4424   -0.6409   -1.3195 C.ar      1 <0>        -0.0649
     16 C13         0.2740    0.0218   -1.6340 C.ar      1 <0>        -0.1356
     17 C14         0.0925    1.3355   -1.2397 C.ar      1 <0>        -0.0991
     18 C15         1.0798    1.9933   -0.5276 C.ar      1 <0>        -0.1250
     19 C16         2.2528    1.3421   -0.2062 C.ar      1 <0>        -0.1017
     20 H1         10.2619   -2.8426   -0.4121 H         1 <0>         0.0617
     21 H2         10.3901   -2.1961    1.2413 H         1 <0>         0.0602
     22 H3          9.5614   -3.7448    0.9531 H         1 <0>         0.0598
     23 H4          7.3316   -3.8026    0.0003 H         1 <0>         0.1177
     24 H5          5.1993   -2.6117   -0.3023 H         1 <0>         0.1707
     25 H6          7.1923    1.1101    0.3798 H         1 <0>         0.1247
     26 H7          9.3173   -0.0915    0.6922 H         1 <0>         0.1194
     27 H8          5.7005    1.8209   -0.7600 H         1 <0>         0.0878
     28 H9          3.9216    1.8030   -0.7020 H         1 <0>         0.1211
     29 H10         1.5831   -1.6661   -1.6285 H         1 <0>         0.1311
     30 H11        -0.5006   -0.4859   -2.1895 H         1 <0>         0.1264
     31 H12        -0.8220    1.8513   -1.4926 H         1 <0>         0.1243
     32 H13         0.9320    3.0189   -0.2231 H         1 <0>         0.1310
     33 H14         3.0228    1.8568    0.3492 H         1 <0>         0.1649
     34 O3          4.8648    3.3540    1.3901 O.co2     1 <0>        -0.7557
@<TRIPOS>BOND
     1    1    2 1
     2    1   20 1
     3    1   21 1
     4    1   22 1
     5    2    7 ar
     6    2    3 ar
     7    3    4 ar
     8    3   23 1
     9    4    5 ar
    10    4   24 1
    11    5    6 ar
    12    5    8 1
    13    6    7 ar
    14    6   25 1
    15    7   26 1
    16    8    9 1
    17    8   12 am
    18    9   10 1
    19    9   27 1
    20    9   28 1
    21   10   11 2
    22   10   34 1
    23   12   13 2
    24   12   14 1
    25   14   19 ar
    26   14   15 ar
    27   15   16 ar
    28   15   29 1
    29   16   17 ar
    30   16   30 1
    31   17   18 ar
    32   17   31 1
    33   18   19 ar
    34   18   32 1
    35   19   33 1
@<TRIPOS>MOLECULE
ZINC00058124
   22    23     0     0     0
SMALL
USER_CHARGES

@<TRIPOS>ATOM
      1 C1         -0.0184    1.5028    0.0103 C.3       1 <0>        -0.1292
      2 C2          0.0021   -0.0041    0.0020 C.2       1 <0>         0.0310
      3 C3          0.0061   -0.6952   -1.1673 C.2       1 <0>        -0.2525
      4 C4          0.0259   -2.1051   -1.1490 C.2       1 <0>         0.5078
      5 O1          0.0293   -2.7124   -2.2048 O.2       1 <0>        -0.4590
      6 O2          0.0415   -2.7949    0.0022 O.3       1 <0>        -0.2624
      7 C5          0.0384   -2.1687    1.1992 C.ar      1 <0>         0.1365
      8 C6          0.0243   -0.7629    1.2545 C.ar      1 <0>        -0.1499
      9 C7          0.0266   -0.1102    2.4924 C.ar      1 <0>        -0.0475
     10 C8          0.0475   -0.8403    3.6463 C.ar      1 <0>        -0.1506
     11 C9          0.0665   -2.2313    3.6014 C.ar      1 <0>         0.1401
     12 C10         0.0542   -2.8977    2.3828 C.ar      1 <0>         0.0667
     13 O3          0.0734   -4.2579    2.3474 O.3       1 <0>        -0.4741
     14 O4          0.0876   -2.9429    4.7586 O.3       1 <0>        -0.4839
     15 H1          1.0042    1.8801    0.0026 H         1 <0>         0.0934
     16 H2         -0.5455    1.8639   -0.8728 H         1 <0>         0.0864
     17 H3         -0.5286    1.8543    0.9071 H         1 <0>         0.0827
     18 H4         -0.0061   -0.1662   -2.1088 H         1 <0>         0.1661
     19 H5          0.0123    0.9689    2.5351 H         1 <0>         0.1492
     20 H6          0.0496   -0.3346    4.6006 H         1 <0>         0.1483
     21 H7          0.9623   -4.6385    2.3332 H         1 <0>         0.3973
     22 H8         -0.7895   -3.1612    5.1021 H         1 <0>         0.4038
@<TRIPOS>BOND
     1    1    2 1
     2    1   15 1
     3    1   16 1
     4    1   17 1
     5    2    8 1
     6    2    3 2
     7    3    4 1
     8    3   18 1
     9    4    5 2
    10    4    6 1
    11    6    7 1
    12    7   12 ar
    13    7    8 ar
    14    8    9 ar
    15    9   10 ar
    16    9   19 1
    17   10   11 ar
    18   10   20 1
    19   11   12 ar
    20   11   14 1
    21   12   13 1
    22   13   21 1
    23   14   22 1
@<TRIPOS>MOLECULE
ZINC03871576
   30    32     0     0     0
SMALL
USER_CHARGES

@<TRIPOS>ATOM
      1 C1         -0.0169    1.3935    0.0097 C.ar      1 <0>        -0.0604
      2 C2          1.1676    2.0963    0.0022 C.ar      1 <0>        -0.1497
      3 C3          2.3803    1.4179   -0.0135 C.ar      1 <0>         0.1360
      4 C4          2.4038    0.0284   -0.0212 C.ar      1 <0>        -0.1474
      5 C5          1.2241   -0.6823   -0.0133 C.ar      1 <0>        -0.0612
      6 C6          0.0021   -0.0041    0.0020 C.ar      1 <0>        -0.0853
      7 C7         -1.2639   -0.7610    0.0105 C.2       1 <0>         0.2092
      8 C8         -1.2134   -2.1203    0.0083 C.2       1 <0>        -0.3116
      9 C9         -2.4177   -2.8631    0.0169 C.2       1 <0>         0.4226
     10 O1         -2.4099   -4.0836    0.0156 O.2       1 <0>        -0.4538
     11 C10        -3.6809   -2.1061    0.0279 C.ar      1 <0>        -0.2659
     12 C11        -4.9199   -2.7591    0.0374 C.ar      1 <0>         0.2192
     13 C12        -6.0832   -2.0121    0.0480 C.ar      1 <0>        -0.2049
     14 C13        -6.0212   -0.6227    0.0493 C.ar      1 <0>         0.1922
     15 C14        -4.7984    0.0300    0.0400 C.ar      1 <0>        -0.1830
     16 C15        -3.6212   -0.7020    0.0293 C.ar      1 <0>         0.1830
     17 O2         -2.4220   -0.0821    0.0257 O.3       1 <0>        -0.2182
     18 O3         -7.1695    0.1013    0.0593 O.3       1 <0>        -0.4872
     19 O4         -4.9782   -4.1150    0.0356 O.3       1 <0>        -0.4722
     20 O5          3.5455    2.1145   -0.0218 O.3       1 <0>        -0.4965
     21 H1         -0.9589    1.9215    0.0260 H         1 <0>         0.1404
     22 H2          1.1538    3.1762    0.0081 H         1 <0>         0.1393
     23 H3          3.3485   -0.4949   -0.0338 H         1 <0>         0.1414
     24 H4          1.2432   -1.7622   -0.0196 H         1 <0>         0.1415
     25 H5         -0.2608   -2.6290   -0.0002 H         1 <0>         0.1637
     26 H6         -7.0423   -2.5086    0.0550 H         1 <0>         0.1502
     27 H7         -4.7627    1.1094    0.0411 H         1 <0>         0.1534
     28 H8         -7.4952    0.3100    0.9456 H         1 <0>         0.4037
     29 H9         -4.9875   -4.5094    0.9185 H         1 <0>         0.4031
     30 H10         3.8920    2.3119    0.8591 H         1 <0>         0.3984
@<TRIPOS>BOND
     1    1    6 ar
     2    1    2 ar
     3    1   21 1
     4    2    3 ar
     5    2   22 1
     6    3    4 ar
     7    3   20 1
     8    4    5 ar
     9    4   23 1
    10    5    6 ar
    11    5   24 1
    12    6    7 1
    13    7   17 1
    14    7    8 2
    15    8    9 1
    16    8   25 1
    17    9   10 2
    18    9   11 1
    19   11   16 ar
    20   11   12 ar
    21   12   13 ar
    22   12   19 1
    23   13   14 ar
    24   13   26 1
    25   14   15 ar
    26   14   18 1
    27   15   16 ar
    28   15   27 1
    29   16   17 1
    30   18   28 1
    31   19   29 1
    32   20   30 1
@<TRIPOS>MOLECULE
ZINC03871576
   29    31     0     0     0
SMALL
USER_CHARGES

@<TRIPOS>ATOM
      1 C1         -0.0169    1.3945    0.0097 C.ar      1 <0>        -0.0666
      2 C2          1.1672    2.0969    0.0022 C.ar      1 <0>        -0.1480
      3 C3          2.3804    1.4183   -0.0135 C.ar      1 <0>         0.1175
      4 C4          2.4042    0.0284   -0.0212 C.ar      1 <0>        -0.1471
      5 C5          1.2251   -0.6825   -0.0138 C.ar      1 <0>        -0.0696
      6 C6          0.0021   -0.0041    0.0020 C.ar      1 <0>        -0.0607
      7 C7         -1.2623   -0.7603    0.0105 C.2       1 <0>         0.1733
      8 C8         -1.2238   -2.1392    0.0085 C.2       1 <0>        -0.2675
      9 C9         -2.4161   -2.8666    0.0170 C.2       1 <0>         0.3649
     10 C10        -3.6370   -2.1554    0.0275 C.2       1 <0>        -0.3407
     11 C11        -4.8707   -2.8387    0.0369 C.2       1 <0>         0.2653
     12 C12        -6.0384   -2.1317    0.0475 C.2       1 <0>        -0.3780
     13 C13        -6.0158   -0.7277    0.0485 C.2       1 <0>         0.3615
     14 O1         -7.1627   -0.0461    0.0589 O.2       1 <0>        -0.6669
     15 C14        -4.7977   -0.0391    0.0393 C.2       1 <0>        -0.3147
     16 C15        -3.6098   -0.7430    0.0291 C.2       1 <0>         0.2111
     17 O2         -2.4272   -0.0920    0.0257 O.3       1 <0>        -0.2196
     18 O3         -4.8969   -4.1953    0.0351 O.3       1 <0>        -0.4477
     19 O4         -2.4024   -4.2178    0.0147 O.3       1 <0>        -0.5784
     20 O5          3.5452    2.1149   -0.0218 O.3       1 <0>        -0.4988
     21 H1         -0.9589    1.9225    0.0260 H         1 <0>         0.1416
     22 H2          1.1536    3.1768    0.0081 H         1 <0>         0.1349
     23 H3          3.3490   -0.4946   -0.0334 H         1 <0>         0.1360
     24 H4          1.2446   -1.7623   -0.0201 H         1 <0>         0.1407
     25 H5         -0.2747   -2.6546   -0.0001 H         1 <0>         0.1464
     26 H6         -6.9835   -2.6543    0.0547 H         1 <0>         0.1160
     27 H7         -4.7867    1.0408    0.0398 H         1 <0>         0.1203
     28 H8         -5.7877   -4.5715    0.0420 H         1 <0>         0.3828
     29 H9          3.8917    2.3124    0.8591 H         1 <0>         0.3921
@<TRIPOS>BOND
     1    1    6 ar
     2    1    2 ar
     3    1   21 1
     4    2    3 ar
     5    2   22 1
     6    3    4 ar
     7    3   20 1
     8    4    5 ar
     9    4   23 1
    10    5    6 ar
    11    5   24 1
    12    6    7 1
    13    7   17 1
    14    7    8 2
    15    8    9 1
    16    8   25 1
    17    9   10 2
    18    9   19 1
    19   10   16 1
    20   10   11 1
    21   11   12 2
    22   11   18 1
    23   12   13 1
    24   12   26 1
    25   13   14 2
    26   13   15 1
    27   15   16 2
    28   15   27 1
    29   16   17 1
    30   18   28 1
    31   20   29 1
@<TRIPOS>MOLECULE
ZINC04851577
   34    35     0     0     0
SMALL
USER_CHARGES

@<TRIPOS>ATOM
      1 C1         -0.3431    1.1091    0.7592 C.ar      1 <0>        -0.0679
      2 C2          0.7756    1.9196    0.7092 C.ar      1 <0>        -0.1426
      3 C3          2.0228    1.3637    0.4934 C.ar      1 <0>        -0.0199
      4 C4          2.1512   -0.0027    0.3281 C.ar      1 <0>        -0.6754
      5 C5          1.0326   -0.8132    0.3789 C.ar      1 <0>        -0.0192
      6 C6         -0.2147   -0.2572    0.5933 C.ar      1 <0>        -0.1404
      7 S1          3.7407   -0.7111    0.0518 S.o2      1 <0>         2.6832
      8 O1          3.5241   -1.9474   -0.6145 O.2       1 <0>        -0.9289
      9 O2          4.5541    0.3173   -0.4959 O.2       1 <0>        -0.9529
     10 N1          4.3776   -1.0785    1.5357 N.pl3     1 <0>        -0.9200
     11 C7          4.0358   -2.3460    2.1860 C.3       1 <0>         0.0500
     12 C8          5.0963   -3.3711    1.8770 C.2       1 <0>         0.4848
     13 O3          6.0493   -3.0708    1.1783 O.co2     1 <0>        -0.6753
     14 O4          5.0013   -4.5008    2.3257 O.co2     1 <0>        -0.6928
     15 C9          5.2406   -0.1800    2.1671 C.ar      1 <0>         0.1689
     16 C10         4.9141    0.3399    3.4134 C.ar      1 <0>        -0.0774
     17 C11         5.7698    1.2276    4.0351 C.ar      1 <0>        -0.1127
     18 C12         6.9507    1.5993    3.4185 C.ar      1 <0>        -0.0662
     19 C13         7.2784    1.0841    2.1780 C.ar      1 <0>        -0.0403
     20 C14         6.4298    0.1913    1.5531 C.ar      1 <0>        -0.0241
     21 N2          8.5427    1.4855    1.5215 N.pl3     1 <0>         0.0377
     22 O5          9.2882    2.2633    2.0699 O.2       1 <0>        -0.1701
     23 O6          8.8300    1.0354    0.4368 O.3       1 <0>        -0.1498
     24 H1         -1.3169    1.5429    0.9323 H         1 <0>         0.1295
     25 H2          0.6753    2.9871    0.8385 H         1 <0>         0.1316
     26 H3          2.8967    1.9970    0.4537 H         1 <0>         0.1381
     27 H4          1.1329   -1.8807    0.2494 H         1 <0>         0.1425
     28 H5         -1.0887   -0.8904    0.6327 H         1 <0>         0.1333
     29 H6          3.9777   -2.1970    3.2642 H         1 <0>         0.0821
     30 H7          3.0726   -2.6965    1.8152 H         1 <0>         0.0853
     31 H8          3.9920    0.0504    3.8953 H         1 <0>         0.1443
     32 H9          5.5165    1.6325    5.0038 H         1 <0>         0.1487
     33 H10         7.6182    2.2938    3.9069 H         1 <0>         0.1520
     34 H11         6.6885   -0.2142    0.5861 H         1 <0>         0.1640
@<TRIPOS>BOND
     1    1    6 ar
     2    1    2 ar
     3    1   24 1
     4    2    3 ar
     5    2   25 1
     6    3    4 ar
     7    3   26 1
     8    4    5 ar
     9    4    7 1
    10    5    6 ar
    11    5   27 1
    12    6   28 1
    13    7    8 2
    14    7    9 2
    15    7   10 1
    16   10   11 1
    17   10   15 1
    18   11   12 1
    19   11   29 1
    20   11   30 1
    21   12   13 2
    22   12   14 1
    23   15   20 ar
    24   15   16 ar
    25   16   17 ar
    26   16   31 1
    27   17   18 ar
    28   17   32 1
    29   18   19 ar
    30   18   33 1
    31   19   20 ar
    32   19   21 1
    33   20   34 1
    34   21   22 2
    35   21   23 1
@<TRIPOS>MOLECULE
ZINC05883020
   34    35     0     0     0
SMALL
USER_CHARGES

@<TRIPOS>ATOM
      1 C1         -0.0223    1.3676    0.0425 C.ar      1 <0>        -0.1261
      2 C2          1.0126    1.8427   -0.7422 C.ar      1 <0>        -0.1189
      3 C3          2.2219    1.1763   -0.7705 C.ar      1 <0>        -0.1269
      4 C4          2.3980    0.0275   -0.0096 C.ar      1 <0>         0.1564
      5 C5          1.3564   -0.4470    0.7774 C.ar      1 <0>        -0.0825
      6 C6          0.1497    0.2242    0.8011 C.ar      1 <0>        -0.1123
      7 N1          3.6196   -0.6492   -0.0363 N.pl3     1 <0>        -0.9142
      8 C7          4.8462    0.0368    0.3777 C.3       1 <0>         0.0500
      9 C8          4.9924   -0.0553    1.8747 C.2       1 <0>         0.4875
     10 O1          4.1501   -0.6398    2.5347 O.co2     1 <0>        -0.6759
     11 O2          5.9529    0.4546    2.4259 O.co2     1 <0>        -0.6936
     12 S1          3.6815   -2.2268   -0.5359 S.o2      1 <0>         2.6846
     13 O3          4.7703   -2.8280    0.1515 O.2       1 <0>        -0.9247
     14 O4          2.3558   -2.7315   -0.4524 O.2       1 <0>        -0.9437
     15 C9          4.1095   -2.2156   -2.2451 C.ar      1 <0>        -0.6786
     16 C10         3.1169   -2.1592   -3.2059 C.ar      1 <0>         0.0302
     17 C11         3.4526   -2.1504   -4.5466 C.ar      1 <0>        -0.1364
     18 C12         4.7810   -2.1977   -4.9269 C.ar      1 <0>        -0.0098
     19 C13         5.7733   -2.2532   -3.9664 C.ar      1 <0>        -0.0704
     20 C14         5.4376   -2.2576   -2.6252 C.ar      1 <0>         0.0442
     21 N2          7.1954   -2.3043   -4.3737 N.pl3     1 <0>         0.0340
     22 O5          7.4890   -2.2975   -5.5464 O.2       1 <0>        -0.1586
     23 O6          8.0634   -2.3529   -3.5335 O.3       1 <0>        -0.1460
     24 H1         -0.9655    1.8931    0.0663 H         1 <0>         0.1199
     25 H2          0.8748    2.7357   -1.3337 H         1 <0>         0.1212
     26 H3          3.0296    1.5477   -1.3838 H         1 <0>         0.1215
     27 H4          1.4900   -1.3401    1.3699 H         1 <0>         0.1340
     28 H5         -0.6605   -0.1442    1.4128 H         1 <0>         0.1249
     29 H6          5.7049   -0.4340   -0.1009 H         1 <0>         0.0792
     30 H7          4.7942    1.0844    0.0814 H         1 <0>         0.0817
     31 H8          2.0792   -2.1222   -2.9087 H         1 <0>         0.1603
     32 H9          2.6772   -2.1070   -5.2971 H         1 <0>         0.1577
     33 H10         5.0432   -2.1915   -5.9746 H         1 <0>         0.1604
     34 H11         6.2132   -2.2973   -1.8746 H         1 <0>         0.1709
@<TRIPOS>BOND
     1    1    6 ar
     2    1    2 ar
     3    1   24 1
     4    2    3 ar
     5    2   25 1
     6    3    4 ar
     7    3   26 1
     8    4    5 ar
     9    4    7 1
    10    5    6 ar
    11    5   27 1
    12    6   28 1
    13    7    8 1
    14    7   12 1
    15    8    9 1
    16    8   29 1
    17    8   30 1
    18    9   10 2
    19    9   11 1
    20   12   13 2
    21   12   14 2
    22   12   15 1
    23   15   20 ar
    24   15   16 ar
    25   16   17 ar
    26   16   31 1
    27   17   18 ar
    28   17   32 1
    29   18   19 ar
    30   18   33 1
    31   19   20 ar
    32   19   21 1
    33   20   34 1
    34   21   22 2
    35   21   23 1
@<TRIPOS>MOLECULE
ZINC00575916
   35    37     0     0     0
SMALL
USER_CHARGES

@<TRIPOS>ATOM
      1 C1          2.1885   -3.4302   -2.0801 C.ar      1 <0>        -0.1150
      2 C2          3.4772   -2.9422   -2.2890 C.ar      1 <0>        -0.0853
      3 C3          3.9658   -1.9126   -1.5452 C.ar      1 <0>        -0.1074
      4 C4          3.1613   -1.3301   -0.5508 C.ar      1 <0>         0.0305
      5 C5          1.8505   -1.8261   -0.3387 C.ar      1 <0>        -0.0745
      6 C6          1.3810   -2.8911   -1.1265 C.ar      1 <0>        -0.1080
      7 C7          1.0460   -1.2435    0.6550 C.ar      1 <0>        -0.0457
      8 C8          1.5346   -0.2133    1.3988 C.ar      1 <0>        -0.1514
      9 C9          2.8229    0.2745    1.1900 C.ar      1 <0>         0.0042
     10 C10         3.6308   -0.2654    0.2366 C.ar      1 <0>        -0.6598
     11 S1          5.2568    0.3675   -0.0084 S.o2      1 <0>         2.6878
     12 O1          5.4118    1.4508    0.8981 O.2       1 <0>        -0.9634
     13 O2          6.1318   -0.7521   -0.0144 O.2       1 <0>        -0.9553
     14 N1          5.3058    1.0147   -1.5320 N.pl3     1 <0>        -1.0224
     15 C11         4.4581    2.0594   -1.8693 C.ar      1 <0>         0.1858
     16 C12         4.1368    3.0305   -0.9283 C.ar      1 <0>        -0.1966
     17 C13         3.2937    4.0684   -1.2663 C.ar      1 <0>        -0.0977
     18 C14         2.7600    4.1533   -2.5434 C.ar      1 <0>        -0.1572
     19 C15         3.0654    3.2019   -3.4902 C.ar      1 <0>        -0.0650
     20 C16         3.9238    2.1453   -3.1662 C.ar      1 <0>        -0.1553
     21 C17         4.2592    1.1284   -4.1738 C.2       1 <0>         0.5269
     22 O3          3.7916    1.2072   -5.3017 O.co2     1 <0>        -0.6825
     23 O4          5.0059    0.2032   -3.8843 O.co2     1 <0>        -0.6796
     24 H1          1.8236   -4.2455   -2.6871 H         1 <0>         0.1252
     25 H2          4.0975   -3.3880   -3.0525 H         1 <0>         0.1307
     26 H3          4.9667   -1.5454   -1.7178 H         1 <0>         0.1407
     27 H4          0.3845   -3.2794   -0.9761 H         1 <0>         0.1271
     28 H5          0.0452   -1.6108    0.8276 H         1 <0>         0.1320
     29 H6          0.9141    0.2328    2.1620 H         1 <0>         0.1317
     30 H7          3.1860    1.0930    1.7937 H         1 <0>         0.1428
     31 H8          5.9274    0.6631   -2.1885 H         1 <0>         0.4410
     32 H9          4.5476    2.9722    0.0688 H         1 <0>         0.1528
     33 H10         3.0471    4.8200   -0.5310 H         1 <0>         0.1188
     34 H11         2.1006    4.9703   -2.7965 H         1 <0>         0.1154
     35 H12         2.6461    3.2729   -4.4830 H         1 <0>         0.1286
@<TRIPOS>BOND
     1    1    6 ar
     2    1    2 ar
     3    1   24 1
     4    2    3 ar
     5    2   25 1
     6    3    4 ar
     7    3   26 1
     8    4   10 ar
     9    4    5 ar
    10    5    6 ar
    11    5    7 ar
    12    6   27 1
    13    7    8 ar
    14    7   28 1
    15    8    9 ar
    16    8   29 1
    17    9   10 ar
    18    9   30 1
    19   10   11 1
    20   11   12 2
    21   11   13 2
    22   11   14 1
    23   14   15 1
    24   14   31 1
    25   15   20 ar
    26   15   16 ar
    27   16   17 ar
    28   16   32 1
    29   17   18 ar
    30   17   33 1
    31   18   19 ar
    32   18   34 1
    33   19   20 ar
    34   19   35 1
    35   20   21 1
    36   21   22 2
    37   21   23 1
@<TRIPOS>MOLECULE
ZINC00575916
   34    36     0     0     0
SMALL
USER_CHARGES

@<TRIPOS>ATOM
      1 C1         -0.0164    1.3567    0.0095 C.ar      1 <0>        -0.1150
      2 C2          1.1685    2.0906    0.0021 C.ar      1 <0>        -0.1220
      3 C3          2.3785    1.4679   -0.0132 C.ar      1 <0>        -0.0757
      4 C4          2.4378    0.0637   -0.0214 C.ar      1 <0>         0.0281
      5 C5          1.2328   -0.6827   -0.0134 C.ar      1 <0>        -0.0706
      6 C6          0.0021   -0.0041    0.0020 C.ar      1 <0>        -0.1231
      7 C7          1.2920   -2.0865   -0.0210 C.ar      1 <0>        -0.0816
      8 C8          2.5022   -2.7094   -0.0359 C.ar      1 <0>        -0.1389
      9 C9          3.6867   -1.9757   -0.0433 C.ar      1 <0>        -0.0339
     10 C10         3.6681   -0.6146   -0.0367 C.ar      1 <0>        -0.5762
     11 S1          5.1790    0.2918   -0.0475 S.o2      1 <0>         2.5564
     12 O1          5.0766    1.2641    0.9837 O.2       1 <0>        -1.0410
     13 O2          6.2273   -0.6666   -0.0895 O.2       1 <0>        -1.0444
     14 N1          5.2408    1.1237   -1.4780 N.2       1 <0>        -0.9889
     15 C11         6.3311    1.9323   -1.7636 C.ar      1 <0>         0.2985
     16 C12         7.3766    2.0426   -0.8545 C.ar      1 <0>        -0.2895
     17 C13         8.4596    2.8471   -1.1409 C.ar      1 <0>        -0.0755
     18 C14         8.5162    3.5515   -2.3341 C.ar      1 <0>        -0.2506
     19 C15         7.4912    3.4562   -3.2481 C.ar      1 <0>        -0.0524
     20 C16         6.3876    2.6400   -2.9763 C.ar      1 <0>        -0.1986
     21 C17         5.2915    2.5287   -3.9500 C.2       1 <0>         0.5277
     22 O3          5.3450    3.1468   -5.0047 O.co2     1 <0>        -0.7414
     23 O4          4.3259    1.8180   -3.7057 O.co2     1 <0>        -0.6522
     24 H1         -0.9634    1.8756    0.0259 H         1 <0>         0.1166
     25 H2          1.1258    3.1698    0.0084 H         1 <0>         0.1229
     26 H3          3.2883    2.0497   -0.0195 H         1 <0>         0.1516
     27 H4         -0.9241   -0.5595    0.0082 H         1 <0>         0.1190
     28 H5          0.3820   -2.6682   -0.0147 H         1 <0>         0.1230
     29 H6          2.5450   -3.7886   -0.0417 H         1 <0>         0.1221
     30 H7          4.6338   -2.4947   -0.0548 H         1 <0>         0.1362
     31 H8          7.3408    1.4979    0.0774 H         1 <0>         0.0873
     32 H9          9.2691    2.9294   -0.4307 H         1 <0>         0.0875
     33 H10         9.3691    4.1788   -2.5474 H         1 <0>         0.0884
     34 H11         7.5405    4.0078   -4.1753 H         1 <0>         0.1061
@<TRIPOS>BOND
     1    1    6 ar
     2    1    2 ar
     3    1   24 1
     4    2    3 ar
     5    2   25 1
     6    3    4 ar
     7    3   26 1
     8    4   10 ar
     9    4    5 ar
    10    5    6 ar
    11    5    7 ar
    12    6   27 1
    13    7    8 ar
    14    7   28 1
    15    8    9 ar
    16    8   29 1
    17    9   10 ar
    18    9   30 1
    19   10   11 1
    20   11   12 2
    21   11   13 2
    22   11   14 1
    23   14   15 1
    24   15   20 ar
    25   15   16 ar
    26   16   17 ar
    27   16   31 1
    28   17   18 ar
    29   17   32 1
    30   18   19 ar
    31   18   33 1
    32   19   20 ar
    33   19   34 1
    34   20   21 1
    35   21   22 2
    36   21   23 1
@<TRIPOS>MOLECULE
ZINC00084444
   28    29     0     0     0
SMALL
USER_CHARGES

@<TRIPOS>ATOM
      1 C1         -0.0164    1.3567    0.0095 C.ar      1 <0>        -0.1002
      2 C2          1.1686    2.0905    0.0021 C.ar      1 <0>        -0.1285
      3 C3          2.3785    1.4675   -0.0131 C.ar      1 <0>        -0.0873
      4 C4          2.4375    0.0634   -0.0211 C.ar      1 <0>        -0.0798
      5 C5          3.6681   -0.6153   -0.0364 C.ar      1 <0>         0.0157
      6 C6          3.6865   -1.9761   -0.0434 C.ar      1 <0>        -0.6657
      7 C7          2.5015   -2.7098   -0.0357 C.ar      1 <0>        -0.0371
      8 C8          1.2917   -2.0868   -0.0209 C.ar      1 <0>        -0.1239
      9 C9          1.2327   -0.6827   -0.0133 C.ar      1 <0>        -0.0142
     10 C10         0.0021   -0.0041    0.0020 C.ar      1 <0>        -0.1181
     11 S1          5.2315   -2.8230   -0.0631 S.o2      1 <0>         2.6901
     12 O1          4.9835   -4.1075   -0.6179 O.2       1 <0>        -0.9619
     13 O2          6.1807   -1.9234   -0.6189 O.2       1 <0>        -0.9704
     14 N1          5.6766   -3.0663    1.5133 N.pl3     1 <0>        -1.0869
     15 C11         4.8732   -3.9368    2.3753 C.3       1 <0>         0.0478
     16 C12         5.6617   -4.2860    3.6112 C.2       1 <0>         0.4963
     17 O3          6.7901   -3.8484    3.7583 O.co2     1 <0>        -0.6851
     18 O4          5.1712   -5.0063    4.4639 O.co2     1 <0>        -0.6906
     19 H1         -0.9633    1.8757    0.0259 H         1 <0>         0.1248
     20 H2          1.1260    3.1696    0.0083 H         1 <0>         0.1255
     21 H3          3.2884    2.0491   -0.0194 H         1 <0>         0.1324
     22 H4          4.5943   -0.0599   -0.0428 H         1 <0>         0.1465
     23 H5          2.5441   -3.7890   -0.0419 H         1 <0>         0.1416
     24 H6          0.3816   -2.6684   -0.0154 H         1 <0>         0.1352
     25 H7         -0.9241   -0.5595    0.0082 H         1 <0>         0.1302
     26 H8          6.4692   -2.6324    1.8660 H         1 <0>         0.4247
     27 H9          3.9580   -3.4192    2.6625 H         1 <0>         0.0613
     28 H10         4.6205   -4.8494    1.8356 H         1 <0>         0.0777
@<TRIPOS>BOND
     1    1   10 ar
     2    1    2 ar
     3    1   19 1
     4    2    3 ar
     5    2   20 1
     6    3    4 ar
     7    3   21 1
     8    4    9 ar
     9    4    5 ar
    10    5    6 ar
    11    5   22 1
    12    6    7 ar
    13    6   11 1
    14    7    8 ar
    15    7   23 1
    16    8    9 ar
    17    8   24 1
    18    9   10 ar
    19   10   25 1
    20   11   12 2
    21   11   13 2
    22   11   14 1
    23   14   15 1
    24   14   26 1
    25   15   16 1
    26   15   27 1
    27   15   28 1
    28   16   17 2
    29   16   18 1
@<TRIPOS>MOLECULE
ZINC26168030
   24    25     0     0     0
SMALL
USER_CHARGES
2-(6-hydroxy-2-oxo-1-quinolyl)acetic acid
@<TRIPOS>ATOM
      1 C1         -1.2997    3.2409    0.0319 C.2       1 <0>        -0.0320
      2 C2         -1.2559    1.8857    0.0184 C.2       1 <0>        -0.1990
      3 C3         -0.0145    1.2147    0.0087 C.2       1 <0>         0.5281
      4 O1          0.0021   -0.0041    0.0020 O.2       1 <0>        -0.5442
      5 N1          1.1504    1.8859    0.0012 N.am      1 <0>        -0.4857
      6 C4          1.1749    3.2659    0.0084 C.ar      1 <0>         0.1736
      7 C5         -0.0370    3.9821    0.0239 C.ar      1 <0>        -0.1001
      8 C6         -0.0208    5.3805    0.0308 C.ar      1 <0>        -0.1082
      9 C7          1.1878    6.0478    0.0229 C.ar      1 <0>         0.1102
     10 C8          2.3843    5.3354    0.0071 C.ar      1 <0>        -0.1541
     11 C9          2.3811    3.9579    0.0001 C.ar      1 <0>        -0.1169
     12 O2          1.2099    7.4073    0.0300 O.3       1 <0>        -0.5140
     13 C10         2.4122    1.1417   -0.0144 C.3       1 <0>         0.0460
     14 C11         2.8316    0.8937   -1.4404 C.2       1 <0>         0.4572
     15 O3          2.1467    1.2971   -2.3504 O.co2     1 <0>        -0.6218
     16 O4          3.9659    0.2245   -1.6997 O.co2     1 <0>        -0.7608
     17 H1         -2.2454    3.7623    0.0438 H         1 <0>         0.1417
     18 H2         -2.1745    1.3177    0.0193 H         1 <0>         0.1506
     19 H3         -0.9477    5.9347    0.0424 H         1 <0>         0.1351
     20 H4          3.3238    5.8681    0.0006 H         1 <0>         0.1319
     21 H5          3.3150    3.4155   -0.0115 H         1 <0>         0.1379
     22 H6          2.1713    7.9418    0.0237 H         1 <0>         0.4276
     23 H7          3.1891    1.7264    0.4999 H         1 <0>         0.0925
     24 H8          2.2766    0.1792    0.5006 H         1 <0>         0.1046
@<TRIPOS>BOND
     1    1    7 1
     2    1    2 2
     3    1   17 1
     4    2    3 1
     5    2   18 1
     6    3    4 2
     7    3    5 am
     8    5    6 1
     9    5   13 1
    10    6   11 ar
    11    6    7 ar
    12    7    8 ar
    13    8    9 ar
    14    8   19 1
    15    9   10 ar
    16    9   12 1
    17   10   11 ar
    18   10   20 1
    19   11   21 1
    20   12   22 1
    21   13   14 1
    22   13   23 1
    23   13   24 1
    24   14   15 2
    25   14   16 1
@<TRIPOS>MOLECULE
ZINC00597385
   39    42     0     0     0
SMALL
USER_CHARGES
(4-bromo-2-fluoro-phenyl)methyl-fluoro-BLAHtetrone
@<TRIPOS>ATOM
      1 C1         -1.2451    3.1423    0.0294 C.ar      1 <0>        -0.1501
      2 C2         -0.0662    3.8582    0.0223 C.ar      1 <0>        -0.0062
      3 C3          1.1534    3.1821    0.0083 C.ar      1 <0>        -0.1420
      4 C4          1.1646    1.7799    0.0005 C.ar      1 <0>        -0.0083
      5 C5         -0.0126    1.0758    0.0080 C.ar      1 <0>        -0.1498
      6 C6         -1.2236    1.7561    0.0174 C.ar      1 <0>         0.1532
      7 F1         -2.3843    1.0646    0.0194 F         1 <0>        -0.1201
      8 C7          2.5045    1.0991   -0.0156 C.3       1 <0>        -0.0917
      9 C8          2.5599    0.1820   -1.2457 C.3       1 <0>        -0.1447
     10 C9          2.6593   -1.2041   -0.6423 C.2       1 <0>         0.5381
     11 O1          2.7275   -2.2399   -1.2685 O.2       1 <0>        -0.4574
     12 N1          2.6606   -1.1028    0.6938 N.am      1 <0>        -0.6717
     13 C10         2.5770    0.1543    1.1543 C.2       1 <0>         0.5582
     14 O2          2.5627    0.4771    2.3227 O.2       1 <0>        -0.4439
     15 C11         3.7451    1.9528   -0.0159 C.2       1 <0>         0.5513
     16 O3          4.8433    1.4393   -0.0230 O.2       1 <0>        -0.4400
     17 N2          3.6195    3.2947   -0.0078 N.am      1 <0>        -0.5537
     18 C12         2.4309    3.9144    0.0016 C.2       1 <0>         0.5723
     19 O4          2.4067    5.1294    0.0051 O.2       1 <0>        -0.4772
     20 C13         4.8355    4.1118   -0.0098 C.3       1 <0>         0.1361
     21 C14         5.2448    4.3999   -1.4312 C.ar      1 <0>        -0.1410
     22 C15         5.0305    5.6541   -1.9715 C.ar      1 <0>        -0.0549
     23 C16         5.4065    5.9193   -3.2748 C.ar      1 <0>        -0.1047
     24 C17         5.9972    4.9297   -4.0403 C.ar      1 <0>        -0.0546
     25 C18         6.2119    3.6745   -3.5017 C.ar      1 <0>        -0.1331
     26 C19         5.8406    3.4102   -2.1942 C.ar      1 <0>         0.1218
     27 F2          6.0548    2.1857   -1.6651 F         1 <0>        -0.1099
     28 Br1         6.5117    5.2941   -5.8231 Br        1 <0>        -0.0289
     29 H1         -2.1904    3.6646    0.0401 H         1 <0>         0.1568
     30 H2         -0.0875    4.9380    0.0272 H         1 <0>         0.1604
     31 H3          0.0021   -0.0041    0.0020 H         1 <0>         0.1470
     32 H4          1.6506    0.2789   -1.8388 H         1 <0>         0.1417
     33 H5          3.4398    0.4023   -1.8502 H         1 <0>         0.1385
     34 H6          2.7172   -1.8742    1.2792 H         1 <0>         0.4283
     35 H7          4.6434    5.0503    0.5103 H         1 <0>         0.1215
     36 H8          5.6362    3.5730    0.4968 H         1 <0>         0.1159
     37 H9          4.5695    6.4272   -1.3748 H         1 <0>         0.1498
     38 H10         5.2387    6.8995   -3.6960 H         1 <0>         0.1446
     39 H11         6.6730    2.9019   -4.0991 H         1 <0>         0.1485
@<TRIPOS>BOND
     1    1    6 ar
     2    1    2 ar
     3    1   29 1
     4    2    3 ar
     5    2   30 1
     6    3   18 1
     7    3    4 ar
     8    4    5 ar
     9    4    8 1
    10    5    6 ar
    11    5   31 1
    12    6    7 1
    13    8   13 1
    14    8    9 1
    15    8   15 1
    16    9   10 1
    17    9   32 1
    18    9   33 1
    19   10   11 2
    20   10   12 am
    21   12   13 am
    22   12   34 1
    23   13   14 2
    24   15   16 2
    25   15   17 am
    26   17   18 am
    27   17   20 1
    28   18   19 2
    29   20   21 1
    30   20   35 1
    31   20   36 1
    32   21   26 ar
    33   21   22 ar
    34   22   23 ar
    35   22   37 1
    36   23   24 ar
    37   23   38 1
    38   24   25 ar
    39   24   28 1
    40   25   26 ar
    41   25   39 1
    42   26   27 1
@<TRIPOS>MOLECULE
ZINC01915469
   28    29     0     0     0
SMALL
USER_CHARGES

@<TRIPOS>ATOM
      1 C1          1.7361   -1.0101   -0.5672 C.ar      1 <0>        -0.1076
      2 C2          2.7727   -0.0968   -0.5204 C.ar      1 <0>        -0.0597
      3 C3          2.5406    1.1905   -0.0744 C.ar      1 <0>        -0.1112
      4 C4          1.2701    1.5660    0.3253 C.ar      1 <0>        -0.0123
      5 C5          0.2324    0.6528    0.2783 C.ar      1 <0>        -0.1080
      6 C6          0.4655   -0.6359   -0.1680 C.ar      1 <0>        -0.0128
      7 Cl1        -0.8363   -1.7829   -0.2274 Cl        1 <0>        -0.0587
      8 Cl2         0.9788    3.1829    0.8861 Cl        1 <0>        -0.0322
      9 C7          3.6714    2.1853   -0.0227 C.3       1 <0>         0.1641
     10 N1          4.2274    2.2227    1.3321 N.am      1 <0>        -0.5740
     11 C8          3.8966    3.1126    2.2928 C.2       1 <0>         0.5096
     12 O1          3.0975    4.0214    2.2088 O.2       1 <0>        -0.4124
     13 C9          4.7262    2.7395    3.4852 C.2       1 <0>         0.5104
     14 O2          4.7400    3.2826    4.5697 O.2       1 <0>        -0.4200
     15 N2          5.4546    1.6708    3.0961 N.am      1 <0>        -0.5368
     16 C10         5.1449    1.3743    1.8236 C.2       1 <0>         0.7163
     17 O3          5.6347    0.4569    1.1957 O.2       1 <0>        -0.4921
     18 C11         6.4208    0.9495    3.9281 C.3       1 <0>         0.0466
     19 C12         5.7195   -0.1652    4.6608 C.2       1 <0>         0.4875
     20 O4          4.5235   -0.3408    4.5026 O.co2     1 <0>        -0.6804
     21 O5          6.3483   -0.8913    5.4117 O.co2     1 <0>        -0.6839
     22 H1          1.9172   -2.0148   -0.9198 H         1 <0>         0.1434
     23 H2          3.7644   -0.3894   -0.8322 H         1 <0>         0.1500
     24 H3         -0.7593    0.9454    0.5901 H         1 <0>         0.1454
     25 H4          4.4490    1.8883   -0.7265 H         1 <0>         0.1141
     26 H5          3.2981    3.1740   -0.2897 H         1 <0>         0.1151
     27 H6          7.2045    0.5321    3.2959 H         1 <0>         0.1006
     28 H7          6.8633    1.6365    4.6495 H         1 <0>         0.0992
@<TRIPOS>BOND
     1    1    6 ar
     2    1    2 ar
     3    1   22 1
     4    2    3 ar
     5    2   23 1
     6    3    4 ar
     7    3    9 1
     8    4    5 ar
     9    4    8 1
    10    5    6 ar
    11    5   24 1
    12    6    7 1
    13    9   10 1
    14    9   25 1
    15    9   26 1
    16   10   16 am
    17   10   11 am
    18   11   12 2
    19   11   13 1
    20   13   14 2
    21   13   15 am
    22   15   16 am
    23   15   18 1
    24   16   17 2
    25   18   19 1
    26   18   27 1
    27   18   28 1
    28   19   20 2
    29   19   21 1
@<TRIPOS>MOLECULE
ZINC13179867
   35    36     0     0     0
SMALL
USER_CHARGES
2-[(4-benzamidobenzoyl)amino]acetic acid
@<TRIPOS>ATOM
      1 C1          0.0842   -6.9992   -0.2452 C.ar      1 <0>        -0.0922
      2 C2         -0.9706   -6.3226   -0.8318 C.ar      1 <0>        -0.1274
      3 C3         -0.9472   -4.9461   -0.9204 C.ar      1 <0>        -0.0569
      4 C4          0.1440   -4.2359   -0.4167 C.ar      1 <0>        -0.1359
      5 C5          1.2072   -4.9251    0.1691 C.ar      1 <0>        -0.0856
      6 C6          1.1685   -6.3013    0.2565 C.ar      1 <0>        -0.1270
      7 C7          0.1761   -2.7611   -0.5086 C.2       1 <0>         0.5575
      8 O1         -0.7489   -2.1639   -1.0238 O.2       1 <0>        -0.5099
      9 N1          1.2310   -2.0783   -0.0213 N.am      1 <0>        -0.6673
     10 C8          1.2131   -0.6850   -0.0077 C.ar      1 <0>         0.1610
     11 C9          0.0140   -0.0080    0.1928 C.ar      1 <0>        -0.1308
     12 C10        -0.0072    1.3684    0.2064 C.ar      1 <0>        -0.0410
     13 C11         1.1774    2.0858    0.0185 C.ar      1 <0>        -0.1381
     14 C12         2.3800    1.4028   -0.1821 C.ar      1 <0>        -0.0638
     15 C13         2.3943    0.0264   -0.1950 C.ar      1 <0>        -0.1511
     16 C14         1.1582    3.5615    0.0320 C.2       1 <0>         0.5474
     17 O2          0.1112    4.1544    0.2066 O.2       1 <0>        -0.5534
     18 N2          2.3014    4.2519   -0.1493 N.am      1 <0>        -0.6989
     19 C15         2.2825    5.7168   -0.1360 C.3       1 <0>         0.0754
     20 C16         3.6782    6.2393   -0.3596 C.2       1 <0>         0.4599
     21 O3          4.5947    5.4673   -0.5142 O.co2     1 <0>        -0.6366
     22 H1          0.0609   -8.0769   -0.1783 H         1 <0>         0.1283
     23 H2         -1.8143   -6.8733   -1.2208 H         1 <0>         0.1314
     24 H3         -1.7709   -4.4192   -1.3788 H         1 <0>         0.1382
     25 H4          2.0562   -4.3818    0.5571 H         1 <0>         0.1270
     26 H5          1.9885   -6.8355    0.7131 H         1 <0>         0.1306
     27 H6          2.0027   -2.5568    0.3199 H         1 <0>         0.4106
     28 H7         -0.9010   -0.5630    0.3383 H         1 <0>         0.1382
     29 H8         -0.9389    1.8932    0.3576 H         1 <0>         0.1401
     30 H9          3.2972    1.9544   -0.3273 H         1 <0>         0.1376
     31 H10         3.3233   -0.5020   -0.3504 H         1 <0>         0.1318
     32 H11         3.1368    3.7790   -0.2887 H         1 <0>         0.4064
     33 H12         1.6276    6.0789   -0.9285 H         1 <0>         0.0751
     34 H13         1.9137    6.0666    0.8283 H         1 <0>         0.0751
     35 O4          3.9031    7.5623   -0.3869 O.co2     1 <0>        -0.7559
@<TRIPOS>BOND
     1    1    6 ar
     2    1    2 ar
     3    1   22 1
     4    2    3 ar
     5    2   23 1
     6    3    4 ar
     7    3   24 1
     8    4    5 ar
     9    4    7 1
    10    5    6 ar
    11    5   25 1
    12    6   26 1
    13    7    8 2
    14    7    9 am
    15    9   10 1
    16    9   27 1
    17   10   15 ar
    18   10   11 ar
    19   11   12 ar
    20   11   28 1
    21   12   13 ar
    22   12   29 1
    23   13   14 ar
    24   13   16 1
    25   14   15 ar
    26   14   30 1
    27   15   31 1
    28   16   17 2
    29   16   18 am
    30   18   19 1
    31   18   32 1
    32   19   20 1
    33   19   33 1
    34   19   34 1
    35   20   21 2
    36   20   35 1
@<TRIPOS>MOLECULE
ZINC26168033
   27    28     0     0     0
SMALL
USER_CHARGES
2-(6-methoxy-2-oxo-1-quinolyl)acetic acid
@<TRIPOS>ATOM
      1 C1          2.4938    8.0351    0.0220 C.3       1 <0>         0.0244
      2 O1          1.2102    7.4073    0.0314 O.3       1 <0>        -0.3198
      3 C2          1.1879    6.0478    0.0242 C.ar      1 <0>         0.0812
      4 C3          2.3847    5.3351    0.0084 C.ar      1 <0>        -0.1488
      5 C4          2.3815    3.9580    0.0010 C.ar      1 <0>        -0.1174
      6 C5          1.1748    3.2659    0.0088 C.ar      1 <0>         0.1793
      7 C6         -0.0367    3.9820    0.0243 C.ar      1 <0>        -0.1029
      8 C7         -0.0204    5.3807    0.0322 C.ar      1 <0>        -0.0953
      9 C8         -1.2995    3.2410    0.0319 C.2       1 <0>        -0.0308
     10 C9         -1.2559    1.8858    0.0184 C.2       1 <0>        -0.1992
     11 C10        -0.0145    1.2147    0.0087 C.2       1 <0>         0.5285
     12 O2          0.0021   -0.0041    0.0020 O.2       1 <0>        -0.5431
     13 N1          1.1504    1.8860    0.0012 N.am      1 <0>        -0.4859
     14 C11         2.4122    1.1418   -0.0149 C.3       1 <0>         0.0457
     15 C12         2.8313    0.8942   -1.4411 C.2       1 <0>         0.4572
     16 O3          2.1463    1.2980   -2.3508 O.co2     1 <0>        -0.6217
     17 O4          3.9656    0.2252   -1.7008 O.co2     1 <0>        -0.7605
     18 H1          2.3676    9.1278    0.0292 H         1 <0>         0.0977
     19 H2          3.0420    7.7353   -0.8833 H         1 <0>         0.0557
     20 H3          3.0599    7.7255    0.9129 H         1 <0>         0.0542
     21 H4          3.3243    5.8677    0.0023 H         1 <0>         0.1333
     22 H5          3.3153    3.4156   -0.0105 H         1 <0>         0.1389
     23 H6         -0.9472    5.9351    0.0441 H         1 <0>         0.1384
     24 H7         -2.2451    3.7625    0.0437 H         1 <0>         0.1426
     25 H8         -2.1745    1.3179    0.0193 H         1 <0>         0.1508
     26 H9          3.1892    1.7264    0.4994 H         1 <0>         0.0926
     27 H10         2.2767    0.1791    0.4998 H         1 <0>         0.1049
@<TRIPOS>BOND
     1    1    2 1
     2    1   18 1
     3    1   19 1
     4    1   20 1
     5    2    3 1
     6    3    8 ar
     7    3    4 ar
     8    4    5 ar
     9    4   21 1
    10    5    6 ar
    11    5   22 1
    12    6   13 1
    13    6    7 ar
    14    7    8 ar
    15    7    9 1
    16    8   23 1
    17    9   10 2
    18    9   24 1
    19   10   11 1
    20   10   25 1
    21   11   12 2
    22   11   13 am
    23   13   14 1
    24   14   15 1
    25   14   26 1
    26   14   27 1
    27   15   16 2
    28   15   17 1
@<TRIPOS>MOLECULE
ZINC13822447
   24    24     0     0     0
SMALL
USER_CHARGES
2-[(4-fluorobenzoyl)-methyl-amino]acetic acid
@<TRIPOS>ATOM
      1 C1          0.6255    3.1541   -1.1692 C.3       1 <0>         0.0710
      2 N1          0.9432    1.8806   -0.5183 N.am      1 <0>        -0.5818
      3 C2          2.3289    1.4075   -0.4715 C.3       1 <0>         0.0721
      4 C3          2.6142    0.5672   -1.6895 C.2       1 <0>         0.4520
      5 O1          1.7489    0.3825   -2.5123 O.co2     1 <0>        -0.6285
      6 C4         -0.0394    1.1443    0.0374 C.2       1 <0>         0.5542
      7 O2          0.2074    0.0427    0.4885 O.2       1 <0>        -0.5359
      8 C5         -1.4176    1.6732    0.0927 C.ar      1 <0>        -0.1277
      9 C6         -1.6410    3.0514    0.0605 C.ar      1 <0>        -0.0776
     10 C7         -2.9294    3.5394    0.1057 C.ar      1 <0>        -0.1645
     11 C8         -4.0018    2.6651    0.1959 C.ar      1 <0>         0.1113
     12 C9         -3.7852    1.2960    0.2344 C.ar      1 <0>        -0.1624
     13 C10        -2.5013    0.7971    0.1831 C.ar      1 <0>        -0.0336
     14 F1         -5.2622    3.1488    0.2461 F         1 <0>        -0.1401
     15 H1          0.7829    3.9711   -0.4651 H         1 <0>         0.0559
     16 H2          1.2731    3.2910   -2.0352 H         1 <0>         0.0724
     17 H3         -0.4157    3.1476   -1.4915 H         1 <0>         0.0807
     18 H4          3.0044    2.2627   -0.4537 H         1 <0>         0.0824
     19 H5          2.4780    0.8080    0.4265 H         1 <0>         0.0892
     20 H6         -0.8062    3.7334   -0.0049 H         1 <0>         0.1570
     21 H7         -3.1036    4.6048    0.0753 H         1 <0>         0.1394
     22 H8         -4.6241    0.6194    0.3044 H         1 <0>         0.1399
     23 H9         -2.3338   -0.2694    0.2125 H         1 <0>         0.1445
     24 O3          3.8297    0.0240   -1.8604 O.co2     1 <0>        -0.7700
@<TRIPOS>BOND
     1    1    2 1
     2    1   15 1
     3    1   16 1
     4    1   17 1
     5    2    3 1
     6    2    6 am
     7    3    4 1
     8    3   18 1
     9    3   19 1
    10    4    5 2
    11    4   24 1
    12    6    7 2
    13    6    8 1
    14    8   13 ar
    15    8    9 ar
    16    9   10 ar
    17    9   20 1
    18   10   11 ar
    19   10   21 1
    20   11   12 ar
    21   11   14 1
    22   12   13 ar
    23   12   22 1
    24   13   23 1
@<TRIPOS>MOLECULE
ZINC13822460
   35    36     0     0     0
SMALL
USER_CHARGES
2-[(4-methoxybenzoyl)-phenyl-amino]acetic acid
@<TRIPOS>ATOM
      1 C1          9.2964   -4.3805   -1.8880 C.3       1 <0>         0.0235
      2 O1          8.0502   -5.0750   -1.8053 O.3       1 <0>        -0.3163
      3 C2          6.9602   -4.3453   -1.4572 C.ar      1 <0>         0.1494
      4 C3          5.7174   -4.9598   -1.3586 C.ar      1 <0>        -0.1674
      5 C4          4.6089   -4.2229   -1.0061 C.ar      1 <0>        -0.0214
      6 C5          4.7347   -2.8555   -0.7469 C.ar      1 <0>        -0.1742
      7 C6          5.9852   -2.2405   -0.8519 C.ar      1 <0>        -0.0525
      8 C7          7.0897   -2.9855   -1.1997 C.ar      1 <0>        -0.2134
      9 C8          3.5493   -2.0618   -0.3693 C.2       1 <0>         0.5657
     10 O2          2.5997   -2.6031    0.1634 O.2       1 <0>        -0.5298
     11 N1          3.5192   -0.7369   -0.6149 N.am      1 <0>        -0.5180
     12 C9          4.6071   -0.1064   -1.3666 C.3       1 <0>         0.0240
     13 C10         5.4516    0.7194   -0.4308 C.2       1 <0>         0.4461
     14 O3          5.1734    0.7754    0.7437 O.co2     1 <0>        -0.6084
     15 C11         2.4494    0.0359   -0.1521 C.ar      1 <0>         0.1833
     16 C12         1.5109   -0.5191    0.7083 C.ar      1 <0>        -0.1647
     17 C13         0.4554    0.2467    1.1631 C.ar      1 <0>        -0.1049
     18 C14         0.3321    1.5645    0.7625 C.ar      1 <0>        -0.1577
     19 C15         1.2648    2.1200   -0.0941 C.ar      1 <0>        -0.0999
     20 C16         2.3229    1.3599   -0.5522 C.ar      1 <0>        -0.1447
     21 H1          9.5340   -3.9437   -0.9181 H         1 <0>         0.0591
     22 H2         10.0830   -5.0786   -2.1746 H         1 <0>         0.0995
     23 H3          9.2228   -3.5897   -2.6345 H         1 <0>         0.0596
     24 H4          5.6209   -6.0167   -1.5590 H         1 <0>         0.1358
     25 H5          3.6435   -4.7011   -0.9297 H         1 <0>         0.1405
     26 H6          6.0859   -1.1831   -0.6563 H         1 <0>         0.1634
     27 H7          8.0573   -2.5119   -1.2767 H         1 <0>         0.1366
     28 H8          5.2241   -0.8772   -1.8284 H         1 <0>         0.1146
     29 H9          4.1886    0.5363   -2.1412 H         1 <0>         0.0862
     30 H10         1.6062   -1.5484    1.0210 H         1 <0>         0.1710
     31 H11        -0.2747   -0.1842    1.8322 H         1 <0>         0.1175
     32 H12        -0.4969    2.1597    1.1157 H         1 <0>         0.1135
     33 H13         1.1655    3.1494   -0.4054 H         1 <0>         0.1187
     34 H14         3.0512    1.7944   -1.2209 H         1 <0>         0.1215
     35 O4          6.5130    1.3926   -0.9019 O.co2     1 <0>        -0.7562
@<TRIPOS>BOND
     1    1    2 1
     2    1   21 1
     3    1   22 1
     4    1   23 1
     5    2    3 1
     6    3    8 ar
     7    3    4 ar
     8    4    5 ar
     9    4   24 1
    10    5    6 ar
    11    5   25 1
    12    6    7 ar
    13    6    9 1
    14    7    8 ar
    15    7   26 1
    16    8   27 1
    17    9   10 2
    18    9   11 am
    19   11   12 1
    20   11   15 1
    21   12   13 1
    22   12   28 1
    23   12   29 1
    24   13   14 2
    25   13   35 1
    26   15   20 ar
    27   15   16 ar
    28   16   17 ar
    29   16   30 1
    30   17   18 ar
    31   17   31 1
    32   18   19 ar
    33   18   32 1
    34   19   20 ar
    35   19   33 1
    36   20   34 1
@<TRIPOS>MOLECULE
ZINC00898952
   41    43     0     0     0
SMALL
USER_CHARGES

@<TRIPOS>ATOM
      1 C1         -0.0173    1.4248    0.0099 C.3       1 <0>         0.0228
      2 O1          0.0021   -0.0041    0.0020 O.3       1 <0>        -0.3103
      3 C2          0.6052   -0.6065   -1.0546 C.ar      1 <0>         0.1588
      4 C3          1.1723    0.1657   -2.0613 C.ar      1 <0>        -0.2143
      5 C4          1.7851   -0.4413   -3.1351 C.ar      1 <0>        -0.0328
      6 C5          1.8361   -1.8360   -3.2113 C.ar      1 <0>        -0.1177
      7 C6          1.2645   -2.6088   -2.1965 C.ar      1 <0>        -0.0356
      8 C7          0.6586   -1.9935   -1.1236 C.ar      1 <0>        -0.1541
      9 C8          2.4910   -2.4906   -4.3596 C.2       1 <0>         0.2171
     10 C9          2.5200   -3.8500   -4.4087 C.2       1 <0>        -0.3198
     11 C10         3.1430   -4.4956   -5.5022 C.2       1 <0>         0.4265
     12 O2          3.1869   -5.7129   -5.5785 O.2       1 <0>        -0.4499
     13 C11         3.7363   -3.6418   -6.5457 C.ar      1 <0>        -0.2399
     14 C12         4.3720   -4.1963   -7.6626 C.ar      1 <0>         0.1952
     15 C13         4.9178   -3.3604   -8.6234 C.ar      1 <0>         0.0267
     16 C14         4.8337   -1.9774   -8.4765 C.ar      1 <0>         0.1518
     17 C15         4.2044   -1.4218   -7.3707 C.ar      1 <0>         0.0494
     18 C16         3.6515   -2.2465   -6.3985 C.ar      1 <0>         0.1588
     19 O3          3.0306   -1.7224   -5.3188 O.3       1 <0>        -0.2072
     20 O4          4.1293   -0.0687   -7.2387 O.3       1 <0>        -0.3060
     21 C17         2.9869    0.5760   -7.8056 C.3       1 <0>         0.0287
     22 O5          5.3729   -1.1651   -9.4238 O.3       1 <0>        -0.4607
     23 O6          5.5378   -3.8914   -9.7129 O.3       1 <0>        -0.3062
     24 C18         4.7265   -4.1453  -10.8616 C.3       1 <0>         0.0299
     25 O7          4.4537   -5.5456   -7.8036 O.3       1 <0>        -0.4561
     26 H1          1.0053    1.8021    0.0021 H         1 <0>         0.0604
     27 H2         -0.5445    1.7859   -0.8732 H         1 <0>         0.0599
     28 H3         -0.5275    1.7763    0.9067 H         1 <0>         0.1054
     29 H4          1.1321    1.2433   -2.0018 H         1 <0>         0.1385
     30 H5          2.2253    0.1595   -3.9172 H         1 <0>         0.1390
     31 H6          1.3017   -3.6867   -2.2515 H         1 <0>         0.1445
     32 H7          0.2205   -2.5897   -0.3368 H         1 <0>         0.1440
     33 H8          2.0706   -4.4322   -3.6178 H         1 <0>         0.1656
     34 H9          3.0514    1.6499   -7.6301 H         1 <0>         0.1032
     35 H10         2.9564    0.3843   -8.8781 H         1 <0>         0.0461
     36 H11         2.0815    0.1857   -7.3408 H         1 <0>         0.0501
     37 H12         4.7612   -0.9303  -10.1350 H         1 <0>         0.3940
     38 H13         3.9378   -4.8509  -10.6006 H         1 <0>         0.0469
     39 H14         4.2801   -3.2119  -11.2046 H         1 <0>         0.0452
     40 H15         5.3428   -4.5667  -11.6558 H         1 <0>         0.1037
     41 H16         3.7094   -5.9370   -8.2810 H         1 <0>         0.3985
@<TRIPOS>BOND
     1    1    2 1
     2    1   26 1
     3    1   27 1
     4    1   28 1
     5    2    3 1
     6    3    8 ar
     7    3    4 ar
     8    4    5 ar
     9    4   29 1
    10    5    6 ar
    11    5   30 1
    12    6    7 ar
    13    6    9 1
    14    7    8 ar
    15    7   31 1
    16    8   32 1
    17    9   19 1
    18    9   10 2
    19   10   11 1
    20   10   33 1
    21   11   12 2
    22   11   13 1
    23   13   18 ar
    24   13   14 ar
    25   14   15 ar
    26   14   25 1
    27   15   16 ar
    28   15   23 1
    29   16   17 ar
    30   16   22 1
    31   17   18 ar
    32   17   20 1
    33   18   19 1
    34   20   21 1
    35   21   34 1
    36   21   35 1
    37   21   36 1
    38   22   37 1
    39   23   24 1
    40   24   38 1
    41   24   39 1
    42   24   40 1
    43   25   41 1
@<TRIPOS>MOLECULE
ZINC00040236
   23    24     0     0     0
SMALL
USER_CHARGES
(2S)-2-cyano-2-[(3S)-2-oxoindolin-3-yl]acetic acid
@<TRIPOS>ATOM
      1 C1          5.6049    3.1983   -0.3974 C.ar      1 <0>        -0.1468
      2 C2          6.2291    2.7792    0.7635 C.ar      1 <0>        -0.0868
      3 C3          5.6275    1.8448    1.5805 C.ar      1 <0>        -0.1480
      4 C4          4.3842    1.3150    1.2403 C.ar      1 <0>         0.1567
      5 C5          3.7677    1.7436    0.0717 C.ar      1 <0>        -0.1409
      6 C6          4.3699    2.6771   -0.7416 C.ar      1 <0>        -0.0623
      7 C7          2.4566    0.9969   -0.0160 C.3       1 <0>        -0.0561
      8 H1          2.4258    0.3793   -0.9136 H         1 <0>         0.1288
      9 C8          2.4431    0.1301    1.2251 C.2       1 <0>         0.5320
     10 O1          1.5659   -0.6389    1.5572 O.2       1 <0>        -0.4345
     11 N1          3.5851    0.3735    1.8899 N.am      1 <0>        -0.6710
     12 C9          1.2804    1.9752    0.0004 C.3       1 <0>        -0.0245
     13 H2          1.3381    2.5978    0.8933 H         1 <0>         0.1153
     14 C10         1.3354    2.8289   -1.1975 C.1       1 <0>         0.2534
     15 N2          1.3779    3.4878   -2.1219 N.1       1 <0>        -0.4569
     16 C11        -0.0143    1.2041    0.0087 C.2       1 <0>         0.4668
     17 O2          0.0021   -0.0041    0.0020 O.co2     1 <0>        -0.5828
     18 H3          6.0798    3.9307   -1.0333 H         1 <0>         0.1255
     19 H4          7.1928    3.1861    1.0319 H         1 <0>         0.1266
     20 H5          6.1211    1.5228    2.4855 H         1 <0>         0.1237
     21 H6          3.8792    3.0022   -1.6471 H         1 <0>         0.1244
     22 H7          3.8262   -0.0557    2.7257 H         1 <0>         0.4088
     23 O3         -1.1857    1.8593    0.0178 O.co2     1 <0>        -0.7515
@<TRIPOS>BOND
     1    1    6 ar
     2    1    2 ar
     3    1   18 1
     4    2    3 ar
     5    2   19 1
     6    3    4 ar
     7    3   20 1
     8    4   11 1
     9    4    5 ar
    10    5    6 ar
    11    5    7 1
    12    6   21 1
    13    7    8 1
    14    7    9 1
    15    7   12 1
    16    9   10 2
    17    9   11 am
    18   11   22 1
    19   12   13 1
    20   12   14 1
    21   12   16 1
    22   14   15 3
    23   16   17 2
    24   16   23 1
@<TRIPOS>MOLECULE
ZINC00040238
   23    24     0     0     0
SMALL
USER_CHARGES
(2R)-2-cyano-2-[(3S)-2-oxoindolin-3-yl]acetic acid
@<TRIPOS>ATOM
      1 C1          3.0851    3.7950   -0.0538 C.ar      1 <0>        -0.1481
      2 C2          3.4678    2.4659   -0.0528 C.ar      1 <0>        -0.0878
      3 C3          2.5175    1.4665   -0.0277 C.ar      1 <0>        -0.1477
      4 C4          1.1622    1.7902   -0.0024 C.ar      1 <0>         0.1553
      5 C5          0.7906    3.1286   -0.0037 C.ar      1 <0>        -0.1407
      6 C6          1.7411    4.1243   -0.0291 C.ar      1 <0>        -0.0611
      7 C7         -0.7203    3.1504    0.0267 C.3       1 <0>        -0.0554
      8 H1         -1.1133    3.6394   -0.8647 H         1 <0>         0.1425
      9 C8         -1.1093    1.6874    0.0393 C.2       1 <0>         0.5276
     10 O1         -2.2372    1.2419    0.0599 O.2       1 <0>        -0.4492
     11 N1          0.0300    0.9752    0.0259 N.am      1 <0>        -0.6706
     12 C9         -1.2209    3.8564    1.2885 C.3       1 <0>        -0.0234
     13 H2         -0.7621    4.8425    1.3594 H         1 <0>         0.1273
     14 C10        -0.8587    3.0604    2.4725 C.1       1 <0>         0.2401
     15 N2         -0.5792    2.4461    3.3863 N.1       1 <0>        -0.4530
     16 C11        -2.7192    4.0032    1.2210 C.2       1 <0>         0.4706
     17 O2         -3.3339    3.5102    0.3051 O.co2     1 <0>        -0.5904
     18 H3          3.8330    4.5738   -0.0741 H         1 <0>         0.1268
     19 H4          4.5167    2.2092   -0.0724 H         1 <0>         0.1260
     20 H5          2.8243    0.4310   -0.0267 H         1 <0>         0.1221
     21 H6          1.4383    5.1610   -0.0295 H         1 <0>         0.1315
     22 H7          0.0617    0.0057    0.0311 H         1 <0>         0.4076
     23 O3         -3.3709    4.6816    2.1785 O.co2     1 <0>        -0.7501
@<TRIPOS>BOND
     1    1    6 ar
     2    1    2 ar
     3    1   18 1
     4    2    3 ar
     5    2   19 1
     6    3    4 ar
     7    3   20 1
     8    4   11 1
     9    4    5 ar
    10    5    6 ar
    11    5    7 1
    12    6   21 1
    13    7    8 1
    14    7    9 1
    15    7   12 1
    16    9   10 2
    17    9   11 am
    18   11   22 1
    19   12   13 1
    20   12   14 1
    21   12   16 1
    22   14   15 3
    23   16   17 2
    24   16   23 1
@<TRIPOS>MOLECULE
ZINC19142618
   23    24     0     0     0
SMALL
USER_CHARGES
(2R)-2-cyano-2-[(3R)-2-oxoindolin-3-yl]acetic acid
@<TRIPOS>ATOM
      1 C1          3.0978    3.7272   -0.0083 C.ar      1 <0>        -0.1459
      2 C2          3.4551    2.3912   -0.0189 C.ar      1 <0>        -0.0871
      3 C3          2.4857    1.4099   -0.0145 C.ar      1 <0>        -0.1474
      4 C4          1.1367    1.7593    0.0007 C.ar      1 <0>         0.1555
      5 C5          0.7907    3.1045    0.0112 C.ar      1 <0>        -0.1407
      6 C6          1.7602    4.0819    0.0068 C.ar      1 <0>        -0.0629
      7 C7         -0.7198    3.1549    0.0259 C.3       1 <0>        -0.0563
      8 H1         -1.0765    3.6520    0.9280 H         1 <0>         0.1311
      9 C8         -1.1367    1.6996    0.0163 C.2       1 <0>         0.5340
     10 O1         -2.2731    1.2756    0.0189 O.2       1 <0>        -0.4412
     11 N1         -0.0111    0.9658    0.0074 N.am      1 <0>        -0.6701
     12 C9         -1.2444    3.8692   -1.2213 C.3       1 <0>        -0.0242
     13 H2         -0.9169    3.3330   -2.1119 H         1 <0>         0.1153
     14 C10        -0.7205    5.2444   -1.2561 C.1       1 <0>         0.2536
     15 N2         -0.3162    6.3056   -1.2829 N.1       1 <0>        -0.4565
     16 C11        -2.7505    3.9063   -1.1827 C.2       1 <0>         0.4695
     17 O2         -3.3434    3.4121   -0.2531 O.co2     1 <0>        -0.5867
     18 H3          3.8607    4.4917   -0.0122 H         1 <0>         0.1257
     19 H4          4.4991    2.1146   -0.0311 H         1 <0>         0.1268
     20 H5          2.7728    0.3688   -0.0225 H         1 <0>         0.1239
     21 H6          1.4773    5.1242    0.0155 H         1 <0>         0.1252
     22 H7          0.0021   -0.0041    0.0020 H         1 <0>         0.4091
     23 O3         -3.4333    4.4882   -2.1811 O.co2     1 <0>        -0.7507
@<TRIPOS>BOND
     1    1    6 ar
     2    1    2 ar
     3    1   18 1
     4    2    3 ar
     5    2   19 1
     6    3    4 ar
     7    3   20 1
     8    4   11 1
     9    4    5 ar
    10    5    6 ar
    11    5    7 1
    12    6   21 1
    13    7    8 1
    14    7    9 1
    15    7   12 1
    16    9   10 2
    17    9   11 am
    18   11   22 1
    19   12   13 1
    20   12   14 1
    21   12   16 1
    22   14   15 3
    23   16   17 2
    24   16   23 1
@<TRIPOS>MOLECULE
ZINC19142621
   23    24     0     0     0
SMALL
USER_CHARGES
(2S)-2-cyano-2-[(3R)-2-oxoindolin-3-yl]acetic acid
@<TRIPOS>ATOM
      1 C1          2.6555    1.2918   -0.2410 C.ar      1 <0>        -0.1482
      2 C2          1.5129    2.0664   -0.1562 C.ar      1 <0>        -0.0876
      3 C3          0.2748    1.4717   -0.0294 C.ar      1 <0>        -0.1475
      4 C4          0.1671    0.0829    0.0150 C.ar      1 <0>         0.1558
      5 C5          1.3220   -0.6840   -0.0704 C.ar      1 <0>        -0.1409
      6 C6          2.5565   -0.0879   -0.1973 C.ar      1 <0>        -0.0611
      7 C7          0.8805   -2.1275    0.0060 C.3       1 <0>        -0.0551
      8 H1          1.1541   -2.6614   -0.9040 H         1 <0>         0.1437
      9 C8         -0.6252   -2.0451    0.1404 C.2       1 <0>         0.5271
     10 O1         -1.3924   -2.9799    0.2338 O.2       1 <0>        -0.4497
     11 N1         -0.9518   -0.7417    0.1371 N.am      1 <0>        -0.6704
     12 C9          1.4914   -2.8108    1.2310 C.3       1 <0>        -0.0248
     13 H2          2.5786   -2.7591    1.1715 H         1 <0>         0.1272
     14 C10         1.0339   -2.1287    2.4526 C.1       1 <0>         0.2422
     15 N2          0.6808   -1.6022    3.3953 N.1       1 <0>        -0.4538
     16 C11         1.0586   -4.2538    1.2694 C.2       1 <0>         0.4718
     17 O2          0.4384   -4.7233    0.3448 O.co2     1 <0>        -0.5921
     18 H3          3.6225    1.7623   -0.3408 H         1 <0>         0.1266
     19 H4          1.5904    3.1431   -0.1904 H         1 <0>         0.1260
     20 H5         -0.6132    2.0834    0.0312 H         1 <0>         0.1222
     21 H6          3.4465   -0.6962   -0.2622 H         1 <0>         0.1310
     22 H7         -1.8611   -0.4120    0.2109 H         1 <0>         0.4078
     23 O3          1.3620   -5.0175    2.3307 O.co2     1 <0>        -0.7501
@<TRIPOS>BOND
     1    1    6 ar
     2    1    2 ar
     3    1   18 1
     4    2    3 ar
     5    2   19 1
     6    3    4 ar
     7    3   20 1
     8    4   11 1
     9    4    5 ar
    10    5    6 ar
    11    5    7 1
    12    6   21 1
    13    7    8 1
    14    7    9 1
    15    7   12 1
    16    9   10 2
    17    9   11 am
    18   11   22 1
    19   12   13 1
    20   12   14 1
    21   12   16 1
    22   14   15 3
    23   16   17 2
    24   16   23 1
@<TRIPOS>MOLECULE
ZINC01670309
   31    32     0     0     0
SMALL
USER_CHARGES

@<TRIPOS>ATOM
      1 C1         -0.1263    1.0695    0.5114 C.ar      1 <0>        -0.1594
      2 C2          0.9944    1.8796    0.4060 C.ar      1 <0>        -0.0973
      3 C3          2.2439    1.3244    0.2248 C.ar      1 <0>        -0.2003
      4 C4          2.3882   -0.0557    0.1463 C.ar      1 <0>         0.1904
      5 C5          1.2550   -0.8797    0.2527 C.ar      1 <0>        -0.1579
      6 C6         -0.0052   -0.2997    0.4363 C.ar      1 <0>        -0.0634
      7 C7          1.3923   -2.3414    0.1716 C.2       1 <0>         0.5251
      8 O1          0.4027   -3.0550    0.2647 O.co2     1 <0>        -0.6835
      9 O2          2.4962   -2.8441    0.0109 O.co2     1 <0>        -0.6821
     10 N1          3.6437   -0.6164   -0.0364 N.pl3     1 <0>        -1.0254
     11 S1          4.9710    0.0764    0.6713 S.o2      1 <0>         2.6933
     12 O3          6.0676   -0.7895    0.4126 O.2       1 <0>        -0.9635
     13 O4          4.9714    1.4432    0.2827 O.2       1 <0>        -0.9681
     14 C8          4.7070    0.0481    2.4132 C.ar      1 <0>        -0.7229
     15 C9          4.0711    1.1089    3.0319 C.ar      1 <0>         0.0326
     16 C10         3.8626    1.0899    4.3969 C.ar      1 <0>        -0.2197
     17 C11         4.2925    0.0037    5.1486 C.ar      1 <0>         0.2631
     18 C12         4.9309   -1.0602    4.5239 C.ar      1 <0>        -0.2189
     19 C13         5.1312   -1.0373    3.1577 C.ar      1 <0>         0.0377
     20 N2          4.0837   -0.0185    6.5295 N.pl3     1 <0>        -0.8705
     21 H1         -1.0991    1.5152    0.6577 H         1 <0>         0.1147
     22 H2          0.8879    2.9526    0.4659 H         1 <0>         0.1185
     23 H3          3.1111    1.9629    0.1434 H         1 <0>         0.1542
     24 H4         -0.8815   -0.9254    0.5194 H         1 <0>         0.1281
     25 H5          3.7443   -1.4144   -0.5786 H         1 <0>         0.4403
     26 H6          3.7375    1.9532    2.4469 H         1 <0>         0.1385
     27 H7          3.3663    1.9188    4.8796 H         1 <0>         0.1273
     28 H8          5.2667   -1.9060    5.1055 H         1 <0>         0.1282
     29 H9          5.6235   -1.8661    2.6707 H         1 <0>         0.1404
     30 H10         3.6380    0.7251    6.9646 H         1 <0>         0.4000
     31 H11         4.3843   -0.7775    7.0533 H         1 <0>         0.4004
@<TRIPOS>BOND
     1    1    6 ar
     2    1    2 ar
     3    1   21 1
     4    2    3 ar
     5    2   22 1
     6    3    4 ar
     7    3   23 1
     8    4    5 ar
     9    4   10 1
    10    5    6 ar
    11    5    7 1
    12    6   24 1
    13    7    8 2
    14    7    9 1
    15   10   11 1
    16   10   25 1
    17   11   12 2
    18   11   13 2
    19   11   14 1
    20   14   19 ar
    21   14   15 ar
    22   15   16 ar
    23   15   26 1
    24   16   17 ar
    25   16   27 1
    26   17   18 ar
    27   17   20 1
    28   18   19 ar
    29   18   28 1
    30   19   29 1
    31   20   30 1
    32   20   31 1
@<TRIPOS>MOLECULE
ZINC01081537
   37    39     0     0     0
SMALL
USER_CHARGES

@<TRIPOS>ATOM
      1 C1         -0.0173    1.4248    0.0099 C.3       1 <0>         0.0172
      2 O1          0.0021   -0.0041    0.0020 O.3       1 <0>        -0.2903
      3 C2          0.6055   -0.6068   -1.0552 C.ar      1 <0>         0.1916
      4 C3          1.1698    0.1674   -2.0568 C.ar      1 <0>        -0.2376
      5 C4          1.7874   -0.4393   -3.1391 C.ar      1 <0>         0.2026
      6 C5          1.8365   -1.8425   -3.2111 C.ar      1 <0>        -0.2798
      7 C6          2.4982   -2.4638   -4.3711 C.2       1 <0>         0.4259
      8 O2          2.5699   -3.6767   -4.4856 O.2       1 <0>        -0.4537
      9 C7          3.0471   -1.5997   -5.3477 C.2       1 <0>        -0.3076
     10 C8          2.9466   -0.2529   -5.1845 C.2       1 <0>         0.2060
     11 O3          2.3408    0.3021   -4.1231 O.3       1 <0>        -0.2178
     12 C9          3.5256    0.6314   -6.2134 C.ar      1 <0>        -0.0840
     13 C10         4.1578    0.0836   -7.3332 C.ar      1 <0>        -0.0614
     14 C11         4.6971    0.9129   -8.2915 C.ar      1 <0>        -0.1470
     15 C12         4.6137    2.2925   -8.1461 C.ar      1 <0>         0.1354
     16 C13         3.9860    2.8414   -7.0343 C.ar      1 <0>        -0.1496
     17 C14         3.4385    2.0194   -6.0743 C.ar      1 <0>        -0.0613
     18 O4          5.1474    3.1064   -9.0926 O.3       1 <0>        -0.4967
     19 C15         1.2657   -2.6211   -2.1976 C.ar      1 <0>         0.2238
     20 C16         0.6566   -1.9978   -1.1200 C.ar      1 <0>         0.0069
     21 O5          0.1031   -2.7456   -0.1260 O.3       1 <0>        -0.3122
     22 C17        -1.2693   -3.1135   -0.2785 C.3       1 <0>         0.0339
     23 O6          1.3131   -3.9768   -2.2670 O.3       1 <0>        -0.4637
     24 H1          1.0053    1.8021    0.0021 H         1 <0>         0.0642
     25 H2         -0.5445    1.7859   -0.8732 H         1 <0>         0.0630
     26 H3         -0.5275    1.7763    0.9067 H         1 <0>         0.1098
     27 H4          1.1278    1.2447   -1.9940 H         1 <0>         0.1570
     28 H5          3.5428   -2.0066   -6.2166 H         1 <0>         0.1641
     29 H6          4.2237   -0.9884   -7.4466 H         1 <0>         0.1417
     30 H7          5.1858    0.4905   -9.1570 H         1 <0>         0.1414
     31 H8          3.9234    3.9140   -6.9252 H         1 <0>         0.1390
     32 H9          2.9466    2.4468   -5.2130 H         1 <0>         0.1397
     33 H10         4.5328    3.3414   -9.8011 H         1 <0>         0.3984
     34 H11        -1.5843   -3.7057    0.5807 H         1 <0>         0.0974
     35 H12        -1.8815   -2.2140   -0.3439 H         1 <0>         0.0465
     36 H13        -1.3889   -3.7014   -1.1885 H         1 <0>         0.0504
     37 H14         2.0950   -4.3648   -1.8509 H         1 <0>         0.4066
@<TRIPOS>BOND
     1    1    2 1
     2    1   24 1
     3    1   25 1
     4    1   26 1
     5    2    3 1
     6    3   20 ar
     7    3    4 ar
     8    4    5 ar
     9    4   27 1
    10    5   11 1
    11    5    6 ar
    12    6    7 1
    13    6   19 ar
    14    7    8 2
    15    7    9 1
    16    9   10 2
    17    9   28 1
    18   10   11 1
    19   10   12 1
    20   12   17 ar
    21   12   13 ar
    22   13   14 ar
    23   13   29 1
    24   14   15 ar
    25   14   30 1
    26   15   16 ar
    27   15   18 1
    28   16   17 ar
    29   16   31 1
    30   17   32 1
    31   18   33 1
    32   19   20 ar
    33   19   23 1
    34   20   21 1
    35   21   22 1
    36   22   34 1
    37   22   35 1
    38   22   36 1
    39   23   37 1
@<TRIPOS>MOLECULE
ZINC05766573
   30    32     0     0     0
SMALL
USER_CHARGES
2-(2-methyl-3-oxo-phenalen-1-yl)acetic acid
@<TRIPOS>ATOM
      1 C1          0.8770    3.4580    1.2873 C.3       1 <0>        -0.0985
      2 C2         -0.2950    2.7023    1.8586 C.2       1 <0>        -0.2192
      3 C3         -0.8501    1.6973    1.1431 C.2       1 <0>         0.0585
      4 C4         -1.9825    0.9425    1.6718 C.ar      1 <0>        -0.0564
      5 C5         -2.5608   -0.0997    0.9450 C.ar      1 <0>        -0.0560
      6 C6         -3.6355   -0.8030    1.4655 C.ar      1 <0>        -0.1241
      7 C7         -4.1586   -0.4977    2.7021 C.ar      1 <0>        -0.0875
      8 C8         -3.6026    0.5454    3.4630 C.ar      1 <0>        -0.0700
      9 C9         -2.5071    1.2696    2.9424 C.ar      1 <0>        -0.0095
     10 C10        -1.9380    2.3200    3.6928 C.ar      1 <0>        -0.1530
     11 C11        -2.4646    2.6312    4.9424 C.ar      1 <0>        -0.0365
     12 C12        -3.5408    1.9141    5.4455 C.ar      1 <0>        -0.1432
     13 C13        -4.1100    0.8861    4.7292 C.ar      1 <0>        -0.0657
     14 C14        -0.7990    3.0603    3.1300 C.2       1 <0>         0.4321
     15 O1         -0.2887    3.9729    3.7584 O.2       1 <0>        -0.4774
     16 C15        -0.2895    1.3490   -0.2116 C.3       1 <0>        -0.1476
     17 C16         0.7442    0.2625   -0.0633 C.2       1 <0>         0.4707
     18 O2          0.9995   -0.1833    1.0303 O.co2     1 <0>        -0.6246
     19 H1          0.5141    4.2528    0.6356 H         1 <0>         0.0624
     20 H2          1.4602    3.8920    2.0995 H         1 <0>         0.0678
     21 H3          1.5044    2.7758    0.7137 H         1 <0>         0.0725
     22 H4         -2.1690   -0.3590   -0.0275 H         1 <0>         0.1369
     23 H5         -4.0711   -1.6064    0.8901 H         1 <0>         0.1303
     24 H6         -4.9966   -1.0596    3.0874 H         1 <0>         0.1307
     25 H7         -2.0344    3.4340    5.5228 H         1 <0>         0.1364
     26 H8         -3.9393    2.1677    6.4167 H         1 <0>         0.1299
     27 H9         -4.9471    0.3411    5.1397 H         1 <0>         0.1319
     28 H10         0.1728    2.2326   -0.6517 H         1 <0>         0.0905
     29 H11        -1.0939    0.9993   -0.8588 H         1 <0>         0.0827
     30 O3          1.3813   -0.2101   -1.1461 O.co2     1 <0>        -0.7642
@<TRIPOS>BOND
     1    1    2 1
     2    1   19 1
     3    1   20 1
     4    1   21 1
     5    2   14 1
     6    2    3 2
     7    3    4 1
     8    3   16 1
     9    4    9 ar
    10    4    5 ar
    11    5    6 ar
    12    5   22 1
    13    6    7 ar
    14    6   23 1
    15    7    8 ar
    16    7   24 1
    17    8   13 ar
    18    8    9 ar
    19    9   10 ar
    20   10   11 ar
    21   10   14 1
    22   11   12 ar
    23   11   25 1
    24   12   13 ar
    25   12   26 1
    26   13   27 1
    27   14   15 2
    28   16   17 1
    29   16   28 1
    30   16   29 1
    31   17   18 2
    32   17   30 1
@<TRIPOS>MOLECULE
ZINC04995478
   34    35     0     0     0
SMALL
USER_CHARGES

@<TRIPOS>ATOM
      1 C1          0.9239    1.7083    1.2200 C.ar      1 <0>        -0.1558
      2 C2          2.1229    2.3811    1.0715 C.ar      1 <0>        -0.0883
      3 C3          3.2599    1.6940    0.6940 C.ar      1 <0>        -0.1410
      4 C4          3.1981    0.3256    0.4634 C.ar      1 <0>         0.2051
      5 C5          1.9920   -0.3471    0.6134 C.ar      1 <0>        -0.1708
      6 C6          0.8589    0.3461    0.9911 C.ar      1 <0>        -0.0823
      7 N1          4.3460   -0.3723    0.0810 N.pl3     1 <0>        -0.9131
      8 C7          5.6692    0.1334    0.4547 C.3       1 <0>         0.0255
      9 C8          5.9373   -0.1835    1.9034 C.2       1 <0>         0.4850
     10 O1          5.0592   -0.6733    2.5929 O.co2     1 <0>        -0.6799
     11 O2          7.0323    0.0501    2.3859 O.co2     1 <0>        -0.6834
     12 S1          4.2112   -1.7713   -0.7947 S.o2      1 <0>         2.6971
     13 O3          3.0078   -1.6675   -1.5433 O.2       1 <0>        -0.9341
     14 O4          5.4740   -1.9893   -1.4088 O.2       1 <0>        -0.9279
     15 C9          3.9770   -3.0854    0.3555 C.ar      1 <0>        -0.6343
     16 C10         3.6392   -2.8047    1.6664 C.ar      1 <0>         0.0019
     17 C11         3.4555   -3.8354    2.5687 C.ar      1 <0>        -0.0828
     18 C12         3.6091   -5.1473    2.1602 C.ar      1 <0>        -0.0756
     19 C13         3.9460   -5.4280    0.8494 C.ar      1 <0>        -0.0777
     20 C14         4.1255   -4.3970   -0.0541 C.ar      1 <0>         0.0329
     21 N2          4.4813   -4.6978   -1.4591 N.pl3     1 <0>         0.0232
     22 O5          4.7356   -5.8329   -1.7886 O.2       1 <0>        -0.1294
     23 O6          4.5175   -3.8084   -2.2772 O.3       1 <0>        -0.1586
     24 H1          0.0372    2.2472    1.5197 H         1 <0>         0.1197
     25 H2          2.1701    3.4451    1.2507 H         1 <0>         0.1232
     26 H3          4.1959    2.2201    0.5779 H         1 <0>         0.1274
     27 H4          1.9405   -1.4110    0.4345 H         1 <0>         0.1162
     28 H5         -0.0792   -0.1763    1.1079 H         1 <0>         0.1236
     29 H6          6.4283   -0.3407   -0.1674 H         1 <0>         0.1031
     30 H7          5.7006    1.2129    0.3070 H         1 <0>         0.0922
     31 H8          3.5191   -1.7799    1.9855 H         1 <0>         0.1961
     32 H9          3.1923   -3.6161    3.5929 H         1 <0>         0.1519
     33 H10         3.4663   -5.9527    2.8653 H         1 <0>         0.1523
     34 H11         4.0664   -6.4528    0.5304 H         1 <0>         0.1586
@<TRIPOS>BOND
     1    1    6 ar
     2    1    2 ar
     3    1   24 1
     4    2    3 ar
     5    2   25 1
     6    3    4 ar
     7    3   26 1
     8    4    5 ar
     9    4    7 1
    10    5    6 ar
    11    5   27 1
    12    6   28 1
    13    7    8 1
    14    7   12 1
    15    8    9 1
    16    8   29 1
    17    8   30 1
    18    9   10 2
    19    9   11 1
    20   12   13 2
    21   12   14 2
    22   12   15 1
    23   15   20 ar
    24   15   16 ar
    25   16   17 ar
    26   16   31 1
    27   17   18 ar
    28   17   32 1
    29   18   19 ar
    30   18   33 1
    31   19   20 ar
    32   19   34 1
    33   20   21 1
    34   21   22 2
    35   21   23 1
