@<TRIPOS>MOLECULE
ZINC43176687
   63    67     0     0     0
SMALL
USER_CHARGES

@<TRIPOS>ATOM
      1 C1         -0.3930   -0.3430   -1.6162 C.3       1 <0>        -0.0479
      2 N1         -0.2116   -1.7974   -1.5168 N.4       1 <0>        -0.3859
      3 C2          0.7426   -2.2409   -2.5410 C.3       1 <0>        -0.0222
      4 C3          0.8457   -3.7694   -2.5138 C.3       1 <0>         0.0982
      5 N2          1.1848   -4.1897   -1.1454 N.pl3     1 <0>        -0.6223
      6 C4          0.3765   -3.6587   -0.0368 C.3       1 <0>         0.0997
      7 C5          0.2955   -2.1354   -0.1809 C.3       1 <0>        -0.0224
      8 C6          2.2385   -5.0639   -0.9068 C.ar      1 <0>         0.4160
      9 C7          2.8480   -5.7136   -1.9766 C.ar      1 <0>        -0.2223
     10 C8          3.8945   -6.5803   -1.7313 C.ar      1 <0>        -0.0094
     11 C9          4.3035   -6.7720   -0.4065 C.ar      1 <0>        -0.1606
     12 C10         3.6454   -6.0870    0.6106 C.ar      1 <0>         0.1870
     13 N3          2.6533   -5.2639    0.3348 N.ar      1 <0>        -0.5280
     14 C11         5.4228   -7.6932   -0.0908 C.ar      1 <0>        -0.0104
     15 C12         5.8285   -7.8898    1.2353 C.ar      1 <0>        -0.0697
     16 C13         6.8767   -8.7603    1.4756 C.ar      1 <0>         0.1677
     17 C14         7.4915   -9.4106    0.4011 C.ar      1 <0>         0.3864
     18 N4          7.0794   -9.1969   -0.8381 N.ar      1 <0>        -0.4552
     19 C15         6.0804   -8.3784   -1.1072 C.ar      1 <0>         0.0762
     20 N5          8.5456  -10.2938    0.6431 N.pl3     1 <0>        -0.7058
     21 C16         9.2316  -10.2428    1.9420 C.3       1 <0>         0.0992
     22 C17         8.1680  -10.1643    3.0466 C.3       1 <0>         0.0910
     23 N6          7.3219   -8.9899    2.7843 N.pl3     1 <0>        -0.6036
     24 C18         6.9520   -8.0784    3.8699 C.3       1 <0>         0.1463
     25 C19         5.6363   -8.5117    4.4633 C.ar      1 <0>        -0.0632
     26 C20         4.9654   -9.5994    3.9364 C.ar      1 <0>        -0.1078
     27 C21         3.7578   -9.9973    4.4815 C.ar      1 <0>        -0.0025
     28 C22         3.2222   -9.3061    5.5539 C.ar      1 <0>        -0.1031
     29 C23         3.8939   -8.2189    6.0797 C.ar      1 <0>        -0.0460
     30 C24         5.1034   -7.8249    5.5379 C.ar      1 <0>        -0.1722
     31 C25         5.8383   -6.6430    6.1157 C.3       1 <0>         0.5077
     32 F1          5.1405   -6.1577    7.2270 F         1 <0>        -0.1658
     33 F2          7.1220   -7.0380    6.5073 F         1 <0>        -0.1712
     34 F3          5.9347   -5.6359    5.1495 F         1 <0>        -0.1764
     35 Cl1         2.9144  -11.3629    3.8200 Cl        1 <0>        -0.0405
     36 H1          0.5631    0.1544   -1.4532 H         1 <0>         0.1226
     37 H2         -0.7695   -0.0907   -2.6075 H         1 <0>         0.1275
     38 H3         -1.1073   -0.0136   -0.8616 H         1 <0>         0.1280
     39 H4          0.3981   -1.9172   -3.5232 H         1 <0>         0.1472
     40 H5          1.7216   -1.8069   -2.3378 H         1 <0>         0.1334
     41 H6         -0.1095   -4.2062   -2.8051 H         1 <0>         0.0996
     42 H7          1.6260   -4.0961   -3.2012 H         1 <0>         0.1290
     43 H8         -0.6261   -4.0843   -0.0780 H         1 <0>         0.0928
     44 H9          0.8466   -3.9123    0.9134 H         1 <0>         0.1400
     45 H10         1.2881   -1.7046   -0.0492 H         1 <0>         0.1330
     46 H11        -0.3784   -1.7341    0.5760 H         1 <0>         0.1455
     47 H12         2.5060   -5.5421   -2.9866 H         1 <0>         0.1451
     48 H13         4.3854   -7.0980   -2.5421 H         1 <0>         0.1452
     49 H14         3.9532   -6.2284    1.6361 H         1 <0>         0.1634
     50 H15         5.3368   -7.3756    2.0479 H         1 <0>         0.1663
     51 H16         5.7712   -8.2352   -2.1321 H         1 <0>         0.2017
     52 H17         8.8205  -10.9308   -0.0348 H         1 <0>         0.4259
     53 H18         9.8337  -11.1417    2.0750 H         1 <0>         0.1277
     54 H19         9.8717   -9.3616    1.9850 H         1 <0>         0.0965
     55 H20         7.5578  -11.0674    3.0349 H         1 <0>         0.0900
     56 H21         8.6525  -10.0593    4.0173 H         1 <0>         0.1218
     57 H22         7.7226   -8.0995    4.6405 H         1 <0>         0.1246
     58 H23         6.8579   -7.0657    3.4778 H         1 <0>         0.1084
     59 H24         5.3837  -10.1383    3.0991 H         1 <0>         0.1400
     60 H25         2.2793   -9.6161    5.9796 H         1 <0>         0.1533
     61 H26         3.4758   -7.6791    6.9165 H         1 <0>         0.1567
     62 H27         7.5215   -9.6577   -1.5683 H         1 <0>         0.4474
     63 H28        -1.0978   -2.2565   -1.6649 H         1 <0>         0.4265
@<TRIPOS>BOND
     1    1    2 1
     2    1   36 1
     3    1   37 1
     4    1   38 1
     5    2    7 1
     6    2    3 1
     7    2   63 1
     8    3    4 1
     9    3   39 1
    10    3   40 1
    11    4    5 1
    12    4   41 1
    13    4   42 1
    14    5    6 1
    15    5    8 1
    16    6    7 1
    17    6   43 1
    18    6   44 1
    19    7   45 1
    20    7   46 1
    21    8   13 ar
    22    8    9 ar
    23    9   10 ar
    24    9   47 1
    25   10   11 ar
    26   10   48 1
    27   11   12 ar
    28   11   14 1
    29   12   13 ar
    30   12   49 1
    31   14   19 ar
    32   14   15 ar
    33   15   16 ar
    34   15   50 1
    35   16   23 1
    36   16   17 ar
    37   17   18 ar
    38   17   20 1
    39   18   19 ar
    40   18   62 1
    41   19   51 1
    42   20   21 1
    43   20   52 1
    44   21   22 1
    45   21   53 1
    46   21   54 1
    47   22   23 1
    48   22   55 1
    49   22   56 1
    50   23   24 1
    51   24   25 1
    52   24   57 1
    53   24   58 1
    54   25   30 ar
    55   25   26 ar
    56   26   27 ar
    57   26   59 1
    58   27   28 ar
    59   27   35 1
    60   28   29 ar
    61   28   60 1
    62   29   30 ar
    63   29   61 1
    64   30   31 1
    65   31   32 1
    66   31   33 1
    67   31   34 1
@<TRIPOS>MOLECULE
ZINC43176687
   62    66     0     0     0
SMALL
USER_CHARGES

@<TRIPOS>ATOM
      1 C1          0.0890   -0.2387   -2.0536 C.3       1 <0>         0.0234
      2 N1          0.2156   -1.6955   -1.9135 N.3       1 <0>        -0.5435
      3 C2          1.1275   -2.2445   -2.9259 C.3       1 <0>         0.0381
      4 C3          1.0924   -3.7752   -2.8637 C.3       1 <0>         0.1212
      5 N2          1.3731   -4.1932   -1.4818 N.pl3     1 <0>        -0.5946
      6 C4          0.5903   -3.5816   -0.3971 C.3       1 <0>         0.1226
      7 C5          0.6452   -2.0585   -0.5564 C.3       1 <0>         0.0384
      8 C6          2.3523   -5.1407   -1.2080 C.ar      1 <0>         0.4331
      9 C7          2.9288   -5.8551   -2.2547 C.ar      1 <0>        -0.2362
     10 C8          3.9013   -6.7944   -1.9746 C.ar      1 <0>        -0.0057
     11 C9          4.2711   -6.9919   -0.6392 C.ar      1 <0>        -0.2012
     12 C10         3.6498   -6.2396    0.3532 C.ar      1 <0>         0.1962
     13 N3          2.7288   -5.3484    0.0445 N.ar      1 <0>        -0.5374
     14 C11         5.3107   -7.9898   -0.2864 C.ar      1 <0>         0.0132
     15 C12         5.6769   -8.1918    1.0503 C.ar      1 <0>        -0.0722
     16 C13         6.6508   -9.1351    1.3255 C.ar      1 <0>         0.1670
     17 C14         7.2327   -9.8506    0.2743 C.ar      1 <0>         0.3736
     18 N4          6.8600   -9.6294   -0.9760 N.ar      1 <0>        -0.4510
     19 C15         5.9316   -8.7422   -1.2781 C.ar      1 <0>         0.0654
     20 N5          8.2116  -10.8070    0.5515 N.pl3     1 <0>        -0.7129
     21 C16         8.8766  -10.7842    1.8621 C.3       1 <0>         0.1023
     22 C17         7.8029  -10.6039    2.9449 C.3       1 <0>         0.0932
     23 N6          7.0542   -9.3735    2.6462 N.pl3     1 <0>        -0.6067
     24 C18         6.7363   -8.4161    3.7086 C.3       1 <0>         0.1469
     25 C19         5.4036   -8.7667    4.3185 C.ar      1 <0>        -0.0616
     26 C20         4.6714   -9.8264    3.8168 C.ar      1 <0>        -0.1063
     27 C21         3.4483  -10.1484    4.3770 C.ar      1 <0>        -0.0020
     28 C22         2.9585   -9.4093    5.4394 C.ar      1 <0>        -0.1038
     29 C23         3.6914   -8.3501    5.9400 C.ar      1 <0>        -0.0464
     30 C24         4.9162   -8.0321    5.3830 C.ar      1 <0>        -0.1725
     31 C25         5.7179   -6.8808    5.9335 C.3       1 <0>         0.5076
     32 F1          5.0781   -6.3666    7.0664 F         1 <0>        -0.1667
     33 F2          6.9967   -7.3277    6.2826 F         1 <0>        -0.1735
     34 F3          5.8229   -5.8792    4.9624 F         1 <0>        -0.1735
     35 Cl1         2.5279  -11.4788    3.7472 Cl        1 <0>        -0.0428
     36 H1          1.0526    0.2305   -1.8549 H         1 <0>         0.0278
     37 H2         -0.2302    0.0025   -3.0676 H         1 <0>         0.0732
     38 H3         -0.6492    0.1320   -1.3425 H         1 <0>         0.0742
     39 H4          0.8137   -1.9134   -3.9158 H         1 <0>         0.0937
     40 H5          2.1413   -1.8956   -2.7296 H         1 <0>         0.0398
     41 H6          0.1060   -4.1313   -3.1607 H         1 <0>         0.0846
     42 H7          1.8495   -4.1863   -3.5315 H         1 <0>         0.0906
     43 H8         -0.4444   -3.9190   -0.4571 H         1 <0>         0.0772
     44 H9          1.0155   -3.8646    0.5658 H         1 <0>         0.1030
     45 H10         1.6657   -1.7122   -0.3932 H         1 <0>         0.0397
     46 H11        -0.0184   -1.5925    0.1720 H         1 <0>         0.0916
     47 H12         2.6187   -5.6770   -3.2738 H         1 <0>         0.1437
     48 H13         4.3652   -7.3633   -2.7668 H         1 <0>         0.1376
     49 H14         3.9279   -6.3848    1.3867 H         1 <0>         0.1558
     50 H15         5.2120   -7.6264    1.8444 H         1 <0>         0.1661
     51 H16         5.6523   -8.5951   -2.3110 H         1 <0>         0.2017
     52 H17         8.4486  -11.4758   -0.1099 H         1 <0>         0.4228
     53 H18         9.4055  -11.7237    2.0221 H         1 <0>         0.1231
     54 H19         9.5816   -9.9538    1.9019 H         1 <0>         0.0927
     55 H20         7.1256  -11.4578    2.9374 H         1 <0>         0.0870
     56 H21         8.2771  -10.5180    3.9226 H         1 <0>         0.1181
     57 H22         7.5090   -8.4557    4.4764 H         1 <0>         0.1225
     58 H23         6.6912   -7.4107    3.2900 H         1 <0>         0.1085
     59 H24         5.0540  -10.4027    2.9874 H         1 <0>         0.1405
     60 H25         2.0034   -9.6599    5.8769 H         1 <0>         0.1525
     61 H26         3.3090   -7.7729    6.7689 H         1 <0>         0.1559
     62 H27         7.2781  -10.1362   -1.6895 H         1 <0>         0.4446
@<TRIPOS>BOND
     1    1    2 1
     2    1   36 1
     3    1   37 1
     4    1   38 1
     5    2    7 1
     6    2    3 1
     7    3    4 1
     8    3   39 1
     9    3   40 1
    10    4    5 1
    11    4   41 1
    12    4   42 1
    13    5    6 1
    14    5    8 1
    15    6    7 1
    16    6   43 1
    17    6   44 1
    18    7   45 1
    19    7   46 1
    20    8   13 ar
    21    8    9 ar
    22    9   10 ar
    23    9   47 1
    24   10   11 ar
    25   10   48 1
    26   11   12 ar
    27   11   14 1
    28   12   13 ar
    29   12   49 1
    30   14   19 ar
    31   14   15 ar
    32   15   16 ar
    33   15   50 1
    34   16   23 1
    35   16   17 ar
    36   17   18 ar
    37   17   20 1
    38   18   19 ar
    39   18   62 1
    40   19   51 1
    41   20   21 1
    42   20   52 1
    43   21   22 1
    44   21   53 1
    45   21   54 1
    46   22   23 1
    47   22   55 1
    48   22   56 1
    49   23   24 1
    50   24   25 1
    51   24   57 1
    52   24   58 1
    53   25   30 ar
    54   25   26 ar
    55   26   27 ar
    56   26   59 1
    57   27   28 ar
    58   27   35 1
    59   28   29 ar
    60   28   60 1
    61   29   30 ar
    62   29   61 1
    63   30   31 1
    64   31   32 1
    65   31   33 1
    66   31   34 1
@<TRIPOS>MOLECULE
ZINC43176687
   62    66     0     0     0
SMALL
USER_CHARGES

@<TRIPOS>ATOM
      1 C1         -0.3930   -0.3430   -1.6162 C.3       1 <0>        -0.0468
      2 N1         -0.2116   -1.7974   -1.5168 N.4       1 <0>        -0.3848
      3 C2          0.7426   -2.2409   -2.5410 C.3       1 <0>        -0.0223
      4 C3          0.8457   -3.7694   -2.5138 C.3       1 <0>         0.1028
      5 N2          1.1848   -4.1897   -1.1454 N.pl3     1 <0>        -0.6287
      6 C4          0.3765   -3.6587   -0.0368 C.3       1 <0>         0.1043
      7 C5          0.2955   -2.1354   -0.1809 C.3       1 <0>        -0.0222
      8 C6          2.2385   -5.0639   -0.9068 C.ar      1 <0>         0.3817
      9 C7          2.8480   -5.7136   -1.9766 C.ar      1 <0>        -0.2180
     10 C8          3.8945   -6.5803   -1.7313 C.ar      1 <0>        -0.0296
     11 C9          4.3035   -6.7720   -0.4065 C.ar      1 <0>        -0.1045
     12 C10         3.6454   -6.0870    0.6106 C.ar      1 <0>         0.1534
     13 N3          2.6533   -5.2639    0.3348 N.ar      1 <0>        -0.5278
     14 C11         5.4228   -7.6932   -0.0908 C.ar      1 <0>        -0.1108
     15 C12         5.8285   -7.8898    1.2353 C.ar      1 <0>        -0.1030
     16 C13         6.8767   -8.7603    1.4756 C.ar      1 <0>         0.1112
     17 C14         7.4915   -9.4106    0.4011 C.ar      1 <0>         0.3655
     18 N4          7.0794   -9.1969   -0.8381 N.ar      1 <0>        -0.5039
     19 C15         6.0804   -8.3784   -1.1072 C.ar      1 <0>         0.1134
     20 N5          8.5456  -10.2938    0.6431 N.pl3     1 <0>        -0.7271
     21 C16         9.2316  -10.2428    1.9420 C.3       1 <0>         0.1115
     22 C17         8.1680  -10.1643    3.0466 C.3       1 <0>         0.1056
     23 N6          7.3219   -8.9899    2.7843 N.pl3     1 <0>        -0.6252
     24 C18         6.9520   -8.0784    3.8699 C.3       1 <0>         0.1532
     25 C19         5.6363   -8.5117    4.4633 C.ar      1 <0>        -0.0495
     26 C20         4.9654   -9.5994    3.9364 C.ar      1 <0>        -0.0969
     27 C21         3.7578   -9.9973    4.4815 C.ar      1 <0>        -0.0032
     28 C22         3.2222   -9.3061    5.5539 C.ar      1 <0>        -0.1130
     29 C23         3.8939   -8.2189    6.0797 C.ar      1 <0>        -0.0543
     30 C24         5.1034   -7.8249    5.5379 C.ar      1 <0>        -0.1800
     31 C25         5.8383   -6.6430    6.1157 C.3       1 <0>         0.5093
     32 F1          5.1405   -6.1577    7.2270 F         1 <0>        -0.1718
     33 F2          7.1220   -7.0380    6.5073 F         1 <0>        -0.1725
     34 F3          5.9347   -5.6359    5.1495 F         1 <0>        -0.1754
     35 Cl1         2.9144  -11.3629    3.8200 Cl        1 <0>        -0.0485
     36 H1          0.5631    0.1544   -1.4532 H         1 <0>         0.1214
     37 H2         -0.7695   -0.0907   -2.6075 H         1 <0>         0.1250
     38 H3         -1.1073   -0.0136   -0.8616 H         1 <0>         0.1253
     39 H4          0.3981   -1.9172   -3.5232 H         1 <0>         0.1430
     40 H5          1.7216   -1.8069   -2.3378 H         1 <0>         0.1324
     41 H6         -0.1095   -4.2062   -2.8051 H         1 <0>         0.0926
     42 H7          1.6260   -4.0961   -3.2012 H         1 <0>         0.1278
     43 H8         -0.6261   -4.0843   -0.0780 H         1 <0>         0.0857
     44 H9          0.8466   -3.9123    0.9134 H         1 <0>         0.1380
     45 H10         1.2881   -1.7046   -0.0492 H         1 <0>         0.1319
     46 H11        -0.3784   -1.7341    0.5760 H         1 <0>         0.1411
     47 H12         2.5060   -5.5421   -2.9866 H         1 <0>         0.1352
     48 H13         4.3854   -7.0980   -2.5421 H         1 <0>         0.1436
     49 H14         3.9532   -6.2284    1.6361 H         1 <0>         0.1583
     50 H15         5.3368   -7.3756    2.0479 H         1 <0>         0.1314
     51 H16         5.7713   -8.2352   -2.1321 H         1 <0>         0.1537
     52 H17         8.8209  -10.9304   -0.0351 H         1 <0>         0.4109
     53 H18         9.8337  -11.1417    2.0750 H         1 <0>         0.1002
     54 H19         9.8717   -9.3616    1.9850 H         1 <0>         0.0696
     55 H20         7.5578  -11.0674    3.0349 H         1 <0>         0.0700
     56 H21         8.6525  -10.0593    4.0173 H         1 <0>         0.0962
     57 H22         7.7226   -8.0995    4.6405 H         1 <0>         0.1073
     58 H23         6.8579   -7.0657    3.4778 H         1 <0>         0.0981
     59 H24         5.3837  -10.1383    3.0991 H         1 <0>         0.1472
     60 H25         2.2793   -9.6161    5.9796 H         1 <0>         0.1473
     61 H26         3.4758   -7.6791    6.9165 H         1 <0>         0.1505
     62 H27        -1.0978   -2.2565   -1.6649 H         1 <0>         0.4247
@<TRIPOS>BOND
     1    1    2 1
     2    1   36 1
     3    1   37 1
     4    1   38 1
     5    2    7 1
     6    2    3 1
     7    2   62 1
     8    3    4 1
     9    3   39 1
    10    3   40 1
    11    4    5 1
    12    4   41 1
    13    4   42 1
    14    5    6 1
    15    5    8 1
    16    6    7 1
    17    6   43 1
    18    6   44 1
    19    7   45 1
    20    7   46 1
    21    8   13 ar
    22    8    9 ar
    23    9   10 ar
    24    9   47 1
    25   10   11 ar
    26   10   48 1
    27   11   12 ar
    28   11   14 1
    29   12   13 ar
    30   12   49 1
    31   14   19 ar
    32   14   15 ar
    33   15   16 ar
    34   15   50 1
    35   16   23 1
    36   16   17 ar
    37   17   18 ar
    38   17   20 1
    39   18   19 ar
    40   19   51 1
    41   20   21 1
    42   20   52 1
    43   21   22 1
    44   21   53 1
    45   21   54 1
    46   22   23 1
    47   22   55 1
    48   22   56 1
    49   23   24 1
    50   24   25 1
    51   24   57 1
    52   24   58 1
    53   25   30 ar
    54   25   26 ar
    55   26   27 ar
    56   26   59 1
    57   27   28 ar
    58   27   35 1
    59   28   29 ar
    60   28   60 1
    61   29   30 ar
    62   29   61 1
    63   30   31 1
    64   31   32 1
    65   31   33 1
    66   31   34 1
@<TRIPOS>MOLECULE
ZINC43176689
   73    78     0     0     0
SMALL
USER_CHARGES

@<TRIPOS>ATOM
      1 C1         -0.5873    1.3645    0.2729 C.ar      1 <0>        -0.1010
      2 C2          0.3669    2.3518    0.3677 C.ar      1 <0>        -0.0429
      3 C3          1.7198    2.0102    0.4434 C.ar      1 <0>        -0.1281
      4 C4          2.1025    0.6663    0.4227 C.ar      1 <0>        -0.1431
      5 C5          1.1468   -0.3194    0.3278 C.ar      1 <0>        -0.1048
      6 C6         -0.2041    0.0228    0.2522 C.ar      1 <0>        -0.0201
      7 C7         -1.2324   -1.0395    0.1500 C.ar      1 <0>        -0.0418
      8 C8         -0.8596   -2.3906    0.1342 C.ar      1 <0>        -0.0698
      9 C9         -1.8583   -3.3423    0.0380 C.ar      1 <0>         0.1709
     10 C10        -3.1941   -2.9337   -0.0387 C.ar      1 <0>         0.3920
     11 N1         -3.5053   -1.6471   -0.0221 N.ar      1 <0>        -0.4582
     12 C11        -2.5827   -0.7099    0.0741 C.ar      1 <0>         0.0893
     13 N2         -4.2024   -3.8930   -0.1298 N.pl3     1 <0>        -0.7017
     14 C12        -3.8460   -5.2644   -0.5202 C.3       1 <0>         0.0973
     15 C13        -2.6038   -5.6860    0.2778 C.3       1 <0>         0.0903
     16 N3         -1.5381   -4.7064    0.0161 N.pl3     1 <0>        -0.6001
     17 C14        -0.1693   -5.1481   -0.2622 C.3       1 <0>         0.1628
     18 C15         0.5587   -5.3770    1.0373 C.ar      1 <0>        -0.1304
     19 C16         1.4684   -4.4421    1.4938 C.ar      1 <0>        -0.1208
     20 C17         2.1368   -4.6521    2.6877 C.ar      1 <0>         0.0939
     21 C18         1.8939   -5.7990    3.4246 C.ar      1 <0>        -0.1087
     22 C19         0.9845   -6.7337    2.9683 C.ar      1 <0>        -0.1142
     23 C20         0.3120   -6.5211    1.7766 C.ar      1 <0>         0.1138
     24 F1         -0.5810   -7.4326    1.3329 F         1 <0>        -0.1263
     25 F2          3.0264   -3.7384    3.1336 F         1 <0>        -0.1352
     26 C21         2.7445    3.0687    0.5448 C.2       1 <0>         0.5657
     27 O1          2.4160    4.2386    0.5049 O.2       1 <0>        -0.4924
     28 N4          4.0438    2.7379    0.6814 N.am      1 <0>        -0.6283
     29 C22         5.1753    3.6829    0.6844 C.3       1 <0>         0.0893
     30 C23         6.3983    2.8387    0.2472 C.3       1 <0>        -0.1345
     31 C24         6.1045    1.4822    0.9409 C.3       1 <0>        -0.1370
     32 C25         4.5671    1.3754    0.8585 C.3       1 <0>         0.0925
     33 H1          4.2855    0.7565    0.0065 H         1 <0>         0.1394
     34 C26         4.0149    0.7697    2.1504 C.3       1 <0>        -0.0492
     35 N5          4.3881    1.6202    3.2885 N.4       1 <0>        -0.3890
     36 C27         3.5782    2.8654    3.2847 C.3       1 <0>        -0.0180
     37 C28         3.6577    3.3445    4.7560 C.3       1 <0>        -0.1449
     38 C29         3.6109    2.0210    5.5536 C.3       1 <0>        -0.1444
     39 C30         4.0711    0.9370    4.5614 C.3       1 <0>        -0.0095
     40 H2         -1.6332    1.6281    0.2189 H         1 <0>         0.1426
     41 H3          0.0702    3.3901    0.3833 H         1 <0>         0.1528
     42 H4          3.1479    0.4014    0.4808 H         1 <0>         0.1671
     43 H5          1.4423   -1.3580    0.3114 H         1 <0>         0.1357
     44 H6          0.1790   -2.6804    0.1951 H         1 <0>         0.1654
     45 H7         -2.8787    0.3286    0.0893 H         1 <0>         0.2053
     46 H8         -5.1240   -3.6589    0.0618 H         1 <0>         0.4269
     47 H9         -4.6733   -5.9373   -0.2946 H         1 <0>         0.1287
     48 H10        -3.6258   -5.2971   -1.5872 H         1 <0>         0.0979
     49 H11        -2.8374   -5.7001    1.3424 H         1 <0>         0.0877
     50 H12        -2.2798   -6.6765   -0.0417 H         1 <0>         0.1239
     51 H13        -0.1960   -6.0768   -0.8322 H         1 <0>         0.1142
     52 H14         0.3493   -4.3824   -0.8392 H         1 <0>         0.1020
     53 H15         1.6581   -3.5477    0.9188 H         1 <0>         0.1384
     54 H16         2.4156   -5.9631    4.3559 H         1 <0>         0.1541
     55 H17         0.7953   -7.6284    3.5429 H         1 <0>         0.1562
     56 H18         4.9976    4.4898   -0.0265 H         1 <0>         0.1019
     57 H19         5.3306    4.0855    1.6854 H         1 <0>         0.0763
     58 H20         6.4274    2.7251   -0.8365 H         1 <0>         0.0953
     59 H21         7.3263    3.2741    0.6178 H         1 <0>         0.1046
     60 H22         6.5798    0.6626    0.4020 H         1 <0>         0.1141
     61 H23         6.4309    1.5022    1.9807 H         1 <0>         0.0717
     62 H24         2.9287    0.7049    2.0861 H         1 <0>         0.1492
     63 H25         4.4307   -0.2280    2.2907 H         1 <0>         0.1503
     64 H26         4.0147    3.6061    2.6148 H         1 <0>         0.1434
     65 H27         2.5466    2.6524    3.0047 H         1 <0>         0.1249
     66 H28         4.5934    3.8726    4.9396 H         1 <0>         0.1004
     67 H29         2.8031    3.9743    5.0032 H         1 <0>         0.1177
     68 H30         4.2903    2.0679    6.4046 H         1 <0>         0.1086
     69 H31         2.5943    1.8183    5.8907 H         1 <0>         0.1035
     70 H32         3.2713    0.2130    4.4051 H         1 <0>         0.1295
     71 H33         4.9596    0.4356    4.9450 H         1 <0>         0.1356
     72 H34         5.3713    1.8434    3.2490 H         1 <0>         0.4226
     73 H35        -4.4381   -1.3868   -0.0779 H         1 <0>         0.4489
@<TRIPOS>BOND
     1    1    6 ar
     2    1    2 ar
     3    1   40 1
     4    2    3 ar
     5    2   41 1
     6    3    4 ar
     7    3   26 1
     8    4    5 ar
     9    4   42 1
    10    5    6 ar
    11    5   43 1
    12    6    7 1
    13    7   12 ar
    14    7    8 ar
    15    8    9 ar
    16    8   44 1
    17    9   16 1
    18    9   10 ar
    19   10   11 ar
    20   10   13 1
    21   11   12 ar
    22   11   73 1
    23   12   45 1
    24   13   14 1
    25   13   46 1
    26   14   15 1
    27   14   47 1
    28   14   48 1
    29   15   16 1
    30   15   49 1
    31   15   50 1
    32   16   17 1
    33   17   18 1
    34   17   51 1
    35   17   52 1
    36   18   23 ar
    37   18   19 ar
    38   19   20 ar
    39   19   53 1
    40   20   21 ar
    41   20   25 1
    42   21   22 ar
    43   21   54 1
    44   22   23 ar
    45   22   55 1
    46   23   24 1
    47   26   27 2
    48   26   28 am
    49   28   32 1
    50   28   29 1
    51   29   30 1
    52   29   56 1
    53   29   57 1
    54   30   31 1
    55   30   58 1
    56   30   59 1
    57   31   32 1
    58   31   60 1
    59   31   61 1
    60   32   33 1
    61   32   34 1
    62   34   35 1
    63   34   62 1
    64   34   63 1
    65   35   39 1
    66   35   36 1
    67   35   72 1
    68   36   37 1
    69   36   64 1
    70   36   65 1
    71   37   38 1
    72   37   66 1
    73   37   67 1
    74   38   39 1
    75   38   68 1
    76   38   69 1
    77   39   70 1
    78   39   71 1
@<TRIPOS>MOLECULE
ZINC43176689
   72    77     0     0     0
SMALL
USER_CHARGES

@<TRIPOS>ATOM
      1 C1         -0.5873    1.3645    0.2729 C.ar      1 <0>        -0.1204
      2 C2          0.3669    2.3518    0.3677 C.ar      1 <0>        -0.0400
      3 C3          1.7198    2.0102    0.4434 C.ar      1 <0>        -0.1645
      4 C4          2.1025    0.6663    0.4227 C.ar      1 <0>        -0.1413
      5 C5          1.1468   -0.3194    0.3278 C.ar      1 <0>        -0.1279
      6 C6         -0.2041    0.0228    0.2522 C.ar      1 <0>         0.0294
      7 C7         -1.2324   -1.0395    0.1500 C.ar      1 <0>        -0.1420
      8 C8         -0.8596   -2.3906    0.1342 C.ar      1 <0>        -0.1009
      9 C9         -1.8583   -3.3423    0.0380 C.ar      1 <0>         0.1123
     10 C10        -3.1941   -2.9337   -0.0387 C.ar      1 <0>         0.3739
     11 N1         -3.5053   -1.6471   -0.0221 N.ar      1 <0>        -0.5069
     12 C11        -2.5827   -0.7099    0.0741 C.ar      1 <0>         0.1260
     13 N2         -4.2024   -3.8930   -0.1298 N.pl3     1 <0>        -0.7236
     14 C12        -3.8460   -5.2644   -0.5202 C.3       1 <0>         0.1092
     15 C13        -2.6038   -5.6860    0.2778 C.3       1 <0>         0.1064
     16 N3         -1.5381   -4.7064    0.0161 N.pl3     1 <0>        -0.6219
     17 C14        -0.1693   -5.1481   -0.2622 C.3       1 <0>         0.1696
     18 C15         0.5587   -5.3770    1.0373 C.ar      1 <0>        -0.1141
     19 C16         1.4684   -4.4421    1.4938 C.ar      1 <0>        -0.1170
     20 C17         2.1368   -4.6521    2.6877 C.ar      1 <0>         0.0883
     21 C18         1.8939   -5.7990    3.4246 C.ar      1 <0>        -0.1188
     22 C19         0.9845   -6.7337    2.9683 C.ar      1 <0>        -0.1200
     23 C20         0.3120   -6.5211    1.7766 C.ar      1 <0>         0.1101
     24 F1         -0.5810   -7.4326    1.3329 F         1 <0>        -0.1276
     25 F2          3.0264   -3.7384    3.1336 F         1 <0>        -0.1402
     26 C21         2.7445    3.0687    0.5448 C.2       1 <0>         0.5728
     27 O1          2.4160    4.2386    0.5049 O.2       1 <0>        -0.5039
     28 N4          4.0438    2.7379    0.6814 N.am      1 <0>        -0.6312
     29 C22         5.1753    3.6829    0.6844 C.3       1 <0>         0.0906
     30 C23         6.3983    2.8387    0.2472 C.3       1 <0>        -0.1340
     31 C24         6.1045    1.4822    0.9409 C.3       1 <0>        -0.1367
     32 C25         4.5671    1.3754    0.8585 C.3       1 <0>         0.0955
     33 H1          4.2855    0.7565    0.0065 H         1 <0>         0.1394
     34 C26         4.0149    0.7697    2.1504 C.3       1 <0>        -0.0503
     35 N5          4.3881    1.6202    3.2885 N.4       1 <0>        -0.3875
     36 C27         3.5782    2.8654    3.2847 C.3       1 <0>        -0.0179
     37 C28         3.6577    3.3445    4.7560 C.3       1 <0>        -0.1443
     38 C29         3.6109    2.0210    5.5536 C.3       1 <0>        -0.1438
     39 C30         4.0711    0.9370    4.5614 C.3       1 <0>        -0.0100
     40 H2         -1.6332    1.6281    0.2189 H         1 <0>         0.1408
     41 H3          0.0702    3.3901    0.3833 H         1 <0>         0.1428
     42 H4          3.1479    0.4014    0.4808 H         1 <0>         0.1562
     43 H5          1.4423   -1.3580    0.3114 H         1 <0>         0.1294
     44 H6          0.1790   -2.6804    0.1951 H         1 <0>         0.1323
     45 H7         -2.8787    0.3286    0.0893 H         1 <0>         0.1578
     46 H8         -5.1240   -3.6589    0.0618 H         1 <0>         0.4120
     47 H9         -4.6733   -5.9373   -0.2946 H         1 <0>         0.1013
     48 H10        -3.6258   -5.2971   -1.5872 H         1 <0>         0.0711
     49 H11        -2.8374   -5.7001    1.3424 H         1 <0>         0.0670
     50 H12        -2.2798   -6.6765   -0.0417 H         1 <0>         0.0991
     51 H13        -0.1960   -6.0768   -0.8322 H         1 <0>         0.0957
     52 H14         0.3493   -4.3824   -0.8392 H         1 <0>         0.0915
     53 H15         1.6581   -3.5477    0.9188 H         1 <0>         0.1386
     54 H16         2.4156   -5.9631    4.3559 H         1 <0>         0.1482
     55 H17         0.7953   -7.6284    3.5429 H         1 <0>         0.1508
     56 H18         4.9976    4.4898   -0.0265 H         1 <0>         0.0987
     57 H19         5.3306    4.0855    1.6854 H         1 <0>         0.0724
     58 H20         6.4274    2.7251   -0.8365 H         1 <0>         0.0936
     59 H21         7.3263    3.2741    0.6178 H         1 <0>         0.1007
     60 H22         6.5798    0.6626    0.4020 H         1 <0>         0.1114
     61 H23         6.4309    1.5022    1.9807 H         1 <0>         0.0694
     62 H24         2.9287    0.7049    2.0861 H         1 <0>         0.1556
     63 H25         4.4307   -0.2280    2.2907 H         1 <0>         0.1478
     64 H26         4.0147    3.6061    2.6148 H         1 <0>         0.1428
     65 H27         2.5466    2.6524    3.0047 H         1 <0>         0.1284
     66 H28         4.5934    3.8726    4.9396 H         1 <0>         0.0975
     67 H29         2.8031    3.9743    5.0032 H         1 <0>         0.1166
     68 H30         4.2903    2.0679    6.4046 H         1 <0>         0.1060
     69 H31         2.5943    1.8183    5.8907 H         1 <0>         0.1039
     70 H32         3.2713    0.2130    4.4051 H         1 <0>         0.1313
     71 H33         4.9596    0.4356    4.9450 H         1 <0>         0.1333
     72 H34         5.3713    1.8434    3.2490 H         1 <0>         0.4190
@<TRIPOS>BOND
     1    1    6 ar
     2    1    2 ar
     3    1   40 1
     4    2    3 ar
     5    2   41 1
     6    3    4 ar
     7    3   26 1
     8    4    5 ar
     9    4   42 1
    10    5    6 ar
    11    5   43 1
    12    6    7 1
    13    7   12 ar
    14    7    8 ar
    15    8    9 ar
    16    8   44 1
    17    9   16 1
    18    9   10 ar
    19   10   11 ar
    20   10   13 1
    21   11   12 ar
    22   12   45 1
    23   13   14 1
    24   13   46 1
    25   14   15 1
    26   14   47 1
    27   14   48 1
    28   15   16 1
    29   15   49 1
    30   15   50 1
    31   16   17 1
    32   17   18 1
    33   17   51 1
    34   17   52 1
    35   18   23 ar
    36   18   19 ar
    37   19   20 ar
    38   19   53 1
    39   20   21 ar
    40   20   25 1
    41   21   22 ar
    42   21   54 1
    43   22   23 ar
    44   22   55 1
    45   23   24 1
    46   26   27 2
    47   26   28 am
    48   28   32 1
    49   28   29 1
    50   29   30 1
    51   29   56 1
    52   29   57 1
    53   30   31 1
    54   30   58 1
    55   30   59 1
    56   31   32 1
    57   31   60 1
    58   31   61 1
    59   32   33 1
    60   32   34 1
    61   34   35 1
    62   34   62 1
    63   34   63 1
    64   35   39 1
    65   35   36 1
    66   35   72 1
    67   36   37 1
    68   36   64 1
    69   36   65 1
    70   37   38 1
    71   37   66 1
    72   37   67 1
    73   38   39 1
    74   38   68 1
    75   38   69 1
    76   39   70 1
    77   39   71 1
@<TRIPOS>MOLECULE
ZINC02273180
   43    46     0     0     0
SMALL
USER_CHARGES
2-benzylsulfanyl-4-(2-thienyl)-5,6,7,8-tetrahydroquinoline-3-carbonitrile
@<TRIPOS>ATOM
      1 C1         -4.0053   -1.4830    0.0323 C.ar      1 <0>        -0.1113
      2 C2         -3.3683   -1.2374   -1.1696 C.ar      1 <0>        -0.1192
      3 C3         -2.0716   -0.7585   -1.1795 C.ar      1 <0>        -0.1003
      4 C4         -1.4117   -0.5257    0.0127 C.ar      1 <0>        -0.0864
      5 C5         -2.0468   -0.7767    1.2146 C.ar      1 <0>        -0.1004
      6 C6         -3.3455   -1.2502    1.2245 C.ar      1 <0>        -0.1193
      7 C7          0.0021   -0.0041    0.0020 C.3       1 <0>        -0.0581
      8 S1         -0.0225    1.8057    0.0120 S.3       1 <0>        -0.0350
      9 C8          1.7084    2.1353   -0.0028 C.ar      1 <0>         0.1668
     10 C9          2.1680    3.4638   -0.0000 C.ar      1 <0>        -0.0497
     11 C10         3.5611    3.6873   -0.0182 C.ar      1 <0>         0.1009
     12 C11         4.4208    2.5750   -0.0323 C.ar      1 <0>        -0.1146
     13 C12         3.8863    1.3106   -0.0279 C.ar      1 <0>         0.1854
     14 N1          2.5681    1.1336   -0.0109 N.ar      1 <0>        -0.4882
     15 C13         4.7478    0.0725   -0.0323 C.3       1 <0>        -0.0719
     16 C14         6.1677    0.4066   -0.4833 C.3       1 <0>        -0.1220
     17 C15         6.6768    1.5854    0.3548 C.3       1 <0>        -0.1219
     18 C16         5.9031    2.8363   -0.0572 C.3       1 <0>        -0.0776
     19 C17         4.1033    5.0574   -0.0219 C.2       1 <0>        -0.1480
     20 C18         4.0111    6.0264    0.9452 C.2       1 <0>        -0.1162
     21 C19         4.6080    7.2445    0.7191 C.2       1 <0>        -0.1601
     22 C20         5.2589    7.4557   -0.4557 C.2       1 <0>        -0.1615
     23 S2          5.0446    5.8916   -1.2891 S.3       1 <0>         0.0844
     24 C21         1.2474    4.5605    0.0211 C.1       1 <0>         0.2514
     25 N2          0.5170    5.4305    0.0379 N.1       1 <0>        -0.3834
     26 H1         -5.0187   -1.8564    0.0400 H         1 <0>         0.1246
     27 H2         -3.8838   -1.4192   -2.1011 H         1 <0>         0.1258
     28 H3         -1.5739   -0.5666   -2.1185 H         1 <0>         0.1254
     29 H4         -1.5297   -0.5990    2.1460 H         1 <0>         0.1253
     30 H5         -3.8433   -1.4417    2.1636 H         1 <0>         0.1258
     31 H6          0.5123   -0.3556   -0.8948 H         1 <0>         0.1063
     32 H7          0.5293   -0.3651    0.8851 H         1 <0>         0.1065
     33 H8          4.3179   -0.6619   -0.7134 H         1 <0>         0.0925
     34 H9          4.7795   -0.3460    0.9737 H         1 <0>         0.0930
     35 H10         6.1627    0.6813   -1.5381 H         1 <0>         0.0706
     36 H11         6.8144   -0.4576   -0.3322 H         1 <0>         0.0795
     37 H12         7.7408    1.7344    0.1710 H         1 <0>         0.0766
     38 H13         6.5110    1.3827    1.4128 H         1 <0>         0.0700
     39 H14         6.1999    3.1267   -1.0650 H         1 <0>         0.0848
     40 H15         6.1368    3.6469    0.6331 H         1 <0>         0.0822
     41 H16         3.4831    5.8349    1.8677 H         1 <0>         0.1352
     42 H17         4.5564    8.0253    1.4635 H         1 <0>         0.1405
     43 H18         5.7731    8.3420   -0.7972 H         1 <0>         0.1919
@<TRIPOS>BOND
     1    1    6 ar
     2    1    2 ar
     3    1   26 1
     4    2    3 ar
     5    2   27 1
     6    3    4 ar
     7    3   28 1
     8    4    5 ar
     9    4    7 1
    10    5    6 ar
    11    5   29 1
    12    6   30 1
    13    7    8 1
    14    7   31 1
    15    7   32 1
    16    8    9 1
    17    9   14 ar
    18    9   10 ar
    19   10   11 ar
    20   10   24 1
    21   11   12 ar
    22   11   19 1
    23   12   18 1
    24   12   13 ar
    25   13   14 ar
    26   13   15 1
    27   15   16 1
    28   15   33 1
    29   15   34 1
    30   16   17 1
    31   16   35 1
    32   16   36 1
    33   17   18 1
    34   17   37 1
    35   17   38 1
    36   18   39 1
    37   18   40 1
    38   19   23 1
    39   19   20 2
    40   20   21 1
    41   20   41 1
    42   21   22 2
    43   21   42 1
    44   22   23 1
    45   22   43 1
    46   24   25 3
@<TRIPOS>MOLECULE
ZINC02259037
   43    46     0     0     0
SMALL
USER_CHARGES
2-[(4-fluorophenyl)methylsulfanyl]-4-(2-thienyl)-5,6,7,8-tetrahydroquinoline-3-carbonitrile
@<TRIPOS>ATOM
      1 C1          1.9879   -8.9735   -5.2771 C.2       1 <0>        -0.1604
      2 C2          2.2110   -7.9924   -4.3395 C.2       1 <0>        -0.1157
      3 C3          1.2558   -7.7677   -3.3804 C.2       1 <0>        -0.1490
      4 S1          0.0042   -8.9621   -3.8216 S.3       1 <0>         0.0848
      5 C4          0.8275   -9.6806   -5.2333 C.2       1 <0>        -0.1610
      6 C5          1.2593   -6.7907   -2.2774 C.ar      1 <0>         0.1013
      7 C6          1.2770   -7.2195   -0.9386 C.ar      1 <0>        -0.1139
      8 C7          1.2803   -6.2858    0.0677 C.ar      1 <0>         0.1855
      9 N1          1.2666   -4.9862   -0.2155 N.ar      1 <0>        -0.4881
     10 C8          1.2440   -4.5198   -1.4503 C.ar      1 <0>         0.1664
     11 C9          1.2453   -5.4048   -2.5424 C.ar      1 <0>        -0.0489
     12 C10         1.2333   -4.9133   -3.8874 C.1       1 <0>         0.2507
     13 N2          1.2237   -4.5234   -4.9543 N.1       1 <0>        -0.3826
     14 S2          1.2193   -2.7804   -1.7306 S.3       1 <0>        -0.0344
     15 C11         1.2273   -2.1863   -0.0209 C.3       1 <0>        -0.0584
     16 C12         1.2082   -0.6795   -0.0127 C.ar      1 <0>        -0.0972
     17 C13         0.0021   -0.0041    0.0020 C.ar      1 <0>        -0.0701
     18 C14        -0.0167    1.3778    0.0096 C.ar      1 <0>        -0.1528
     19 C15         1.1732    2.0858    0.0021 C.ar      1 <0>         0.1077
     20 C16         2.3806    1.4083   -0.0131 C.ar      1 <0>        -0.1528
     21 C17         2.3969    0.0264   -0.0202 C.ar      1 <0>        -0.0701
     22 F1          1.1561    3.4366    0.0090 F         1 <0>        -0.1365
     23 C18         1.3090   -6.6731    1.5251 C.3       1 <0>        -0.0719
     24 C19         0.8899   -8.1305    1.7028 C.3       1 <0>        -0.1222
     25 C20         1.7289   -8.9945    0.7537 C.3       1 <0>        -0.1220
     26 C21         1.2861   -8.7023   -0.6786 C.3       1 <0>        -0.0779
     27 H1          2.7233   -9.1764   -6.0415 H         1 <0>         0.1406
     28 H2          3.1220   -7.4125   -4.3555 H         1 <0>         0.1353
     29 H3          0.4904  -10.4729   -5.8852 H         1 <0>         0.1920
     30 H4          2.1265   -2.5411    0.4828 H         1 <0>         0.1091
     31 H5          0.3467   -2.5637    0.4990 H         1 <0>         0.1090
     32 H6         -0.9259   -0.5565    0.0079 H         1 <0>         0.1370
     33 H7         -0.9591    1.9052    0.0169 H         1 <0>         0.1398
     34 H8          3.3093    1.9595   -0.0194 H         1 <0>         0.1397
     35 H9          3.3385   -0.5023   -0.0313 H         1 <0>         0.1369
     36 H10         0.6246   -6.0322    2.0808 H         1 <0>         0.0927
     37 H11         2.3194   -6.5402    1.9118 H         1 <0>         0.0932
     38 H12        -0.1673   -8.2405    1.4613 H         1 <0>         0.0707
     39 H13         1.0652   -8.4405    2.7330 H         1 <0>         0.0796
     40 H14         1.5700  -10.0489    0.9795 H         1 <0>         0.0767
     41 H15         2.7845   -8.7485    0.8693 H         1 <0>         0.0701
     42 H16         0.2831   -9.1002   -0.8329 H         1 <0>         0.0851
     43 H17         1.9741   -9.1846   -1.3729 H         1 <0>         0.0823
@<TRIPOS>BOND
     1    1    5 2
     2    1    2 1
     3    1   27 1
     4    2    3 2
     5    2   28 1
     6    3    4 1
     7    3    6 1
     8    4    5 1
     9    5   29 1
    10    6   11 ar
    11    6    7 ar
    12    7   26 1
    13    7    8 ar
    14    8    9 ar
    15    8   23 1
    16    9   10 ar
    17   10   11 ar
    18   10   14 1
    19   11   12 1
    20   12   13 3
    21   14   15 1
    22   15   16 1
    23   15   30 1
    24   15   31 1
    25   16   21 ar
    26   16   17 ar
    27   17   18 ar
    28   17   32 1
    29   18   19 ar
    30   18   33 1
    31   19   20 ar
    32   19   22 1
    33   20   21 ar
    34   20   34 1
    35   21   35 1
    36   23   24 1
    37   23   36 1
    38   23   37 1
    39   24   25 1
    40   24   38 1
    41   24   39 1
    42   25   26 1
    43   25   40 1
    44   25   41 1
    45   26   42 1
    46   26   43 1
@<TRIPOS>MOLECULE
ZINC01649340
   52    54     0     0     0
SMALL
USER_CHARGES

@<TRIPOS>ATOM
      1 C1         -0.0187    1.5258    0.0104 C.3       1 <0>        -0.1531
      2 C2          0.0021   -0.0041    0.0020 C.3       1 <0>        -0.1278
      3 C3         -1.4333   -0.5336    0.0129 C.3       1 <0>         0.1689
      4 H1         -1.9701   -0.1109    0.8621 H         1 <0>         0.1030
      5 C4         -1.4133   -2.0590    0.1302 C.3       1 <0>         0.0625
      6 O1         -0.6117   -2.6069   -0.9183 O.3       1 <0>        -0.5692
      7 N1         -2.1054   -0.1483   -1.2305 N.pl3     1 <0>        -0.6816
      8 C5         -3.4856   -0.0365   -1.2658 C.ar      1 <0>         0.6305
      9 N2         -4.1766   -0.2783   -0.1589 N.ar      1 <0>        -0.6256
     10 C6         -5.5013   -0.1844   -0.1423 C.ar      1 <0>         0.5407
     11 C7         -6.1646    0.1788   -1.3275 C.ar      1 <0>        -0.1560
     12 C8         -5.3921    0.4251   -2.4741 C.ar      1 <0>         0.3485
     13 N3         -4.0693    0.3129   -2.4004 N.ar      1 <0>        -0.6161
     14 N4         -6.2808    0.7538   -3.4662 N.pl3     1 <0>        -0.4704
     15 C9         -7.5330    0.7038   -2.9264 C.2       1 <0>         0.2320
     16 N5         -7.4624    0.3664   -1.6720 N.2       1 <0>        -0.4548
     17 C10        -5.9467    1.0964   -4.8508 C.3       1 <0>         0.1344
     18 C11        -6.6196    0.1019   -5.7989 C.3       1 <0>        -0.1626
     19 C12        -6.4419    2.5107   -5.1599 C.3       1 <0>        -0.1626
     20 N6         -6.2133   -0.4389    1.0165 N.pl3     1 <0>        -0.6899
     21 C13        -5.5062   -0.8166    2.2427 C.3       1 <0>         0.1717
     22 C14        -6.5039   -1.0364    3.3505 C.ar      1 <0>        -0.1135
     23 C15        -6.8801    0.0183    4.1611 C.ar      1 <0>        -0.0982
     24 C16        -7.7953   -0.1833    5.1773 C.ar      1 <0>        -0.1219
     25 C17        -8.3347   -1.4394    5.3826 C.ar      1 <0>        -0.1101
     26 C18        -7.9592   -2.4939    4.5714 C.ar      1 <0>        -0.1221
     27 C19        -7.0472   -2.2913    3.5524 C.ar      1 <0>        -0.0986
     28 H2          1.0039    1.9031    0.0027 H         1 <0>         0.0563
     29 H3         -0.5459    1.8868   -0.8726 H         1 <0>         0.0552
     30 H4         -0.5289    1.8773    0.9072 H         1 <0>         0.0537
     31 H5          0.5123   -0.3556   -0.8948 H         1 <0>         0.0768
     32 H6          0.5293   -0.3651    0.8851 H         1 <0>         0.0774
     33 H7         -0.9936   -2.3437    1.0951 H         1 <0>         0.0524
     34 H8         -2.4301   -2.4431    0.0488 H         1 <0>         0.0503
     35 H9         -0.5540   -3.5721   -0.9058 H         1 <0>         0.3776
     36 H10        -1.5839    0.0285   -2.0291 H         1 <0>         0.4145
     37 H11        -8.4474    0.9139   -3.4613 H         1 <0>         0.2138
     38 H12        -4.8660    1.0524   -4.9853 H         1 <0>         0.1061
     39 H13        -7.7004    0.1459   -5.6644 H         1 <0>         0.0654
     40 H14        -6.3710    0.3568   -6.8291 H         1 <0>         0.0793
     41 H15        -6.2668   -0.9057   -5.5787 H         1 <0>         0.0629
     42 H16        -5.9625    3.2193   -4.4845 H         1 <0>         0.0629
     43 H17        -6.1933    2.7656   -6.1901 H         1 <0>         0.0793
     44 H18        -7.5227    2.5547   -5.0254 H         1 <0>         0.0654
     45 H19        -7.1807   -0.3672    1.0169 H         1 <0>         0.4195
     46 H20        -4.9460   -1.7357    2.0706 H         1 <0>         0.0763
     47 H21        -4.8186   -0.0196    2.5258 H         1 <0>         0.0773
     48 H22        -6.4587    0.9996    4.0008 H         1 <0>         0.1237
     49 H23        -8.0886    0.6405    5.8111 H         1 <0>         0.1245
     50 H24        -9.0492   -1.5971    6.1770 H         1 <0>         0.1237
     51 H25        -8.3804   -3.4753    4.7320 H         1 <0>         0.1244
     52 H26        -6.7567   -3.1143    2.9163 H         1 <0>         0.1232
@<TRIPOS>BOND
     1    1    2 1
     2    1   28 1
     3    1   29 1
     4    1   30 1
     5    2    3 1
     6    2   31 1
     7    2   32 1
     8    3    4 1
     9    3    5 1
    10    3    7 1
    11    5    6 1
    12    5   33 1
    13    5   34 1
    14    6   35 1
    15    7    8 1
    16    7   36 1
    17    8   13 ar
    18    8    9 ar
    19    9   10 ar
    20   10   11 ar
    21   10   20 1
    22   11   16 1
    23   11   12 ar
    24   12   13 ar
    25   12   14 1
    26   14   15 1
    27   14   17 1
    28   15   16 2
    29   15   37 1
    30   17   18 1
    31   17   19 1
    32   17   38 1
    33   18   39 1
    34   18   40 1
    35   18   41 1
    36   19   42 1
    37   19   43 1
    38   19   44 1
    39   20   21 1
    40   20   45 1
    41   21   22 1
    42   21   46 1
    43   21   47 1
    44   22   27 ar
    45   22   23 ar
    46   23   24 ar
    47   23   48 1
    48   24   25 ar
    49   24   49 1
    50   25   26 ar
    51   25   50 1
    52   26   27 ar
    53   26   51 1
    54   27   52 1
@<TRIPOS>MOLECULE
ZINC18128769
   40    43     0     0     0
SMALL
USER_CHARGES

@<TRIPOS>ATOM
      1 C1          0.0325    1.3052    0.6775 C.ar      1 <0>        -0.1293
      2 C2          1.2146    2.0389    0.6358 C.ar      1 <0>        -0.0748
      3 C3          2.4081    1.4338    0.3756 C.ar      1 <0>        -0.1044
      4 C4          2.4478    0.0510    0.1466 C.ar      1 <0>         0.1897
      5 C5          1.2432   -0.6937    0.1902 C.ar      1 <0>        -0.1949
      6 C6          0.0355   -0.0416    0.4594 C.ar      1 <0>        -0.0738
      7 C7          1.3070   -2.0903   -0.0437 C.ar      1 <0>         0.4687
      8 N1          2.4900   -2.6325   -0.2919 N.ar      1 <0>        -0.5728
      9 C8          3.5985   -1.8949   -0.3235 C.ar      1 <0>         0.4069
     10 C9          4.8889   -2.5646   -0.6069 C.ar      1 <0>        -0.0807
     11 C10         4.9288   -3.9387   -0.8398 C.ar      1 <0>        -0.0540
     12 C11         6.1331   -4.5573   -1.1031 C.ar      1 <0>        -0.1423
     13 C12         7.3039   -3.8192   -1.1368 C.ar      1 <0>        -0.0803
     14 C13         7.2768   -2.4574   -0.9071 C.ar      1 <0>        -0.1605
     15 C14         6.0729   -1.8205   -0.6477 C.ar      1 <0>         0.1597
     16 O1          6.0440   -0.4811   -0.4278 O.3       1 <0>        -0.4713
     17 N2          3.5948   -0.5910   -0.1127 N.ar      1 <0>        -0.5131
     18 N3          0.1664   -2.8653   -0.0133 N.pl3     1 <0>        -0.6405
     19 C15         0.2627   -4.2573   -0.1268 C.ar      1 <0>         0.1438
     20 C16         1.3290   -4.9298    0.4556 C.ar      1 <0>        -0.0933
     21 C17         1.4232   -6.3028    0.3431 C.ar      1 <0>        -0.1253
     22 C18         0.4531   -7.0104   -0.3515 C.ar      1 <0>         0.0924
     23 C19        -0.6124   -6.3395   -0.9336 C.ar      1 <0>        -0.1244
     24 C20        -0.7111   -4.9670   -0.8172 C.ar      1 <0>        -0.1275
     25 O2          0.5469   -8.3625   -0.4622 O.3       1 <0>        -0.4983
     26 H1         -0.8994    1.8082    0.8900 H         1 <0>         0.1315
     27 H2          1.1857    3.1041    0.8119 H         1 <0>         0.1347
     28 H3          3.3173    2.0159    0.3456 H         1 <0>         0.1423
     29 H4         -0.8881   -0.6003    0.4947 H         1 <0>         0.1251
     30 H5          4.0177   -4.5181   -0.8137 H         1 <0>         0.1392
     31 H6          6.1629   -5.6217   -1.2834 H         1 <0>         0.1302
     32 H7          8.2432   -4.3106   -1.3433 H         1 <0>         0.1298
     33 H8          8.1938   -1.8874   -0.9341 H         1 <0>         0.1338
     34 H9         -0.7024   -2.4458    0.0868 H         1 <0>         0.4213
     35 H10         2.0846   -4.3790    0.9962 H         1 <0>         0.1363
     36 H11         2.2526   -6.8259    0.7958 H         1 <0>         0.1329
     37 H12        -1.3670   -6.8911   -1.4745 H         1 <0>         0.1333
     38 H13        -1.5431   -4.4453   -1.2666 H         1 <0>         0.1296
     39 H14         0.1086   -8.8468    0.2509 H         1 <0>         0.3902
     40 H15         6.1531   -0.2325    0.5003 H         1 <0>         0.3901
@<TRIPOS>BOND
     1    1    6 ar
     2    1    2 ar
     3    1   26 1
     4    2    3 ar
     5    2   27 1
     6    3    4 ar
     7    3   28 1
     8    4   17 ar
     9    4    5 ar
    10    5    6 ar
    11    5    7 ar
    12    6   29 1
    13    7    8 ar
    14    7   18 1
    15    8    9 ar
    16    9   10 1
    17    9   17 ar
    18   10   15 ar
    19   10   11 ar
    20   11   12 ar
    21   11   30 1
    22   12   13 ar
    23   12   31 1
    24   13   14 ar
    25   13   32 1
    26   14   15 ar
    27   14   33 1
    28   15   16 1
    29   16   40 1
    30   18   19 1
    31   18   34 1
    32   19   24 ar
    33   19   20 ar
    34   20   21 ar
    35   20   35 1
    36   21   22 ar
    37   21   36 1
    38   22   23 ar
    39   22   25 1
    40   23   24 ar
    41   23   37 1
    42   24   38 1
    43   25   39 1
@<TRIPOS>MOLECULE
ZINC03814434
   62    69     0     0     0
SMALL
USER_CHARGES

@<TRIPOS>ATOM
      1 C1         -0.1295    1.5952   -0.2973 C.3       1 <0>        -0.1687
      2 C2         -0.0862    0.0696   -0.1900 C.3       1 <0>         0.3342
      3 C3          0.5692   -0.4501   -1.4637 C.3       1 <0>         0.0405
      4 H1          1.4796    0.1159   -1.6612 H         1 <0>         0.1372
      5 C4          0.9167   -1.9328   -1.2889 C.3       1 <0>        -0.0061
      6 H2          1.3963   -2.3075   -2.1932 H         1 <0>         0.1555
      7 C5          1.8785   -2.0596   -0.1021 C.3       1 <0>        -0.1827
      8 C6          1.2061   -1.5198    1.1541 C.3       1 <0>         0.2999
      9 H3          1.9797   -1.4243    1.9161 H         1 <0>         0.1550
     10 O1          0.6555   -0.2442    0.9666 O.3       1 <0>        -0.3234
     11 N1          0.2189   -2.4746    1.6600 N.pl3     1 <0>        -0.5366
     12 C7          0.4705   -3.5508    2.4739 C.ar      1 <0>         0.1469
     13 C8          1.6649   -4.0152    3.0240 C.ar      1 <0>        -0.1522
     14 C9          1.5948   -5.1456    3.8201 C.ar      1 <0>        -0.0582
     15 C10         0.4006   -5.7997    4.0696 C.ar      1 <0>        -0.1457
     16 C11        -0.7984   -5.3597    3.5358 C.ar      1 <0>        -0.0280
     17 C12        -0.7487   -4.2198    2.7307 C.ar      1 <0>        -0.1131
     18 C13        -1.7893   -3.4830    2.0197 C.ar      1 <0>         0.0276
     19 C14        -1.1442   -2.4197    1.3841 C.ar      1 <0>         0.0376
     20 C15        -1.8806   -1.5095    0.6175 C.ar      1 <0>         0.0894
     21 N2         -1.4718   -0.3951   -0.1095 N.pl3     1 <0>        -0.5183
     22 C16        -2.5611    0.1913   -0.7090 C.ar      1 <0>         0.1618
     23 C17        -2.6521    1.3277   -1.5118 C.ar      1 <0>        -0.1305
     24 C18        -3.9109    1.6745   -1.9733 C.ar      1 <0>        -0.0737
     25 C19        -5.0393    0.9368   -1.6616 C.ar      1 <0>        -0.1358
     26 C20        -4.9745   -0.1955   -0.8662 C.ar      1 <0>        -0.0503
     27 C21        -3.7147   -0.5596   -0.3919 C.ar      1 <0>        -0.1042
     28 C22        -3.2693   -1.6660    0.4845 C.ar      1 <0>        -0.0360
     29 C23        -3.9084   -2.7313    1.1102 C.ar      1 <0>        -0.0288
     30 C24        -3.1873   -3.6421    1.8754 C.ar      1 <0>        -0.1255
     31 C25        -4.1221   -4.6480    2.4030 C.2       1 <0>         0.5632
     32 O2         -3.8062   -5.5851    3.1110 O.2       1 <0>        -0.5106
     33 N3         -5.3744   -4.3851    1.9926 N.am      1 <0>        -0.7162
     34 C26        -5.3495   -3.1771    1.1601 C.3       1 <0>         0.1358
     35 N4         -0.3067   -2.7008   -1.0216 N.4       1 <0>        -0.5252
     36 C27         0.0145   -4.1336   -0.9773 C.3       1 <0>        -0.0497
     37 O3         -0.3340   -0.2979   -2.5607 O.3       1 <0>        -0.3614
     38 C28         0.3101   -0.0933   -3.8198 C.3       1 <0>         0.0162
     39 H4          0.8261    2.0094    0.0240 H         1 <0>         0.0984
     40 H5         -0.3202    1.8814   -1.3317 H         1 <0>         0.1036
     41 H6         -0.9255    1.9818    0.3392 H         1 <0>         0.0921
     42 H7          2.1370   -3.1081    0.0458 H         1 <0>         0.1233
     43 H8          2.7835   -1.4869   -0.3048 H         1 <0>         0.1455
     44 H9          2.6036   -3.5149    2.8368 H         1 <0>         0.1365
     45 H10         2.5026   -5.5304    4.2610 H         1 <0>         0.1359
     46 H11         0.4045   -6.6780    4.6980 H         1 <0>         0.1352
     47 H12        -1.7278   -5.8736    3.7323 H         1 <0>         0.1600
     48 H13        -1.7792    1.9122   -1.7624 H         1 <0>         0.1440
     49 H14        -4.0153    2.5500   -2.5970 H         1 <0>         0.1336
     50 H15        -5.9967    1.2527   -2.0488 H         1 <0>         0.1332
     51 H16        -5.8575   -0.7687   -0.6249 H         1 <0>         0.1415
     52 H17        -6.1628   -4.9065    2.2103 H         1 <0>         0.4348
     53 H18        -5.9671   -2.3994    1.6094 H         1 <0>         0.1115
     54 H19        -5.7060   -3.4063    0.1559 H         1 <0>         0.1103
     55 H20        -0.6958   -2.4158   -0.1353 H         1 <0>         0.4186
     56 H21         0.4349   -4.4415   -1.9347 H         1 <0>         0.1256
     57 H22         0.7403   -4.3189   -0.1854 H         1 <0>         0.1191
     58 H23        -0.8932   -4.7035   -0.7789 H         1 <0>         0.1256
     59 H24         0.9168    0.8112   -3.7748 H         1 <0>         0.0633
     60 H25         0.9482   -0.9479   -4.0446 H         1 <0>         0.0514
     61 H26        -0.4433    0.0130   -4.6003 H         1 <0>         0.1100
     62 H27        -0.9785   -2.5293   -1.7546 H         1 <0>         0.4274
@<TRIPOS>BOND
     1    1    2 1
     2    1   39 1
     3    1   40 1
     4    1   41 1
     5    2   10 1
     6    2   21 1
     7    2    3 1
     8    3    4 1
     9    3    5 1
    10    3   37 1
    11    5    6 1
    12    5    7 1
    13    5   35 1
    14    7    8 1
    15    7   42 1
    16    7   43 1
    17    8    9 1
    18    8   10 1
    19    8   11 1
    20   11   19 1
    21   11   12 1
    22   12   17 ar
    23   12   13 ar
    24   13   14 ar
    25   13   44 1
    26   14   15 ar
    27   14   45 1
    28   15   16 ar
    29   15   46 1
    30   16   17 ar
    31   16   47 1
    32   17   18 1
    33   18   30 ar
    34   18   19 ar
    35   19   20 ar
    36   20   28 ar
    37   20   21 1
    38   21   22 1
    39   22   27 ar
    40   22   23 ar
    41   23   24 ar
    42   23   48 1
    43   24   25 ar
    44   24   49 1
    45   25   26 ar
    46   25   50 1
    47   26   27 ar
    48   26   51 1
    49   27   28 1
    50   28   29 ar
    51   29   34 1
    52   29   30 ar
    53   30   31 1
    54   31   32 2
    55   31   33 am
    56   33   34 1
    57   33   52 1
    58   34   53 1
    59   34   54 1
    60   35   36 1
    61   35   55 1
    62   35   62 1
    63   36   56 1
    64   36   57 1
    65   36   58 1
    66   37   38 1
    67   38   59 1
    68   38   60 1
    69   38   61 1
@<TRIPOS>MOLECULE
ZINC22059475
   34    36     0     0     0
SMALL
USER_CHARGES
5-[(Z)-(5-fluoro-2-oxo-indolin-3-ylidene)methyl]-2,4-dimethyl-1H-pyrrole-3-carboxylic acid
@<TRIPOS>ATOM
      1 C1          3.5612    0.7298    0.3670 C.3       1 <0>        -0.0874
      2 C2          2.0763    0.7173    0.1103 C.2       1 <0>        -0.0631
      3 C3          1.2590    1.8189   -0.0478 C.2       1 <0>        -0.0624
      4 N1         -0.0270    1.3686   -0.2642 N.pl3     1 <0>        -0.5163
      5 H1         -0.8438    2.0894   -0.4165 H         1 <0>         0.4350
      6 C4         -0.0354    0.0257   -0.2458 C.2       1 <0>         0.1015
      7 C5          1.2534   -0.4231   -0.0156 C.2       1 <0>        -0.1824
      8 C6          1.6857   -1.8276    0.0806 C.2       1 <0>         0.5231
      9 O1          2.0442   -2.4227   -0.9165 O.co2     1 <0>        -0.6348
     10 O2          1.6836   -2.4530    1.2744 O.co2     1 <0>        -0.7579
     11 C7         -1.2473   -0.8479   -0.4439 C.3       1 <0>        -0.0878
     12 C8          1.6679    3.1695    0.0024 C.2       1 <0>         0.1242
     13 C9          0.8204    4.1284    0.5203 C.2       1 <0>        -0.2573
     14 C10         1.0143    5.5956    0.5201 C.ar      1 <0>        -0.0496
     15 C11         2.0179    6.4245    0.0287 C.ar      1 <0>        -0.1131
     16 C12         1.9088    7.7942    0.1773 C.ar      1 <0>         0.0760
     17 C13         0.7999    8.3380    0.8086 C.ar      1 <0>        -0.1315
     18 C14        -0.2030    7.5230    1.2926 C.ar      1 <0>        -0.1098
     19 C15        -0.1103    6.1427    1.1521 C.ar      1 <0>         0.1216
     20 N2         -0.9611    5.1137    1.5410 N.am      1 <0>        -0.6636
     21 C16        -0.4661    3.9128    1.1964 C.2       1 <0>         0.5617
     22 O3         -0.9916    2.8344    1.4082 O.2       1 <0>        -0.5092
     23 F1          2.8830    8.6039   -0.2922 F         1 <0>        -0.1408
     24 H2          3.9165    1.7698    0.4135 H         1 <0>         0.0549
     25 H3          4.0785    0.2016   -0.4475 H         1 <0>         0.0713
     26 H4          3.7724    0.2271    1.3224 H         1 <0>         0.0731
     27 H5         -0.9519   -1.9054   -0.3768 H         1 <0>         0.0892
     28 H6         -1.6832   -0.6511   -1.4345 H         1 <0>         0.0656
     29 H7         -1.9913   -0.6249    0.3350 H         1 <0>         0.0698
     30 H8          2.6616    3.4576   -0.3711 H         1 <0>         0.1509
     31 H9          2.8807    5.9992   -0.4623 H         1 <0>         0.1385
     32 H10         0.7205    9.4091    0.9220 H         1 <0>         0.1385
     33 H11        -1.0618    7.9583    1.7820 H         1 <0>         0.1335
     34 H12        -1.9022    5.3452    2.0613 H         1 <0>         0.4383
@<TRIPOS>BOND
     1    1    2 1
     2    1   24 1
     3    1   25 1
     4    1   26 1
     5    2    7 1
     6    2    3 2
     7    3    4 1
     8    3   12 1
     9    4    5 1
    10    4    6 1
    11    6    7 2
    12    6   11 1
    13    7    8 1
    14    8    9 2
    15    8   10 1
    16   11   27 1
    17   11   28 1
    18   11   29 1
    19   12   13 2
    20   12   30 1
    21   13   21 1
    22   13   14 1
    23   14   19 ar
    24   14   15 ar
    25   15   16 ar
    26   15   31 1
    27   16   17 ar
    28   16   23 1
    29   17   18 ar
    30   17   32 1
    31   18   19 ar
    32   18   33 1
    33   19   20 1
    34   20   21 am
    35   20   34 1
    36   21   22 2
@<TRIPOS>MOLECULE
ZINC13465359
   35    38     0     0     0
SMALL
USER_CHARGES
(3Z)-3-[(3-phenyl-1H-pyrazol-4-yl)methylene]indolin-2-one
@<TRIPOS>ATOM
      1 C1         -3.4902    9.2284   -0.2259 C.ar      1 <0>        -0.1081
      2 C2         -4.5110    8.6559   -0.9633 C.ar      1 <0>        -0.1202
      3 C3         -4.7004    7.2892   -0.9394 C.ar      1 <0>        -0.0878
      4 C4         -3.8605    6.4852   -0.1702 C.ar      1 <0>        -0.0205
      5 C5         -2.8370    7.0684    0.5754 C.ar      1 <0>        -0.0943
      6 C6         -2.6537    8.4357    0.5393 C.ar      1 <0>        -0.1191
      7 C7         -4.0587    5.0165   -0.1404 C.2       1 <0>         0.1499
      8 C8         -3.0083    3.9947   -0.0449 C.2       1 <0>        -0.2563
      9 C9         -3.6559    2.7704   -0.0570 C.2       1 <0>         0.1531
     10 N1         -4.9745    3.0047   -0.1408 N.pl3     1 <0>        -0.4668
     11 H1         -5.6839    2.3001   -0.1615 H         1 <0>         0.4514
     12 N2         -5.2071    4.3816   -0.1948 N.2       1 <0>        -0.2836
     13 C10        -1.5655    4.2239    0.0397 C.2       1 <0>         0.0981
     14 C11        -0.7792    3.3876    0.7988 C.2       1 <0>        -0.2004
     15 C12         0.6993    3.3662    0.8773 C.ar      1 <0>        -0.0947
     16 C13         1.6973    4.1163    0.2647 C.ar      1 <0>        -0.0680
     17 C14         3.0225    3.8527    0.5469 C.ar      1 <0>        -0.1386
     18 C15         3.3557    2.8453    1.4371 C.ar      1 <0>        -0.0866
     19 C16         2.3727    2.0954    2.0501 C.ar      1 <0>        -0.1365
     20 C17         1.0321    2.3460    1.7780 C.ar      1 <0>         0.1384
     21 N3         -0.1335    1.7523    2.2472 N.am      1 <0>        -0.6545
     22 C18        -1.2249    2.3176    1.7038 C.2       1 <0>         0.5605
     23 O1         -2.3801    2.0012    1.9242 O.2       1 <0>        -0.5116
     24 H2         -3.3460   10.2986   -0.2473 H         1 <0>         0.1257
     25 H3         -5.1609    9.2797   -1.5591 H         1 <0>         0.1274
     26 H4         -5.4980    6.8433   -1.5152 H         1 <0>         0.1274
     27 H5         -2.1863    6.4510    1.1769 H         1 <0>         0.1257
     28 H6         -1.8586    8.8883    1.1132 H         1 <0>         0.1283
     29 H7         -3.1840    1.8003   -0.0052 H         1 <0>         0.1876
     30 H8         -1.1177    5.0495   -0.4936 H         1 <0>         0.1425
     31 H9          1.4366    4.9021   -0.4288 H         1 <0>         0.1285
     32 H10         3.8005    4.4330    0.0733 H         1 <0>         0.1298
     33 H11         4.3946    2.6448    1.6536 H         1 <0>         0.1307
     34 H12         2.6451    1.3125    2.7424 H         1 <0>         0.1265
     35 H13        -0.1563    1.0201    2.8831 H         1 <0>         0.4162
@<TRIPOS>BOND
     1    1    6 ar
     2    1    2 ar
     3    1   24 1
     4    2    3 ar
     5    2   25 1
     6    3    4 ar
     7    3   26 1
     8    4    5 ar
     9    4    7 1
    10    5    6 ar
    11    5   27 1
    12    6   28 1
    13    7   12 2
    14    7    8 1
    15    8    9 2
    16    8   13 1
    17    9   10 1
    18    9   29 1
    19   10   11 1
    20   10   12 1
    21   13   14 2
    22   13   30 1
    23   14   22 1
    24   14   15 1
    25   15   20 ar
    26   15   16 ar
    27   16   17 ar
    28   16   31 1
    29   17   18 ar
    30   17   32 1
    31   18   19 ar
    32   18   33 1
    33   19   20 ar
    34   19   34 1
    35   20   21 1
    36   21   22 am
    37   21   35 1
    38   22   23 2
@<TRIPOS>MOLECULE
ZINC05125930
   47    50     0     0     0
SMALL
USER_CHARGES
4-chloro-2-[(E)-[2-(4-hydroxy-3-methoxy-phenyl)-7-methyl-imidazo[3,2-a]pyridin-3-yl]iminomethyl]phenol
@<TRIPOS>ATOM
      1 C1         -2.4976    0.9851    0.0186 C.3       1 <0>        -0.1128
      2 C2         -1.1970    1.7464    0.0172 C.2       1 <0>        -0.0693
      3 C3         -1.2021    3.1505    0.0310 C.2       1 <0>        -0.1303
      4 C4         -0.0381    3.8348    0.0231 C.2       1 <0>         0.0561
      5 N1          1.1563    3.1747    0.0081 N.pl3     1 <0>        -0.3644
      6 C5          1.1943    1.8032    0.0003 C.2       1 <0>         0.2318
      7 C6         -0.0126    1.0758    0.0080 C.2       1 <0>        -0.0799
      8 N2          2.4617    1.4102   -0.0143 N.2       1 <0>        -0.4682
      9 C7          3.2642    2.4805   -0.0165 C.2       1 <0>         0.0989
     10 C8          2.4600    3.6187   -0.0024 C.2       1 <0>         0.1135
     11 N3          2.8766    4.9027    0.0008 N.2       1 <0>        -0.4220
     12 C9          3.0897    5.5181    1.1346 C.2       1 <0>         0.2340
     13 C10         3.5431    6.9155    1.1381 C.ar      1 <0>        -0.1068
     14 C11         3.7669    7.5799    2.3490 C.ar      1 <0>        -0.0559
     15 C12         4.1971    8.8903    2.3440 C.ar      1 <0>        -0.0551
     16 C13         4.3981    9.5553    1.1445 C.ar      1 <0>        -0.0655
     17 C14         4.1760    8.9116   -0.0583 C.ar      1 <0>        -0.1444
     18 C15         3.7489    7.5942   -0.0733 C.ar      1 <0>         0.1720
     19 O1          3.5297    6.9618   -1.2548 O.3       1 <0>        -0.4680
     20 Cl1         4.4811    9.7125    3.8463 Cl        1 <0>        -0.0574
     21 C16         4.7446    2.4596   -0.0317 C.ar      1 <0>         0.0160
     22 C17         5.4504    3.4423   -0.7265 C.ar      1 <0>        -0.1140
     23 C18         6.8298    3.4218   -0.7400 C.ar      1 <0>        -0.1063
     24 C19         7.5180    2.4257   -0.0634 C.ar      1 <0>         0.0813
     25 C20         6.8192    1.4421    0.6323 C.ar      1 <0>         0.1000
     26 C21         5.4366    1.4605    0.6534 C.ar      1 <0>        -0.1643
     27 O2          7.4966    0.4669    1.2953 O.3       1 <0>        -0.3069
     28 C22         6.7159   -0.5094    1.9876 C.3       1 <0>         0.0243
     29 O3          8.8775    2.4097   -0.0791 O.3       1 <0>        -0.4855
     30 H1         -2.8065    0.7955    1.0466 H         1 <0>         0.0779
     31 H2         -3.2630    1.5725   -0.4884 H         1 <0>         0.0730
     32 H3         -2.3638    0.0365   -0.5014 H         1 <0>         0.0737
     33 H4         -2.1405    3.6851    0.0429 H         1 <0>         0.1529
     34 H5         -0.0523    4.9147    0.0291 H         1 <0>         0.1589
     35 H6          0.0021   -0.0041    0.0020 H         1 <0>         0.1531
     36 H7          2.9324    4.9991    2.0686 H         1 <0>         0.1123
     37 H8          3.6067    7.0665    3.2856 H         1 <0>         0.1443
     38 H9          4.7307   10.5828    1.1498 H         1 <0>         0.1430
     39 H10         4.3354    9.4370   -0.9883 H         1 <0>         0.1455
     40 H11         2.6260    7.0513   -1.5871 H         1 <0>         0.3949
     41 H12         4.9168    4.2195   -1.2535 H         1 <0>         0.1411
     42 H13         7.3748    4.1832   -1.2782 H         1 <0>         0.1394
     43 H14         4.8935    0.7010    1.1962 H         1 <0>         0.1378
     44 H15         6.1015   -0.0159    2.7406 H         1 <0>         0.0545
     45 H16         6.0727   -1.0300    1.2781 H         1 <0>         0.0580
     46 H17         7.3779   -1.2271    2.4722 H         1 <0>         0.1021
     47 H18         9.2851    2.9080    0.6425 H         1 <0>         0.3869
@<TRIPOS>BOND
     1    1    2 1
     2    1   30 1
     3    1   31 1
     4    1   32 1
     5    2    7 2
     6    2    3 1
     7    3    4 2
     8    3   33 1
     9    4    5 1
    10    4   34 1
    11    5   10 1
    12    5    6 1
    13    6    7 1
    14    6    8 2
    15    7   35 1
    16    8    9 1
    17    9   10 2
    18    9   21 1
    19   10   11 1
    20   11   12 2
    21   12   13 1
    22   12   36 1
    23   13   18 ar
    24   13   14 ar
    25   14   15 ar
    26   14   37 1
    27   15   16 ar
    28   15   20 1
    29   16   17 ar
    30   16   38 1
    31   17   18 ar
    32   17   39 1
    33   18   19 1
    34   19   40 1
    35   21   26 ar
    36   21   22 ar
    37   22   23 ar
    38   22   41 1
    39   23   24 ar
    40   23   42 1
    41   24   25 ar
    42   24   29 1
    43   25   26 ar
    44   25   27 1
    45   26   43 1
    46   27   28 1
    47   28   44 1
    48   28   45 1
    49   28   46 1
    50   29   47 1
@<TRIPOS>MOLECULE
ZINC05125930
   48    51     0     0     0
SMALL
USER_CHARGES
4-chloro-2-[(E)-[2-(4-hydroxy-3-methoxy-phenyl)-7-methyl-imidazo[3,2-a]pyridin-3-yl]iminomethyl]phenol
@<TRIPOS>ATOM
      1 C1         -2.4976    0.9851    0.0186 C.3       1 <0>        -0.1339
      2 C2         -1.1970    1.7464    0.0172 C.2       1 <0>         0.0178
      3 C3         -1.2021    3.1505    0.0310 C.2       1 <0>        -0.1124
      4 C4         -0.0381    3.8348    0.0231 C.2       1 <0>         0.0876
      5 N1          1.1563    3.1747    0.0081 N.pl3     1 <0>        -0.3399
      6 C5          1.1943    1.8032    0.0003 C.cat     1 <0>         0.3155
      7 C6         -0.0126    1.0758    0.0080 C.2       1 <0>        -0.1350
      8 C7          3.2642    2.4805   -0.0165 C.2       1 <0>         0.1239
      9 C8          2.4600    3.6187   -0.0024 C.2       1 <0>         0.2001
     10 N2          2.8766    4.9027    0.0008 N.2       1 <0>        -0.4581
     11 C9          3.0897    5.5181    1.1346 C.2       1 <0>         0.2917
     12 C10         3.5431    6.9155    1.1381 C.ar      1 <0>        -0.1370
     13 C11         3.7669    7.5799    2.3490 C.ar      1 <0>        -0.0437
     14 C12         4.1971    8.8903    2.3440 C.ar      1 <0>        -0.0576
     15 C13         4.3981    9.5553    1.1445 C.ar      1 <0>        -0.0464
     16 C14         4.1760    8.9116   -0.0583 C.ar      1 <0>        -0.1448
     17 C15         3.7489    7.5942   -0.0733 C.ar      1 <0>         0.1835
     18 O1          3.5297    6.9618   -1.2548 O.3       1 <0>        -0.4703
     19 Cl1         4.4811    9.7125    3.8463 Cl        1 <0>        -0.0433
     20 C16         4.7446    2.4596   -0.0317 C.ar      1 <0>        -0.0404
     21 C17         5.4504    3.4423   -0.7265 C.ar      1 <0>        -0.0890
     22 C18         6.8298    3.4218   -0.7400 C.ar      1 <0>        -0.1023
     23 C19         7.5180    2.4257   -0.0634 C.ar      1 <0>         0.1161
     24 C20         6.8192    1.4421    0.6323 C.ar      1 <0>         0.1101
     25 C21         5.4366    1.4605    0.6534 C.ar      1 <0>        -0.1767
     26 O2          7.4966    0.4669    1.2953 O.3       1 <0>        -0.2974
     27 C22         6.7159   -0.5094    1.9876 C.3       1 <0>         0.0217
     28 O3          8.8775    2.4097   -0.0791 O.3       1 <0>        -0.4805
     29 H1         -2.8065    0.7955    1.0466 H         1 <0>         0.1003
     30 H2         -3.2630    1.5725   -0.4884 H         1 <0>         0.0920
     31 H3         -2.3638    0.0365   -0.5014 H         1 <0>         0.0896
     32 H4         -2.1405    3.6851    0.0429 H         1 <0>         0.1817
     33 H5         -0.0523    4.9147    0.0291 H         1 <0>         0.1922
     34 H6          0.0021   -0.0041    0.0020 H         1 <0>         0.1783
     35 H7          2.9324    4.9991    2.0686 H         1 <0>         0.1253
     36 H8          3.6067    7.0665    3.2856 H         1 <0>         0.1482
     37 H9          4.7307   10.5828    1.1498 H         1 <0>         0.1499
     38 H10         4.3354    9.4370   -0.9883 H         1 <0>         0.1514
     39 H11         2.6260    7.0513   -1.5871 H         1 <0>         0.3978
     40 H12         4.9168    4.2195   -1.2535 H         1 <0>         0.1497
     41 H13         7.3748    4.1832   -1.2782 H         1 <0>         0.1520
     42 H14         4.8935    0.7010    1.1962 H         1 <0>         0.1346
     43 H15         6.1015   -0.0159    2.7406 H         1 <0>         0.0568
     44 H16         6.0727   -1.0300    1.2781 H         1 <0>         0.0565
     45 H17         7.3779   -1.2271    2.4722 H         1 <0>         0.1113
     46 H18         9.2851    2.9080    0.6425 H         1 <0>         0.3996
     47 N3          2.4620    1.4092   -0.0143 N.pl3     1 <0>        -0.5014
     48 H19         2.7785    0.4325   -0.0226 H         1 <0>         0.4751
@<TRIPOS>BOND
     1    1    2 1
     2    1   29 1
     3    1   30 1
     4    1   31 1
     5    2    7 2
     6    2    3 1
     7    3    4 2
     8    3   32 1
     9    4    5 1
    10    4   33 1
    11    5    9 1
    12    5    6 1
    13    6    7 1
    14    6   47 2
    15    7   34 1
    16    8    9 2
    17    8   20 1
    18    8   47 1
    19    9   10 1
    20   10   11 2
    21   11   12 1
    22   11   35 1
    23   12   17 ar
    24   12   13 ar
    25   13   14 ar
    26   13   36 1
    27   14   15 ar
    28   14   19 1
    29   15   16 ar
    30   15   37 1
    31   16   17 ar
    32   16   38 1
    33   17   18 1
    34   18   39 1
    35   20   25 ar
    36   20   21 ar
    37   21   22 ar
    38   21   40 1
    39   22   23 ar
    40   22   41 1
    41   23   24 ar
    42   23   28 1
    43   24   25 ar
    44   24   26 1
    45   25   42 1
    46   26   27 1
    47   27   43 1
    48   27   44 1
    49   27   45 1
    50   28   46 1
    51   47   48 1
@<TRIPOS>MOLECULE
ZINC00099114
   29    31     0     0     0
SMALL
USER_CHARGES
4-(6-bromoquinazolin-4-yl)aminophenol
@<TRIPOS>ATOM
      1 C1          3.6086    1.7380    0.6935 C.ar      1 <0>        -0.0921
      2 C2          4.7868    1.0227    0.7771 C.ar      1 <0>        -0.1246
      3 C3          5.9610    1.5573    0.2673 C.ar      1 <0>         0.0935
      4 C4          5.9515    2.8083   -0.3319 C.ar      1 <0>        -0.1248
      5 C5          4.7731    3.5226   -0.4215 C.ar      1 <0>        -0.1272
      6 C6          3.5972    2.9881    0.0886 C.ar      1 <0>         0.1378
      7 N1          2.4021    3.7115   -0.0018 N.pl3     1 <0>        -0.6351
      8 C7          1.2034    3.0466   -0.1539 C.ar      1 <0>         0.4736
      9 C8         -0.0265    3.7490   -0.1305 C.ar      1 <0>        -0.1920
     10 C9         -0.0877    5.1356    0.0458 C.ar      1 <0>        -0.0379
     11 C10        -1.3021    5.7583    0.0593 C.ar      1 <0>        -0.1030
     12 C11        -2.4797    5.0317   -0.1001 C.ar      1 <0>        -0.0531
     13 C12        -2.4529    3.6800   -0.2739 C.ar      1 <0>        -0.0964
     14 C13        -1.2228    3.0088   -0.2928 C.ar      1 <0>         0.2005
     15 N2         -1.1404    1.6810   -0.4658 N.ar      1 <0>        -0.5451
     16 C14         0.0268    1.0824   -0.4742 C.ar      1 <0>         0.3542
     17 N3          1.1705    1.7318   -0.3266 N.ar      1 <0>        -0.5803
     18 Br1        -1.3871    7.6323    0.2976 Br        1 <0>        -0.0367
     19 O1          7.1219    0.8548    0.3555 O.3       1 <0>        -0.4984
     20 H1          2.6954    1.3236    1.0944 H         1 <0>         0.1417
     21 H2          4.7949    0.0484    1.2432 H         1 <0>         0.1338
     22 H3          6.8662    3.2240   -0.7282 H         1 <0>         0.1341
     23 H4          4.7659    4.4964   -0.8883 H         1 <0>         0.1302
     24 H5          2.4170    4.6804    0.0426 H         1 <0>         0.4217
     25 H6          0.8191    5.7088    0.1703 H         1 <0>         0.1359
     26 H7         -3.4286    5.5472   -0.0855 H         1 <0>         0.1454
     27 H8         -3.3741    3.1296   -0.3959 H         1 <0>         0.1520
     28 H9          0.0560    0.0116   -0.6121 H         1 <0>         0.2013
     29 H10         7.6257    1.0273    1.1627 H         1 <0>         0.3909
@<TRIPOS>BOND
     1    1    6 ar
     2    1    2 ar
     3    1   20 1
     4    2    3 ar
     5    2   21 1
     6    3    4 ar
     7    3   19 1
     8    4    5 ar
     9    4   22 1
    10    5    6 ar
    11    5   23 1
    12    6    7 1
    13    7    8 1
    14    7   24 1
    15    8   17 ar
    16    8    9 ar
    17    9   14 ar
    18    9   10 ar
    19   10   11 ar
    20   10   25 1
    21   11   12 ar
    22   11   18 1
    23   12   13 ar
    24   12   26 1
    25   13   14 ar
    26   13   27 1
    27   14   15 ar
    28   15   16 ar
    29   16   17 ar
    30   16   28 1
    31   19   29 1
@<TRIPOS>MOLECULE
ZINC09074095
   47    50     0     0     0
SMALL
USER_CHARGES
ethyl 4-[[4-[(4-chlorophenyl)amino]pteridin-2-yl]amino]benzoate
@<TRIPOS>ATOM
      1 C1          7.1811    9.8984   -4.5269 C.3       1 <0>        -0.1534
      2 C2          7.0622    8.7368   -3.5383 C.3       1 <0>         0.0629
      3 O1          5.6632    8.5131   -3.2203 O.3       1 <0>        -0.3554
      4 C3          5.3838    7.5173   -2.3565 C.2       1 <0>         0.5114
      5 O2          6.2845    6.8541   -1.8819 O.2       1 <0>        -0.5074
      6 C4          3.9853    7.2326   -1.9872 C.ar      1 <0>        -0.1452
      7 C5          3.6936    6.1996   -1.0909 C.ar      1 <0>        -0.0309
      8 C6          2.3871    5.9369   -0.7480 C.ar      1 <0>        -0.1165
      9 C7          1.3564    6.6983   -1.2919 C.ar      1 <0>         0.1983
     10 C8          1.6429    7.7239   -2.1885 C.ar      1 <0>        -0.1585
     11 C9          2.9475    7.9952   -2.5320 C.ar      1 <0>        -0.0392
     12 N1          0.0358    6.4297   -0.9428 N.pl3     1 <0>        -0.6257
     13 C10        -0.3684    5.1260   -0.7157 C.ar      1 <0>         0.6280
     14 N2          0.4930    4.1559   -0.9494 N.ar      1 <0>        -0.5746
     15 C11         0.1618    2.8743   -0.7495 C.ar      1 <0>         0.3672
     16 C12        -1.1412    2.5751   -0.2785 C.ar      1 <0>        -0.0823
     17 C13        -2.0541    3.6935   -0.0368 C.ar      1 <0>         0.5338
     18 N3         -1.6045    4.9183   -0.2739 N.ar      1 <0>        -0.6033
     19 N4         -3.3366    3.4809    0.4218 N.pl3     1 <0>        -0.6113
     20 C14        -4.1522    4.5691    0.7468 C.ar      1 <0>         0.1453
     21 C15        -3.5954    5.7153    1.2997 C.ar      1 <0>        -0.0967
     22 C16        -4.4027    6.7904    1.6153 C.ar      1 <0>        -0.0902
     23 C17        -5.7666    6.7226    1.3910 C.ar      1 <0>        -0.0446
     24 C18        -6.3247    5.5799    0.8452 C.ar      1 <0>        -0.0891
     25 C19        -5.5215    4.5038    0.5228 C.ar      1 <0>        -0.1253
     26 Cl1        -6.7792    8.0737    1.7946 Cl        1 <0>        -0.0648
     27 N5         -1.5018    1.3121   -0.0750 N.ar      1 <0>        -0.3864
     28 C20        -0.6379    0.3459   -0.3040 C.ar      1 <0>         0.0311
     29 C21         0.6454    0.6348   -0.7670 C.ar      1 <0>         0.1405
     30 N6          1.0207    1.8782   -0.9801 N.ar      1 <0>        -0.4340
     31 H1          8.2313   10.0663   -4.7656 H         1 <0>         0.0811
     32 H2          6.6353    9.6567   -5.4389 H         1 <0>         0.0672
     33 H3          6.7613   10.7999   -4.0804 H         1 <0>         0.0672
     34 H4          7.6079    8.9785   -2.6263 H         1 <0>         0.0712
     35 H5          7.4819    7.8353   -3.9848 H         1 <0>         0.0712
     36 H6          4.4927    5.6090   -0.6680 H         1 <0>         0.1408
     37 H7          2.1610    5.1392   -0.0558 H         1 <0>         0.1433
     38 H8          0.8405    8.3098   -2.6121 H         1 <0>         0.1358
     39 H9          3.1693    8.7939   -3.2243 H         1 <0>         0.1429
     40 H10        -0.6011    7.1565   -0.8588 H         1 <0>         0.4294
     41 H11        -3.6732    2.5764    0.5191 H         1 <0>         0.4359
     42 H12        -2.5316    5.7671    1.4790 H         1 <0>         0.1439
     43 H13        -3.9697    7.6836    2.0411 H         1 <0>         0.1391
     44 H14        -7.3894    5.5298    0.6709 H         1 <0>         0.1405
     45 H15        -5.9575    3.6124    0.0966 H         1 <0>         0.1378
     46 H16        -0.9271   -0.6810   -0.1360 H         1 <0>         0.1830
     47 H17         1.3395   -0.1714   -0.9533 H         1 <0>         0.1859
@<TRIPOS>BOND
     1    1    2 1
     2    1   31 1
     3    1   32 1
     4    1   33 1
     5    2    3 1
     6    2   34 1
     7    2   35 1
     8    3    4 1
     9    4    5 2
    10    4    6 1
    11    6   11 ar
    12    6    7 ar
    13    7    8 ar
    14    7   36 1
    15    8    9 ar
    16    8   37 1
    17    9   10 ar
    18    9   12 1
    19   10   11 ar
    20   10   38 1
    21   11   39 1
    22   12   13 1
    23   12   40 1
    24   13   18 ar
    25   13   14 ar
    26   14   15 ar
    27   15   30 ar
    28   15   16 ar
    29   16   17 ar
    30   16   27 ar
    31   17   18 ar
    32   17   19 1
    33   19   20 1
    34   19   41 1
    35   20   25 ar
    36   20   21 ar
    37   21   22 ar
    38   21   42 1
    39   22   23 ar
    40   22   43 1
    41   23   24 ar
    42   23   26 1
    43   24   25 ar
    44   24   44 1
    45   25   45 1
    46   27   28 ar
    47   28   29 ar
    48   28   46 1
    49   29   30 ar
    50   29   47 1
@<TRIPOS>MOLECULE
ZINC34206690
   36    39     0     0     0
SMALL
USER_CHARGES

@<TRIPOS>ATOM
      1 C1          0.3921    1.4934   -0.0371 C.3       1 <0>        -0.1011
      2 C2          0.3028   -0.0109   -0.0326 C.ar      1 <0>        -0.1376
      3 C3          0.8840   -0.7334    0.9934 C.ar      1 <0>        -0.1065
      4 C4          0.8044   -2.1121    1.0004 C.ar      1 <0>        -0.1472
      5 C5          0.1392   -2.7731   -0.0246 C.ar      1 <0>         0.1499
      6 C6         -0.4439   -2.0441   -1.0535 C.ar      1 <0>        -0.1342
      7 C7         -0.3650   -0.6654   -1.0516 C.ar      1 <0>        -0.1111
      8 N1          0.0572   -4.1681   -0.0209 N.2       1 <0>        -0.5582
      9 C8          0.1752   -4.8562    1.1534 C.2       1 <0>         0.4344
     10 N2          0.1862   -4.3766    2.3876 N.2       1 <0>        -0.7051
     11 C9          0.3060   -5.1476    3.4446 C.2       1 <0>         0.5132
     12 O1          0.3145   -4.6951    4.5759 O.2       1 <0>        -0.4856
     13 C10         0.4305   -6.6111    3.1775 C.2       1 <0>        -0.0663
     14 C11         0.5684   -7.6612    4.0591 C.2       1 <0>        -0.0969
     15 C12         0.6938   -9.0974    3.7352 C.ar      1 <0>        -0.1005
     16 C13         0.7128   -9.8062    2.5365 C.ar      1 <0>        -0.0556
     17 C14         0.8464  -11.1796    2.5561 C.ar      1 <0>        -0.1450
     18 C15         0.9609  -11.8490    3.7633 C.ar      1 <0>        -0.0852
     19 C16         0.9428  -11.1558    4.9573 C.ar      1 <0>        -0.1454
     20 C17         0.8096   -9.7721    4.9593 C.ar      1 <0>         0.1537
     21 N3          0.7635   -8.8503    5.9994 N.am      1 <0>        -0.6606
     22 C18         0.6296   -7.5955    5.5369 C.2       1 <0>         0.5597
     23 O2          0.5665   -6.5861    6.2122 O.2       1 <0>        -0.4545
     24 S1          0.3435   -6.6182    1.3911 S.3       1 <0>        -0.0875
     25 H1         -0.4601    1.9096    0.5001 H         1 <0>         0.0586
     26 H2          1.3160    1.8040    0.4507 H         1 <0>         0.0568
     27 H3          0.3850    1.8548   -1.0655 H         1 <0>         0.0564
     28 H4          1.4009   -0.2189    1.7899 H         1 <0>         0.1084
     29 H5          1.2591   -2.6758    1.8016 H         1 <0>         0.1384
     30 H6         -0.9614   -2.5549   -1.8521 H         1 <0>         0.1155
     31 H7         -0.8215   -0.0979   -1.8490 H         1 <0>         0.1114
     32 H8          0.6231   -9.2834    1.5958 H         1 <0>         0.1310
     33 H9          0.8612  -11.7332    1.6289 H         1 <0>         0.1284
     34 H10         1.0651  -12.9240    3.7707 H         1 <0>         0.1280
     35 H11         1.0326  -11.6897    5.8917 H         1 <0>         0.1252
     36 H12         0.8247   -9.0829    6.9392 H         1 <0>         0.4152
@<TRIPOS>BOND
     1    1    2 1
     2    1   25 1
     3    1   26 1
     4    1   27 1
     5    2    7 ar
     6    2    3 ar
     7    3    4 ar
     8    3   28 1
     9    4    5 ar
    10    4   29 1
    11    5    6 ar
    12    5    8 1
    13    6    7 ar
    14    6   30 1
    15    7   31 1
    16    8    9 1
    17    9   24 1
    18    9   10 2
    19   10   11 1
    20   11   12 2
    21   11   13 1
    22   13   14 2
    23   13   24 1
    24   14   22 1
    25   14   15 1
    26   15   20 ar
    27   15   16 ar
    28   16   17 ar
    29   16   32 1
    30   17   18 ar
    31   17   33 1
    32   18   19 ar
    33   18   34 1
    34   19   20 ar
    35   19   35 1
    36   20   21 1
    37   21   22 am
    38   21   36 1
    39   22   23 2
@<TRIPOS>MOLECULE
ZINC34206690
   37    40     0     0     0
SMALL
USER_CHARGES

@<TRIPOS>ATOM
      1 C1          0.0093    1.5031    0.0069 C.3       1 <0>        -0.1175
      2 C2          0.0217   -0.0038   -0.0003 C.ar      1 <0>        -0.0872
      3 C3          0.6366   -0.6936    1.0286 C.ar      1 <0>        -0.0980
      4 C4          0.6503   -2.0745    1.0249 C.ar      1 <0>        -0.1077
      5 C5          0.0449   -2.7708   -0.0137 C.ar      1 <0>         0.1179
      6 C6         -0.5724   -2.0747   -1.0455 C.ar      1 <0>        -0.1280
      7 C7         -0.5868   -0.6938   -1.0329 C.ar      1 <0>        -0.1014
      8 N1          0.0572   -4.1681   -0.0209 N.pl3     1 <0>        -0.5687
      9 C8          0.1752   -4.8562    1.1534 C.2       1 <0>         0.4802
     10 N2          0.1862   -4.3766    2.3876 N.2       1 <0>        -0.6390
     11 C9          0.3060   -5.1476    3.4446 C.2       1 <0>         0.5297
     12 O1          0.3145   -4.6951    4.5759 O.2       1 <0>        -0.3981
     13 C10         0.4305   -6.6111    3.1775 C.2       1 <0>        -0.1325
     14 C11         0.5684   -7.6612    4.0591 C.2       1 <0>        -0.0038
     15 C12         0.6938   -9.0974    3.7352 C.ar      1 <0>        -0.1399
     16 C13         0.7128   -9.8062    2.5365 C.ar      1 <0>        -0.0391
     17 C14         0.8464  -11.1796    2.5561 C.ar      1 <0>        -0.1443
     18 C15         0.9609  -11.8490    3.7633 C.ar      1 <0>        -0.0601
     19 C16         0.9428  -11.1558    4.9573 C.ar      1 <0>        -0.1416
     20 C17         0.8096   -9.7721    4.9593 C.ar      1 <0>         0.1723
     21 N3          0.7635   -8.8503    5.9994 N.am      1 <0>        -0.6559
     22 C18         0.6296   -7.5955    5.5369 C.2       1 <0>         0.5565
     23 O2          0.5665   -6.5861    6.2122 O.2       1 <0>        -0.4372
     24 S1          0.3435   -6.6182    1.3911 S.3       1 <0>        -0.0119
     25 H1         -0.8761    1.8566    0.5352 H         1 <0>         0.0733
     26 H2          0.9036    1.8714    0.5096 H         1 <0>         0.0688
     27 H3         -0.0085    1.8712   -1.0189 H         1 <0>         0.0683
     28 H4          1.1071   -0.1517    1.8357 H         1 <0>         0.1306
     29 H5          1.1313   -2.6126    1.8283 H         1 <0>         0.1499
     30 H6         -1.0436   -2.6128   -1.8546 H         1 <0>         0.1308
     31 H7         -1.0699   -0.1521   -1.8325 H         1 <0>         0.1315
     32 H8          0.6231   -9.2834    1.5958 H         1 <0>         0.1290
     33 H9          0.8612  -11.7332    1.6289 H         1 <0>         0.1368
     34 H10         1.0651  -12.9240    3.7707 H         1 <0>         0.1382
     35 H11         1.0326  -11.6897    5.8917 H         1 <0>         0.1354
     36 H12         0.8247   -9.0829    6.9392 H         1 <0>         0.4257
     37 H13        -0.0181   -4.6495   -0.8596 H         1 <0>         0.4368
@<TRIPOS>BOND
     1    1    2 1
     2    1   25 1
     3    1   26 1
     4    1   27 1
     5    2    7 ar
     6    2    3 ar
     7    3    4 ar
     8    3   28 1
     9    4    5 ar
    10    4   29 1
    11    5    6 ar
    12    5    8 1
    13    6    7 ar
    14    6   30 1
    15    7   31 1
    16    8    9 1
    17    8   37 1
    18    9   24 1
    19    9   10 2
    20   10   11 1
    21   11   12 2
    22   11   13 1
    23   13   14 2
    24   13   24 1
    25   14   22 1
    26   14   15 1
    27   15   20 ar
    28   15   16 ar
    29   16   17 ar
    30   16   32 1
    31   17   18 ar
    32   17   33 1
    33   18   19 ar
    34   18   34 1
    35   19   20 ar
    36   19   35 1
    37   20   21 1
    38   21   22 am
    39   21   36 1
    40   22   23 2
@<TRIPOS>MOLECULE
ZINC18205922
   39    42     0     0     0
SMALL
USER_CHARGES
2-[4-[(4-chlorophenyl)amino]quinazolin-2-yl]phenol
@<TRIPOS>ATOM
      1 C1          5.8355    7.3992    0.0020 C.ar      1 <0>        -0.1318
      2 C2          4.6170    8.0542   -0.1534 C.ar      1 <0>        -0.0764
      3 C3          3.4589    7.3539   -0.3168 C.ar      1 <0>        -0.1044
      4 C4          3.4933    5.9521   -0.3289 C.ar      1 <0>         0.1901
      5 C5          4.7349    5.2878   -0.1705 C.ar      1 <0>        -0.1971
      6 C6          5.9046    6.0367   -0.0054 C.ar      1 <0>        -0.0726
      7 C7          4.7461    3.8706   -0.1858 C.ar      1 <0>         0.4695
      8 N1          3.5953    3.2348   -0.3474 N.ar      1 <0>        -0.5778
      9 C8          2.4500    3.8989   -0.4929 C.ar      1 <0>         0.4119
     10 N2          2.3844    5.2181   -0.4911 N.ar      1 <0>        -0.5074
     11 C9          1.1988    3.1261   -0.6701 C.ar      1 <0>        -0.0993
     12 C10         1.2322    1.7323   -0.6826 C.ar      1 <0>        -0.0284
     13 C11         0.0641    1.0175   -0.8474 C.ar      1 <0>        -0.1780
     14 C12        -1.1418    1.6787   -1.0064 C.ar      1 <0>        -0.0545
     15 C13        -1.1880    3.0591   -0.9900 C.ar      1 <0>        -0.2313
     16 C14        -0.0221    3.7911   -0.8252 C.ar      1 <0>         0.2078
     17 O1         -0.0652    5.1481   -0.8149 O.3       1 <0>        -0.4654
     18 N3          5.9256    3.1709   -0.0356 N.pl3     1 <0>        -0.6530
     19 C15         5.9035    1.7762    0.0636 C.ar      1 <0>         0.1672
     20 C16         4.8350    1.1395    0.6816 C.ar      1 <0>        -0.1057
     21 C17         4.8130   -0.2383    0.7731 C.ar      1 <0>        -0.0890
     22 C18         5.8598   -0.9839    0.2598 C.ar      1 <0>        -0.0528
     23 C19         6.9285   -0.3518   -0.3514 C.ar      1 <0>        -0.0880
     24 C20         6.9529    1.0254   -0.4507 C.ar      1 <0>        -0.1379
     25 Cl1         5.8321   -2.7153    0.3824 Cl        1 <0>        -0.0704
     26 H1          6.7385    7.9776    0.1302 H         1 <0>         0.1306
     27 H2          4.5887    9.1337   -0.1440 H         1 <0>         0.1334
     28 H3          2.5207    7.8754   -0.4359 H         1 <0>         0.1405
     29 H4          6.8559    5.5398    0.1157 H         1 <0>         0.1243
     30 H5          2.1715    1.2129   -0.5629 H         1 <0>         0.1398
     31 H6          0.0910   -0.0621   -0.8570 H         1 <0>         0.1281
     32 H7         -2.0517    1.1122   -1.1395 H         1 <0>         0.1265
     33 H8         -2.1325    3.5688   -1.1101 H         1 <0>         0.1311
     34 H9         -1.0264    5.6688   -0.9370 H         1 <0>         0.4223
     35 H10         6.8835    3.7101    0.0061 H         1 <0>         0.4468
     36 H11         4.0199    1.7211    1.0863 H         1 <0>         0.1445
     37 H12         3.9801   -0.7342    1.2492 H         1 <0>         0.1363
     38 H13         7.7439   -0.9361   -0.7514 H         1 <0>         0.1368
     39 H14         7.7869    1.5182   -0.9281 H         1 <0>         0.1338
@<TRIPOS>BOND
     1    1    6 ar
     2    1    2 ar
     3    1   26 1
     4    2    3 ar
     5    2   27 1
     6    3    4 ar
     7    3   28 1
     8    4   10 ar
     9    4    5 ar
    10    5    6 ar
    11    5    7 ar
    12    6   29 1
    13    7    8 ar
    14    7   18 1
    15    8    9 ar
    16    9   10 ar
    17    9   11 1
    18   11   16 ar
    19   11   12 ar
    20   12   13 ar
    21   12   30 1
    22   13   14 ar
    23   13   31 1
    24   14   15 ar
    25   14   32 1
    26   15   16 ar
    27   15   33 1
    28   16   17 1
    29   17   34 1
    30   18   19 1
    31   18   35 1
    32   19   24 ar
    33   19   20 ar
    34   20   21 ar
    35   20   36 1
    36   21   22 ar
    37   21   37 1
    38   22   23 ar
    39   22   25 1
    40   23   24 ar
    41   23   38 1
    42   24   39 1
@<TRIPOS>MOLECULE
ZINC04342278
   31    33     0     0     0
SMALL
USER_CHARGES
4-(6-nitroquinazolin-4-yl)aminophenol
@<TRIPOS>ATOM
      1 C1         -3.6503    1.6469   -0.6713 C.ar      1 <0>        -0.0895
      2 C2         -4.8090    0.9016   -0.7646 C.ar      1 <0>        -0.1254
      3 C3         -5.9971    1.3985   -0.2491 C.ar      1 <0>         0.0990
      4 C4         -6.0215    2.6424    0.3644 C.ar      1 <0>        -0.1250
      5 C5         -4.8627    3.3871    0.4624 C.ar      1 <0>        -0.1219
      6 C6         -3.6727    2.8902   -0.0530 C.ar      1 <0>         0.1293
      7 N1         -2.4977    3.6448    0.0455 N.pl3     1 <0>        -0.6283
      8 C7         -1.2816    3.0111    0.1922 C.ar      1 <0>         0.4875
      9 C8         -0.0711    3.7467    0.1767 C.ar      1 <0>        -0.2083
     10 C9         -0.0470    5.1360    0.0126 C.ar      1 <0>         0.0143
     11 C10         1.1495    5.7908    0.0057 C.ar      1 <0>        -0.0560
     12 C11         2.3457    5.0956    0.1588 C.ar      1 <0>        -0.0353
     13 C12         2.3560    3.7419    0.3198 C.ar      1 <0>        -0.0937
     14 C13         1.1446    3.0374    0.3322 C.ar      1 <0>         0.2281
     15 N2          1.0985    1.7057    0.4869 N.ar      1 <0>        -0.5476
     16 C14        -0.0525    1.0763    0.4934 C.ar      1 <0>         0.3743
     17 N3         -1.2129    1.6953    0.3462 N.ar      1 <0>        -0.5791
     18 N4          1.1763    7.2607   -0.1673 N.pl3     1 <0>         0.0280
     19 O1          2.2402    7.8536   -0.1751 O.2       1 <0>        -0.1470
     20 O2          0.1345    7.8772   -0.3020 O.3       1 <0>        -0.1622
     21 O3         -7.1387    0.6660   -0.3456 O.3       1 <0>        -0.4979
     22 H1         -2.7262    1.2617   -1.0763 H         1 <0>         0.1418
     23 H2         -4.7910   -0.0668   -1.2424 H         1 <0>         0.1353
     24 H3         -6.9470    3.0287    0.7651 H         1 <0>         0.1361
     25 H4         -4.8818    4.3556    0.9401 H         1 <0>         0.1322
     26 H5         -2.5388    4.6133    0.0107 H         1 <0>         0.4242
     27 H6         -0.9688    5.6858   -0.1071 H         1 <0>         0.1559
     28 H7          3.2802    5.6369    0.1496 H         1 <0>         0.1646
     29 H8          3.2918    3.2157    0.4368 H         1 <0>         0.1658
     30 H9         -0.0528    0.0037    0.6201 H         1 <0>         0.2081
     31 H10        -7.6470    0.8340   -1.1509 H         1 <0>         0.3925
@<TRIPOS>BOND
     1    1    6 ar
     2    1    2 ar
     3    1   22 1
     4    2    3 ar
     5    2   23 1
     6    3    4 ar
     7    3   21 1
     8    4    5 ar
     9    4   24 1
    10    5    6 ar
    11    5   25 1
    12    6    7 1
    13    7    8 1
    14    7   26 1
    15    8   17 ar
    16    8    9 ar
    17    9   14 ar
    18    9   10 ar
    19   10   11 ar
    20   10   27 1
    21   11   12 ar
    22   11   18 1
    23   12   13 ar
    24   12   28 1
    25   13   14 ar
    26   13   29 1
    27   14   15 ar
    28   15   16 ar
    29   16   17 ar
    30   16   30 1
    31   18   19 2
    32   18   20 1
    33   21   31 1
@<TRIPOS>MOLECULE
ZINC72105034
   70    73     0     0     0
SMALL
USER_CHARGES

@<TRIPOS>ATOM
      1 C1         -3.0465   -3.1127   14.8741 C.3       1 <0>        -0.1892
      2 C2         -3.2466   -2.2549   13.6230 C.3       1 <0>        -0.0108
      3 N1         -4.1264   -2.9600   12.6814 N.4       1 <0>        -0.3829
      4 C3         -3.4647   -4.1874   12.2214 C.3       1 <0>        -0.0274
      5 C4         -4.4254   -4.9810   11.3297 C.3       1 <0>         0.1010
      6 N2         -4.8919   -4.1005   10.2474 N.pl3     1 <0>        -0.6456
      7 C5         -5.4217   -2.7770   10.6103 C.3       1 <0>         0.1015
      8 C6         -4.4140   -2.0875   11.5359 C.3       1 <0>        -0.0220
      9 C7         -4.8337   -4.5106    8.9106 C.ar      1 <0>         0.1766
     10 C8         -4.2262   -5.7148    8.5795 C.ar      1 <0>        -0.1629
     11 C9         -4.1692   -6.1195    7.2606 C.ar      1 <0>        -0.0646
     12 C10        -4.7193   -5.3226    6.2653 C.ar      1 <0>         0.1310
     13 C11        -5.3268   -4.1185    6.5964 C.ar      1 <0>        -0.1041
     14 C12        -5.3885   -3.7162    7.9158 C.ar      1 <0>        -0.1629
     15 N3         -4.6611   -5.7330    4.9274 N.pl3     1 <0>        -0.6533
     16 C13        -4.7431   -7.0808    4.6114 C.ar      1 <0>         0.4484
     17 C14        -4.5642   -7.5111    3.2990 C.ar      1 <0>        -0.3232
     18 C15        -4.6563   -8.8727    3.0342 C.ar      1 <0>         0.4562
     19 N4         -4.9104   -9.7105    4.0371 N.ar      1 <0>        -0.5358
     20 C16        -5.0737   -9.2649    5.2660 C.ar      1 <0>         0.3663
     21 N5         -4.9887   -7.9832    5.5591 N.ar      1 <0>        -0.5884
     22 N6         -4.4859   -9.3527    1.7400 N.am      1 <0>        -0.5513
     23 C17        -4.0993   -8.4367    0.6640 C.3       1 <0>         0.0633
     24 C18        -4.6764  -10.6605    1.4758 C.2       1 <0>         0.6965
     25 O1         -4.9972  -11.4206    2.3688 O.2       1 <0>        -0.4771
     26 N7         -4.5113  -11.1256    0.2217 N.am      1 <0>        -0.6806
     27 C19        -4.5933  -12.5005   -0.0317 C.ar      1 <0>         0.2488
     28 C20        -3.5635  -13.1459   -0.7035 C.ar      1 <0>        -0.1156
     29 C21        -3.6457  -14.5077   -0.9540 C.ar      1 <0>         0.1985
     30 C22        -4.7561  -15.2246   -0.5342 C.ar      1 <0>        -0.2856
     31 C23        -5.7851  -14.5810    0.1368 C.ar      1 <0>         0.1981
     32 C24        -5.7020  -13.2205    0.3937 C.ar      1 <0>        -0.0913
     33 Cl1        -6.9867  -12.4166    1.2405 Cl        1 <0>        -0.0174
     34 O2         -6.8731  -15.2849    0.5478 O.3       1 <0>        -0.2934
     35 C25        -6.8895  -16.6834    0.2548 C.3       1 <0>         0.0217
     36 O3         -2.6377  -15.1397   -1.6116 O.3       1 <0>        -0.2949
     37 C26        -2.7887  -16.5430   -1.8355 C.3       1 <0>         0.0219
     38 Cl2        -2.1738  -12.2486   -1.2302 Cl        1 <0>        -0.0383
     39 H1         -2.3937   -2.5895   15.5727 H         1 <0>         0.1068
     40 H2         -4.0114   -3.2967   15.3466 H         1 <0>         0.0809
     41 H3         -2.5919   -4.0630   14.5941 H         1 <0>         0.0805
     42 H4         -3.7012   -1.3046   13.9030 H         1 <0>         0.1310
     43 H5         -2.2817   -2.0709   13.1505 H         1 <0>         0.1281
     44 H6         -2.5717   -3.9277   11.6528 H         1 <0>         0.1321
     45 H7         -3.1838   -4.7935   13.0827 H         1 <0>         0.1410
     46 H8         -3.9058   -5.8399   10.9049 H         1 <0>         0.1268
     47 H9         -5.2773   -5.3195   11.9194 H         1 <0>         0.0863
     48 H10        -5.5608   -2.1788    9.7098 H         1 <0>         0.1256
     49 H11        -6.3742   -2.8930   11.1273 H         1 <0>         0.0858
     50 H12        -4.8326   -1.1462   11.8921 H         1 <0>         0.1394
     51 H13        -3.4923   -1.8913   10.9881 H         1 <0>         0.1318
     52 H14        -3.7980   -6.3344    9.3535 H         1 <0>         0.1245
     53 H15        -3.6964   -7.0558    7.0031 H         1 <0>         0.1406
     54 H16        -5.7546   -3.4987    5.8223 H         1 <0>         0.1287
     55 H17        -5.8648   -2.7819    8.1738 H         1 <0>         0.1249
     56 H18        -4.5634   -5.0745    4.2219 H         1 <0>         0.4207
     57 H19        -4.3595   -6.8053    2.5076 H         1 <0>         0.1461
     58 H20        -5.2787   -9.9712    6.0569 H         1 <0>         0.2006
     59 H21        -3.0123   -8.3941    0.5961 H         1 <0>         0.0784
     60 H22        -4.5087   -8.7932   -0.2812 H         1 <0>         0.0834
     61 H23        -4.4893   -7.4413    0.8765 H         1 <0>         0.0916
     62 H24        -4.3356  -10.5081   -0.5055 H         1 <0>         0.4126
     63 H25        -4.8197  -16.2847   -0.7302 H         1 <0>         0.1546
     64 H26        -7.8108  -17.1238    0.6364 H         1 <0>         0.1096
     65 H27        -6.8368  -16.8293   -0.8241 H         1 <0>         0.0610
     66 H28        -6.0336  -17.1640    0.7287 H         1 <0>         0.0609
     67 H29        -3.6841  -16.7217   -2.4308 H         1 <0>         0.0613
     68 H30        -1.9165  -16.9218   -2.3683 H         1 <0>         0.1099
     69 H31        -2.8806  -17.0558   -0.8781 H         1 <0>         0.0610
     70 H32        -4.9899   -3.1998   13.1451 H         1 <0>         0.4221
@<TRIPOS>BOND
     1    1    2 1
     2    1   39 1
     3    1   40 1
     4    1   41 1
     5    2    3 1
     6    2   42 1
     7    2   43 1
     8    3    8 1
     9    3    4 1
    10    3   70 1
    11    4    5 1
    12    4   44 1
    13    4   45 1
    14    5    6 1
    15    5   46 1
    16    5   47 1
    17    6    7 1
    18    6    9 1
    19    7    8 1
    20    7   48 1
    21    7   49 1
    22    8   50 1
    23    8   51 1
    24    9   14 ar
    25    9   10 ar
    26   10   11 ar
    27   10   52 1
    28   11   12 ar
    29   11   53 1
    30   12   13 ar
    31   12   15 1
    32   13   14 ar
    33   13   54 1
    34   14   55 1
    35   15   16 1
    36   15   56 1
    37   16   21 ar
    38   16   17 ar
    39   17   18 ar
    40   17   57 1
    41   18   19 ar
    42   18   22 1
    43   19   20 ar
    44   20   21 ar
    45   20   58 1
    46   22   23 1
    47   22   24 am
    48   23   59 1
    49   23   60 1
    50   23   61 1
    51   24   25 2
    52   24   26 am
    53   26   27 1
    54   26   62 1
    55   27   32 ar
    56   27   28 ar
    57   28   29 ar
    58   28   38 1
    59   29   30 ar
    60   29   36 1
    61   30   31 ar
    62   30   63 1
    63   31   32 ar
    64   31   34 1
    65   32   33 1
    66   34   35 1
    67   35   64 1
    68   35   65 1
    69   35   66 1
    70   36   37 1
    71   37   67 1
    72   37   68 1
    73   37   69 1
@<TRIPOS>MOLECULE
ZINC72105034
   69    72     0     0     0
SMALL
USER_CHARGES

@<TRIPOS>ATOM
      1 C1         -3.4378   -3.9375   14.6684 C.3       1 <0>        -0.1502
      2 C2         -3.5006   -3.0159   13.4488 C.3       1 <0>         0.0503
      3 N1         -4.3406   -3.6313   12.4127 N.3       1 <0>        -0.5378
      4 C3         -3.7251   -4.8621   11.8984 C.3       1 <0>         0.0363
      5 C4         -4.7086   -5.5666   10.9578 C.3       1 <0>         0.1266
      6 N2         -5.1378   -4.6085    9.9278 N.pl3     1 <0>        -0.6321
      7 C5         -5.6391   -3.2963   10.3636 C.3       1 <0>         0.1276
      8 C6         -4.6190   -2.6811   11.3275 C.3       1 <0>         0.0396
      9 C7         -5.0714   -4.9369    8.5689 C.ar      1 <0>         0.2080
     10 C8         -4.4894   -6.1336    8.1714 C.ar      1 <0>        -0.1806
     11 C9         -4.4244   -6.4578    6.8309 C.ar      1 <0>        -0.0579
     12 C10        -4.9408   -5.5873    5.8801 C.ar      1 <0>         0.0956
     13 C11        -5.5227   -4.3907    6.2776 C.ar      1 <0>        -0.0967
     14 C12        -5.5926   -4.0689    7.6185 C.ar      1 <0>        -0.1814
     15 N3         -4.8743   -5.9160    4.5202 N.pl3     1 <0>        -0.6480
     16 C13        -4.9857   -7.2392    4.1204 C.ar      1 <0>         0.4532
     17 C14        -4.7996   -7.5924    2.7862 C.ar      1 <0>        -0.3285
     18 C15        -4.9221   -8.9324    2.4366 C.ar      1 <0>         0.4515
     19 N4         -5.2108   -9.8235    3.3827 N.ar      1 <0>        -0.5423
     20 C16        -5.3796   -9.4503    4.6347 C.ar      1 <0>         0.3655
     21 N5         -5.2667   -8.1917    5.0075 N.ar      1 <0>        -0.5828
     22 N6         -4.7461   -9.3361    1.1173 N.am      1 <0>        -0.5515
     23 C17        -4.3221   -8.3659    0.1048 C.3       1 <0>         0.0649
     24 C18        -4.9656  -10.6198    0.7705 C.2       1 <0>         0.6963
     25 O1         -5.3174  -11.4249    1.6108 O.2       1 <0>        -0.4774
     26 N7         -4.7950  -11.0110   -0.5080 N.am      1 <0>        -0.6824
     27 C19        -4.9079  -12.3651   -0.8468 C.ar      1 <0>         0.2515
     28 C20        -3.8855  -12.9943   -1.5448 C.ar      1 <0>        -0.1156
     29 C21        -3.9983  -14.3355   -1.8800 C.ar      1 <0>         0.1969
     30 C22        -5.1319  -15.0480   -1.5188 C.ar      1 <0>        -0.2867
     31 C23        -6.1535  -14.4206   -0.8218 C.ar      1 <0>         0.1972
     32 C24        -6.0399  -13.0811   -0.4802 C.ar      1 <0>        -0.0912
     33 Cl1        -7.3156  -12.2980    0.3991 Cl        1 <0>        -0.0151
     34 O2         -7.2642  -15.1202   -0.4683 O.3       1 <0>        -0.2933
     35 C25        -7.3116  -16.4972   -0.8473 C.3       1 <0>         0.0224
     36 O3         -2.9975  -14.9516   -2.5633 O.3       1 <0>        -0.2955
     37 C26        -3.1804  -16.3341   -2.8753 C.3       1 <0>         0.0225
     38 Cl2        -2.4668  -12.1023   -1.9981 Cl        1 <0>        -0.0388
     39 H1         -2.8146   -3.4808   15.4373 H         1 <0>         0.0601
     40 H2         -4.4435   -4.0912   15.0599 H         1 <0>         0.0642
     41 H3         -3.0108   -4.8971   14.3771 H         1 <0>         0.0548
     42 H4         -3.9276   -2.0563   13.7401 H         1 <0>         0.0754
     43 H5         -2.4950   -2.8622   13.0574 H         1 <0>         0.0324
     44 H6         -2.8150   -4.6131   11.3528 H         1 <0>         0.0373
     45 H7         -3.4816   -5.5223   12.7308 H         1 <0>         0.0881
     46 H8         -4.2176   -6.4171   10.4850 H         1 <0>         0.0867
     47 H9         -5.5752   -5.9086   11.5236 H         1 <0>         0.0692
     48 H10        -5.7633   -2.6458    9.4978 H         1 <0>         0.0853
     49 H11        -6.5952   -3.4200   10.8723 H         1 <0>         0.0688
     50 H12        -5.0237   -1.7596   11.7460 H         1 <0>         0.0847
     51 H13        -3.6964   -2.4625   10.7899 H         1 <0>         0.0375
     52 H14        -4.0875   -6.8104    8.9108 H         1 <0>         0.1239
     53 H15        -3.9715   -7.3882    6.5217 H         1 <0>         0.1333
     54 H16        -5.9244   -3.7138    5.5381 H         1 <0>         0.1213
     55 H17        -6.0491   -3.1403    7.9278 H         1 <0>         0.1240
     56 H18        -4.7504   -5.2181    3.8580 H         1 <0>         0.4169
     57 H19        -4.5666   -6.8448    2.0425 H         1 <0>         0.1434
     58 H20        -5.6130  -10.1984    5.3779 H         1 <0>         0.1992
     59 H21        -3.2335   -8.3472    0.0528 H         1 <0>         0.0766
     60 H22        -4.7274   -8.6529   -0.8655 H         1 <0>         0.0808
     61 H23        -4.6901   -7.3757    0.3737 H         1 <0>         0.0918
     62 H24        -4.5941  -10.3546   -1.1933 H         1 <0>         0.4120
     63 H25        -5.2193  -16.0921   -1.7808 H         1 <0>         0.1535
     64 H26        -7.2478  -16.5777   -1.9325 H         1 <0>         0.0599
     65 H27        -6.4745  -17.0279   -0.3938 H         1 <0>         0.0605
     66 H28        -8.2486  -16.9363   -0.5049 H         1 <0>         0.1088
     67 H29        -3.2981  -16.9023   -1.9526 H         1 <0>         0.0606
     68 H30        -4.0718  -16.4527   -3.4913 H         1 <0>         0.0604
     69 H31        -2.3108  -16.7017   -3.4200 H         1 <0>         0.1087
@<TRIPOS>BOND
     1    1    2 1
     2    1   39 1
     3    1   40 1
     4    1   41 1
     5    2    3 1
     6    2   42 1
     7    2   43 1
     8    3    8 1
     9    3    4 1
    10    4    5 1
    11    4   44 1
    12    4   45 1
    13    5    6 1
    14    5   46 1
    15    5   47 1
    16    6    7 1
    17    6    9 1
    18    7    8 1
    19    7   48 1
    20    7   49 1
    21    8   50 1
    22    8   51 1
    23    9   14 ar
    24    9   10 ar
    25   10   11 ar
    26   10   52 1
    27   11   12 ar
    28   11   53 1
    29   12   13 ar
    30   12   15 1
    31   13   14 ar
    32   13   54 1
    33   14   55 1
    34   15   16 1
    35   15   56 1
    36   16   21 ar
    37   16   17 ar
    38   17   18 ar
    39   17   57 1
    40   18   19 ar
    41   18   22 1
    42   19   20 ar
    43   20   21 ar
    44   20   58 1
    45   22   23 1
    46   22   24 am
    47   23   59 1
    48   23   60 1
    49   23   61 1
    50   24   25 2
    51   24   26 am
    52   26   27 1
    53   26   62 1
    54   27   32 ar
    55   27   28 ar
    56   28   29 ar
    57   28   38 1
    58   29   30 ar
    59   29   36 1
    60   30   31 ar
    61   30   63 1
    62   31   32 ar
    63   31   34 1
    64   32   33 1
    65   34   35 1
    66   35   64 1
    67   35   65 1
    68   35   66 1
    69   36   37 1
    70   37   67 1
    71   37   68 1
    72   37   69 1
@<TRIPOS>MOLECULE
ZINC03938688
   39    41     0     0     0
SMALL
USER_CHARGES

@<TRIPOS>ATOM
      1 C1         -0.0095    1.3826    0.0704 C.ar      1 <0>        -0.0343
      2 C2          0.5587    1.0580   -1.1482 C.ar      1 <0>        -0.1609
      3 C3          1.7655    0.3862   -1.1955 C.ar      1 <0>         0.1753
      4 C4          2.4129    0.0342   -0.0053 C.ar      1 <0>        -0.1954
      5 C5          1.8304    0.3669    1.2233 C.ar      1 <0>         0.1741
      6 C6          0.6231    1.0388    1.2514 C.ar      1 <0>        -0.1610
      7 F1          2.4463    0.0317    2.3781 F         1 <0>        -0.1212
      8 C7          3.6999   -0.6827   -0.0456 C.2       1 <0>         0.6210
      9 O1          4.7383   -0.0615   -0.1600 O.2       1 <0>        -0.4669
     10 N1          3.7255   -2.0272    0.0446 N.am      1 <0>        -0.3962
     11 C8          4.8314   -2.8210    0.1249 C.2       1 <0>         0.5948
     12 N2          4.4249   -4.0694    0.1979 N.2       1 <0>        -0.5873
     13 C9          3.0869   -4.1118    0.1675 C.2       1 <0>         0.5191
     14 N3          2.6183   -2.8904    0.0808 N.2       1 <0>        -0.3480
     15 N4          2.3148   -5.2702    0.2247 N.pl3     1 <0>        -0.6226
     16 C10         2.9267   -6.5079    0.4407 C.ar      1 <0>         0.2365
     17 C11         4.1432   -6.5760    1.1080 C.ar      1 <0>        -0.1584
     18 C12         4.7450   -7.8008    1.3202 C.ar      1 <0>         0.0098
     19 C13         4.1379   -8.9586    0.8692 C.ar      1 <0>        -0.7033
     20 C14         2.9269   -8.8944    0.2046 C.ar      1 <0>         0.0112
     21 C15         2.3170   -7.6734   -0.0063 C.ar      1 <0>        -0.1777
     22 S1          4.9094  -10.5191    1.1415 S.o2      1 <0>         2.7034
     23 O2          4.4084  -11.3993    0.1448 O.2       1 <0>        -0.9656
     24 O3          6.2977  -10.2630    1.3036 O.2       1 <0>        -0.9650
     25 N5          4.3605  -11.0895    2.5960 N.pl3     1 <0>        -1.2510
     26 N6          6.1422   -2.3912    0.1281 N.pl3     1 <0>        -0.7911
     27 F2          2.3185    0.0697   -2.3868 F         1 <0>        -0.1201
     28 H1         -0.9506    1.9116    0.0998 H         1 <0>         0.1546
     29 H2          0.0576    1.3300   -2.0654 H         1 <0>         0.1549
     30 H3          0.1721    1.2963    2.1984 H         1 <0>         0.1546
     31 H4          1.3525   -5.2176    0.1147 H         1 <0>         0.4325
     32 H5          4.6180   -5.6722    1.4601 H         1 <0>         0.1556
     33 H6          5.6909   -7.8544    1.8385 H         1 <0>         0.1456
     34 H7          2.4556   -9.8005   -0.1466 H         1 <0>         0.1475
     35 H8          1.3691   -7.6243   -0.5215 H         1 <0>         0.1387
     36 H9          3.7284  -10.5673    3.1145 H         1 <0>         0.4165
     37 H10         4.6709  -11.9458    2.9296 H         1 <0>         0.4206
     38 H11         6.3422   -1.4439    0.0694 H         1 <0>         0.4292
     39 H12         6.8640   -3.0364    0.1890 H         1 <0>         0.4303
@<TRIPOS>BOND
     1    1    6 ar
     2    1    2 ar
     3    1   28 1
     4    2    3 ar
     5    2   29 1
     6    3    4 ar
     7    3   27 1
     8    4    5 ar
     9    4    8 1
    10    5    6 ar
    11    5    7 1
    12    6   30 1
    13    8    9 2
    14    8   10 am
    15   10   14 1
    16   10   11 1
    17   11   12 2
    18   11   26 1
    19   12   13 1
    20   13   14 2
    21   13   15 1
    22   15   16 1
    23   15   31 1
    24   16   21 ar
    25   16   17 ar
    26   17   18 ar
    27   17   32 1
    28   18   19 ar
    29   18   33 1
    30   19   20 ar
    31   19   22 1
    32   20   21 ar
    33   20   34 1
    34   21   35 1
    35   22   23 2
    36   22   24 2
    37   22   25 1
    38   25   36 1
    39   25   37 1
    40   26   38 1
    41   26   39 1
@<TRIPOS>MOLECULE
ZINC06718813
   46    49     0     0     0
SMALL
USER_CHARGES
3-[4-(3-amino-1H-indazol-4-yl)phenyl]-1-(2-fluoro-5-methyl-phenyl)urea
@<TRIPOS>ATOM
      1 C1          6.9492   -0.6708   -4.4566 C.3       1 <0>        -0.1151
      2 C2          7.3188   -0.0066   -3.1554 C.ar      1 <0>        -0.0747
      3 C3          8.6152   -0.0905   -2.6815 C.ar      1 <0>        -0.1060
      4 C4          8.9590    0.5169   -1.4879 C.ar      1 <0>        -0.1295
      5 C5          8.0061    1.2101   -0.7639 C.ar      1 <0>         0.0645
      6 C6          6.7020    1.2957   -1.2387 C.ar      1 <0>         0.1336
      7 C7          6.3607    0.6802   -2.4351 C.ar      1 <0>        -0.0953
      8 N1          5.7336    1.9963   -0.5085 N.am      1 <0>        -0.6783
      9 C8          4.4547    1.5712   -0.5040 C.2       1 <0>         0.7069
     10 O1          4.1265    0.6239   -1.1921 O.2       1 <0>        -0.5500
     11 N2          3.5395    2.1961    0.2631 N.am      1 <0>        -0.6801
     12 C9          2.2409    1.6865    0.3572 C.ar      1 <0>         0.1677
     13 C10         1.1632    2.5541    0.4899 C.ar      1 <0>        -0.1430
     14 C11        -0.1180    2.0545    0.5834 C.ar      1 <0>        -0.0892
     15 C12        -0.3326    0.6766    0.5442 C.ar      1 <0>        -0.0682
     16 C13         0.7509   -0.1919    0.4104 C.ar      1 <0>        -0.0779
     17 C14         2.0300    0.3132    0.3174 C.ar      1 <0>        -0.1142
     18 C15        -1.7083    0.1367    0.6449 C.ar      1 <0>         0.0376
     19 C16        -2.0347   -0.7648    1.6483 C.ar      1 <0>        -0.1557
     20 C17        -3.3230   -1.2675    1.7456 C.ar      1 <0>        -0.0592
     21 C18        -4.2968   -0.8911    0.8473 C.ar      1 <0>        -0.1529
     22 C19        -3.9969    0.0086   -0.1734 C.ar      1 <0>         0.1547
     23 C20        -2.6946    0.5292   -0.2801 C.ar      1 <0>        -0.1858
     24 C21        -2.7034    1.4283   -1.4324 C.2       1 <0>         0.3642
     25 N3         -3.9099    1.4169   -1.9352 N.2       1 <0>        -0.3205
     26 N4         -4.7292    0.5606   -1.1926 N.pl3     1 <0>        -0.5119
     27 H1         -5.6955    0.3797   -1.3759 H         1 <0>         0.4473
     28 N5         -1.6172    2.1667   -1.9108 N.pl3     1 <0>        -0.8360
     29 F1          8.3418    1.8036    0.4023 F         1 <0>        -0.1384
     30 H2          6.6188   -1.6912   -4.2627 H         1 <0>         0.0755
     31 H3          6.1436   -0.1125   -4.9335 H         1 <0>         0.0695
     32 H4          7.8178   -0.6890   -5.1149 H         1 <0>         0.0704
     33 H5          9.3607   -0.6319   -3.2448 H         1 <0>         0.1352
     34 H6          9.9724    0.4496   -1.1204 H         1 <0>         0.1410
     35 H7          5.3477    0.7413   -2.8045 H         1 <0>         0.1523
     36 H8          5.9835    2.7876   -0.0061 H         1 <0>         0.4118
     37 H9          3.7818    2.9993    0.7499 H         1 <0>         0.4106
     38 H10         1.3298    3.6208    0.5203 H         1 <0>         0.1310
     39 H11        -0.9554    2.7293    0.6824 H         1 <0>         0.1315
     40 H12         0.5876   -1.2590    0.3794 H         1 <0>         0.1314
     41 H13         2.8692   -0.3587    0.2138 H         1 <0>         0.1391
     42 H14        -1.2822   -1.0738    2.3586 H         1 <0>         0.1292
     43 H15        -3.5651   -1.9655    2.5334 H         1 <0>         0.1325
     44 H16        -5.2951   -1.2940    0.9345 H         1 <0>         0.1278
     45 H17        -0.7342    2.0309   -1.5329 H         1 <0>         0.4118
     46 H18        -1.7465    2.8151   -2.6206 H         1 <0>         0.4050
@<TRIPOS>BOND
     1    1    2 1
     2    1   30 1
     3    1   31 1
     4    1   32 1
     5    2    7 ar
     6    2    3 ar
     7    3    4 ar
     8    3   33 1
     9    4    5 ar
    10    4   34 1
    11    5    6 ar
    12    5   29 1
    13    6    7 ar
    14    6    8 1
    15    7   35 1
    16    8    9 am
    17    8   36 1
    18    9   10 2
    19    9   11 am
    20   11   12 1
    21   11   37 1
    22   12   17 ar
    23   12   13 ar
    24   13   14 ar
    25   13   38 1
    26   14   15 ar
    27   14   39 1
    28   15   16 ar
    29   15   18 1
    30   16   17 ar
    31   16   40 1
    32   17   41 1
    33   18   23 ar
    34   18   19 ar
    35   19   20 ar
    36   19   42 1
    37   20   21 ar
    38   20   43 1
    39   21   22 ar
    40   21   44 1
    41   22   26 1
    42   22   23 ar
    43   23   24 1
    44   24   25 2
    45   24   28 1
    46   25   26 1
    47   26   27 1
    48   28   45 1
    49   28   46 1
@<TRIPOS>MOLECULE
ZINC03834198
   55    58     0     0     0
SMALL
USER_CHARGES

@<TRIPOS>ATOM
      1 C1          2.2102    1.3214   -1.5438 C.3       1 <0>        -0.0473
      2 N1          2.0302   -0.1310   -1.4177 N.4       1 <0>        -0.3861
      3 C2          2.8485   -0.8135   -2.4272 C.3       1 <0>        -0.0039
      4 C3          2.6029   -2.3220   -2.3537 C.3       1 <0>        -0.1426
      5 C4          2.9828   -2.8281   -0.9591 C.3       1 <0>        -0.0980
      6 C5          2.1768   -2.0570    0.0901 C.3       1 <0>        -0.1436
      7 C6          2.4382   -0.5583   -0.0740 C.3       1 <0>        -0.0065
      8 C7          2.6653   -4.3210   -0.8526 C.3       1 <0>         0.0553
      9 O1          3.1265   -4.8175    0.4056 O.3       1 <0>        -0.2959
     10 C8          2.9210   -6.1358    0.6612 C.ar      1 <0>         0.1621
     11 C9          2.2972   -6.9233   -0.2811 C.ar      1 <0>        -0.1791
     12 C10         2.0867   -8.2816   -0.0149 C.ar      1 <0>         0.2018
     13 C11         2.5192   -8.8246    1.2204 C.ar      1 <0>        -0.1784
     14 C12         3.1508   -8.0026    2.1612 C.ar      1 <0>        -0.1424
     15 C13         3.3512   -6.6812    1.8787 C.ar      1 <0>         0.1099
     16 O2          3.9702   -5.8850    2.7909 O.3       1 <0>        -0.3030
     17 C14         4.3854   -6.4992    4.0125 C.3       1 <0>         0.0198
     18 C15         2.2930  -10.2009    1.4605 C.ar      1 <0>         0.4667
     19 N2          1.6881  -10.9114    0.5174 N.ar      1 <0>        -0.5768
     20 C16         1.3012  -10.3606   -0.6222 C.ar      1 <0>         0.3478
     21 N3          1.4842   -9.0917   -0.8996 N.ar      1 <0>        -0.5414
     22 N4          2.6915  -10.7885    2.6441 N.pl3     1 <0>        -0.6296
     23 C17         2.5831  -12.1741    2.8088 C.ar      1 <0>         0.1376
     24 C18         2.4560  -12.9987    1.6992 C.ar      1 <0>        -0.1039
     25 C19         2.3491  -14.3660    1.8644 C.ar      1 <0>        -0.0732
     26 C20         2.3685  -14.9152    3.1341 C.ar      1 <0>        -0.0857
     27 C21         2.4949  -14.0974    4.2430 C.ar      1 <0>        -0.1007
     28 C22         2.6081  -12.7284    4.0841 C.ar      1 <0>         0.0686
     29 F1          2.7372  -11.9301    5.1664 F         1 <0>        -0.1332
     30 Br1         2.2212  -16.7875    3.3546 Br        1 <0>        -0.0295
     31 H1          3.2589    1.5727   -1.3848 H         1 <0>         0.1219
     32 H2          1.9075    1.6398   -2.5414 H         1 <0>         0.1242
     33 H3          1.5979    1.8295   -0.7989 H         1 <0>         0.1242
     34 H4          2.5792   -0.4499   -3.4189 H         1 <0>         0.1343
     35 H5          3.9024   -0.6078   -2.2397 H         1 <0>         0.1306
     36 H6          1.5493   -2.5288   -2.5414 H         1 <0>         0.0934
     37 H7          3.2127   -2.8271   -3.1028 H         1 <0>         0.1176
     38 H8          4.0478   -2.6678   -0.7908 H         1 <0>         0.1030
     39 H9          1.1143   -2.2583   -0.0469 H         1 <0>         0.0893
     40 H10         2.4820   -2.3726    1.0878 H         1 <0>         0.1210
     41 H11         3.5008   -0.3580    0.0634 H         1 <0>         0.1299
     42 H12         1.8660   -0.0063    0.6716 H         1 <0>         0.1325
     43 H13         1.5883   -4.4698   -0.9292 H         1 <0>         0.0742
     44 H14         3.1645   -4.8571   -1.6597 H         1 <0>         0.0787
     45 H15         1.9724   -6.4960   -1.2182 H         1 <0>         0.1540
     46 H16         3.4818   -8.4122    3.1042 H         1 <0>         0.1414
     47 H17         4.8638   -5.7549    4.6491 H         1 <0>         0.1093
     48 H18         3.5165   -6.9116    4.5254 H         1 <0>         0.0597
     49 H19         5.0925   -7.2996    3.7947 H         1 <0>         0.0600
     50 H20         0.8133  -10.9840   -1.3569 H         1 <0>         0.2036
     51 H21         3.0467  -10.2411    3.3618 H         1 <0>         0.4241
     52 H22         2.4404  -12.5714    0.7074 H         1 <0>         0.1818
     53 H23         2.2499  -15.0072    1.0010 H         1 <0>         0.1463
     54 H24         2.5094  -14.5289    5.2329 H         1 <0>         0.1515
     55 H25         1.0589   -0.3624   -1.5626 H         1 <0>         0.4246
@<TRIPOS>BOND
     1    1    2 1
     2    1   31 1
     3    1   32 1
     4    1   33 1
     5    2    7 1
     6    2    3 1
     7    2   55 1
     8    3    4 1
     9    3   34 1
    10    3   35 1
    11    4    5 1
    12    4   36 1
    13    4   37 1
    14    5    6 1
    15    5    8 1
    16    5   38 1
    17    6    7 1
    18    6   39 1
    19    6   40 1
    20    7   41 1
    21    7   42 1
    22    8    9 1
    23    8   43 1
    24    8   44 1
    25    9   10 1
    26   10   15 ar
    27   10   11 ar
    28   11   12 ar
    29   11   45 1
    30   12   21 ar
    31   12   13 ar
    32   13   14 ar
    33   13   18 ar
    34   14   15 ar
    35   14   46 1
    36   15   16 1
    37   16   17 1
    38   17   47 1
    39   17   48 1
    40   17   49 1
    41   18   19 ar
    42   18   22 1
    43   19   20 ar
    44   20   21 ar
    45   20   50 1
    46   22   23 1
    47   22   51 1
    48   23   28 ar
    49   23   24 ar
    50   24   25 ar
    51   24   52 1
    52   25   26 ar
    53   25   53 1
    54   26   27 ar
    55   26   30 1
    56   27   28 ar
    57   27   54 1
    58   28   29 1
@<TRIPOS>MOLECULE
ZINC12410091
   32    34     0     0     0
SMALL
USER_CHARGES

@<TRIPOS>ATOM
      1 C1         -1.1178    0.9648   -0.0829 C.3       1 <0>        -0.0893
      2 C2         -0.2110   -0.2369   -0.0149 C.2       1 <0>        -0.0965
      3 C3          0.2945   -0.9575   -1.0985 C.2       1 <0>        -0.2107
      4 C4          1.0666   -1.9603   -0.6105 C.2       1 <0>         0.0646
      5 N1          1.0661   -1.8976    0.7449 N.pl3     1 <0>        -0.5091
      6 H1          1.5402   -2.4998    1.3395 H         1 <0>         0.4188
      7 C5          0.2839   -0.8320    1.1355 C.2       1 <0>        -0.0205
      8 C6          0.0313   -0.4237    2.4614 C.2       1 <0>         0.0819
      9 C7         -0.0507   -1.3643    3.4702 C.2       1 <0>        -0.2071
     10 C8         -0.1650   -1.1166    4.9246 C.ar      1 <0>        -0.0949
     11 C9         -0.2226    0.0414    5.6934 C.ar      1 <0>        -0.0678
     12 C10        -0.3314   -0.0533    7.0660 C.ar      1 <0>        -0.1377
     13 C11        -0.3826   -1.2965    7.6746 C.ar      1 <0>        -0.0864
     14 C12        -0.3261   -2.4512    6.9211 C.ar      1 <0>        -0.1351
     15 C13        -0.2169   -2.3764    5.5367 C.ar      1 <0>         0.1361
     16 N2         -0.1424   -3.3615    4.5598 N.am      1 <0>        -0.6521
     17 C14        -0.0496   -2.8262    3.3306 C.2       1 <0>         0.5558
     18 O1          0.0255   -3.4453    2.2841 O.2       1 <0>        -0.5142
     19 C15         1.8050   -2.9793   -1.4395 C.3       1 <0>        -0.0930
     20 H2         -0.5157    1.8720   -0.1329 H         1 <0>         0.0696
     21 H3         -1.7460    0.8961   -0.9710 H         1 <0>         0.0689
     22 H4         -1.7478    0.9953    0.8062 H         1 <0>         0.0623
     23 H5          0.1040   -0.7529   -2.1417 H         1 <0>         0.1407
     24 H6         -0.0981    0.6243    2.6883 H         1 <0>         0.1527
     25 H7         -0.1820    1.0104    5.2182 H         1 <0>         0.1289
     26 H8         -0.3765    0.8433    7.6664 H         1 <0>         0.1307
     27 H9         -0.4670   -1.3628    8.7493 H         1 <0>         0.1317
     28 H10        -0.3669   -3.4147    7.4073 H         1 <0>         0.1271
     29 H11        -0.1589   -4.3141    4.7415 H         1 <0>         0.4170
     30 H12         2.8038   -2.6073   -1.6677 H         1 <0>         0.0754
     31 H13         1.8835   -3.9129   -0.8824 H         1 <0>         0.0673
     32 H14         1.2618   -3.1548   -2.3681 H         1 <0>         0.0848
@<TRIPOS>BOND
     1    1    2 1
     2    1   20 1
     3    1   21 1
     4    1   22 1
     5    2    7 2
     6    2    3 1
     7    3    4 2
     8    3   23 1
     9    4    5 1
    10    4   19 1
    11    5    6 1
    12    5    7 1
    13    7    8 1
    14    8    9 2
    15    8   24 1
    16    9   17 1
    17    9   10 1
    18   10   15 ar
    19   10   11 ar
    20   11   12 ar
    21   11   25 1
    22   12   13 ar
    23   12   26 1
    24   13   14 ar
    25   13   27 1
    26   14   15 ar
    27   14   28 1
    28   15   16 1
    29   16   17 am
    30   16   29 1
    31   17   18 2
    32   19   30 1
    33   19   31 1
    34   19   32 1
@<TRIPOS>MOLECULE
ZINC22448983
   66    69     0     0     0
SMALL
USER_CHARGES
4-[(2,4-dichloro-5-methoxy-phenyl)amino]-6-methoxy-7-[3-(4-methylpiperazin-1-yl)propoxy]quinoline-3-carbonitrile
@<TRIPOS>ATOM
      1 C1        -10.0137   -6.5102   -1.8158 C.3       1 <0>        -0.0453
      2 N1         -8.6540   -6.0169   -1.5593 N.4       1 <0>        -0.4030
      3 C2         -7.7903   -6.2205   -2.7307 C.3       1 <0>        -0.0001
      4 C3         -6.3670   -5.7678   -2.3965 C.3       1 <0>         0.0245
      5 N2         -6.3862   -4.3530   -1.9994 N.3       1 <0>        -0.5385
      6 C4         -7.2499   -4.1494   -0.8281 C.3       1 <0>         0.0179
      7 C5         -8.6733   -4.6021   -1.1623 C.3       1 <0>         0.0000
      8 C6         -5.0265   -3.8597   -1.7430 C.3       1 <0>         0.0567
      9 C7         -5.0583   -2.3389   -1.5783 C.3       1 <0>        -0.1184
     10 C8         -3.6421   -1.8251   -1.3112 C.3       1 <0>         0.0518
     11 O1         -3.6719   -0.4047   -1.1574 O.3       1 <0>        -0.2957
     12 C9         -2.4875    0.2141   -0.9129 C.ar      1 <0>         0.1552
     13 C10        -1.3345   -0.5326   -0.8253 C.ar      1 <0>        -0.1775
     14 C11        -0.1099    0.1042   -0.5728 C.ar      1 <0>         0.1880
     15 C12        -0.0839    1.5107   -0.4123 C.ar      1 <0>        -0.1309
     16 C13        -1.2740    2.2476   -0.5007 C.ar      1 <0>        -0.1492
     17 C14        -2.4527    1.6062   -0.7522 C.ar      1 <0>         0.1113
     18 O2         -3.6043    2.3237   -0.8425 O.3       1 <0>        -0.3022
     19 C15        -3.5023    3.7385   -0.6693 C.3       1 <0>         0.0181
     20 C16         1.1518    2.1498   -0.1579 C.ar      1 <0>         0.3245
     21 C17         2.2996    1.3468   -0.0768 C.ar      1 <0>        -0.1668
     22 C18         2.1804   -0.0418   -0.2488 C.ar      1 <0>         0.2178
     23 N3          1.0238   -0.6069   -0.4836 N.ar      1 <0>        -0.5049
     24 C19         3.5791    1.9370    0.1785 C.1       1 <0>         0.2512
     25 N4          4.5940    2.4052    0.3811 N.1       1 <0>        -0.4037
     26 N5          1.2264    3.5186    0.0048 N.pl3     1 <0>        -0.6798
     27 C20         2.4372    4.1835   -0.2122 C.ar      1 <0>         0.1811
     28 C21         3.1043    4.7773    0.8508 C.ar      1 <0>        -0.1911
     29 C22         4.3041    5.4350    0.6325 C.ar      1 <0>         0.1715
     30 C23         4.8372    5.4992   -0.6482 C.ar      1 <0>        -0.0467
     31 C24         4.1721    4.9075   -1.7063 C.ar      1 <0>        -0.0516
     32 C25         2.9774    4.2459   -1.4914 C.ar      1 <0>        -0.0699
     33 Cl1         2.1481    3.4984   -2.8208 Cl        1 <0>        -0.0422
     34 Cl2         6.3403    6.3238   -0.9213 Cl        1 <0>        -0.0317
     35 O3          4.9590    6.0176    1.6716 O.3       1 <0>        -0.2942
     36 C26         4.4145    5.8149    2.9772 C.3       1 <0>         0.0202
     37 H1         -9.9701   -7.5691   -2.1104 H         1 <0>         0.1247
     38 H2        -10.4701   -5.9227   -2.6260 H         1 <0>         0.1201
     39 H3        -10.6190   -6.4082   -0.9030 H         1 <0>         0.1247
     40 H4         -7.7832   -7.2870   -3.0001 H         1 <0>         0.1368
     41 H5         -8.1745   -5.6313   -3.5764 H         1 <0>         0.1352
     42 H6         -5.9734   -6.3765   -1.5691 H         1 <0>         0.0623
     43 H7         -5.7253   -5.8927   -3.2811 H         1 <0>         0.1248
     44 H8         -6.8657   -4.7386    0.0176 H         1 <0>         0.0625
     45 H9         -7.2570   -3.0829   -0.5587 H         1 <0>         0.1270
     46 H10        -9.0676   -3.9944   -1.9901 H         1 <0>         0.1353
     47 H11        -9.3157   -4.4781   -0.2780 H         1 <0>         0.1365
     48 H12        -4.6368   -4.3201   -0.8231 H         1 <0>         0.0524
     49 H13        -4.3751   -4.1233   -2.5893 H         1 <0>         0.0947
     50 H14        -5.4480   -1.8786   -2.4982 H         1 <0>         0.0902
     51 H15        -5.7097   -2.0753   -0.7320 H         1 <0>         0.0766
     52 H16        -3.2525   -2.2855   -0.3913 H         1 <0>         0.0692
     53 H17        -2.9907   -2.0887   -2.1575 H         1 <0>         0.0725
     54 H18        -1.3723   -1.6047   -0.9499 H         1 <0>         0.1520
     55 H19        -1.2569    3.3205   -0.3782 H         1 <0>         0.1400
     56 H20        -4.4995    4.1926   -0.7662 H         1 <0>         0.1079
     57 H21        -2.8337    4.1546   -1.4373 H         1 <0>         0.0600
     58 H22        -3.0952    3.9573    0.3289 H         1 <0>         0.0585
     59 H23         3.0649   -0.6582   -0.1860 H         1 <0>         0.1683
     60 H24         0.3333    4.0863    0.3052 H         1 <0>         0.4433
     61 H25         2.6888    4.7264    1.8464 H         1 <0>         0.1497
     62 H26         4.5888    4.9585   -2.7013 H         1 <0>         0.1559
     63 H27         5.0369    6.3367    3.7191 H         1 <0>         0.1117
     64 H28         4.3977    4.7388    3.2044 H         1 <0>         0.0607
     65 H29         3.3898    6.2132    3.0130 H         1 <0>         0.0594
     66 H30        -8.2365   -6.5985   -0.7241 H         1 <0>         0.4406
@<TRIPOS>BOND
     1    1    2 1
     2    1   37 1
     3    1   38 1
     4    1   39 1
     5    2    7 1
     6    2    3 1
     7    2   66 1
     8    3    4 1
     9    3   40 1
    10    3   41 1
    11    4    5 1
    12    4   42 1
    13    4   43 1
    14    5    6 1
    15    5    8 1
    16    6    7 1
    17    6   44 1
    18    6   45 1
    19    7   46 1
    20    7   47 1
    21    8    9 1
    22    8   48 1
    23    8   49 1
    24    9   10 1
    25    9   50 1
    26    9   51 1
    27   10   11 1
    28   10   52 1
    29   10   53 1
    30   11   12 1
    31   12   17 ar
    32   12   13 ar
    33   13   14 ar
    34   13   54 1
    35   14   23 ar
    36   14   15 ar
    37   15   16 ar
    38   15   20 ar
    39   16   17 ar
    40   16   55 1
    41   17   18 1
    42   18   19 1
    43   19   56 1
    44   19   57 1
    45   19   58 1
    46   20   21 ar
    47   20   26 1
    48   21   22 ar
    49   21   24 1
    50   22   23 ar
    51   22   59 1
    52   24   25 3
    53   26   27 1
    54   26   60 1
    55   27   32 ar
    56   27   28 ar
    57   28   29 ar
    58   28   61 1
    59   29   30 ar
    60   29   35 1
    61   30   31 ar
    62   30   34 1
    63   31   32 ar
    64   31   62 1
    65   32   33 1
    66   35   36 1
    67   36   63 1
    68   36   64 1
    69   36   65 1
@<TRIPOS>MOLECULE
ZINC22448983
   66    69     0     0     0
SMALL
USER_CHARGES
4-[(2,4-dichloro-5-methoxy-phenyl)amino]-6-methoxy-7-[3-(4-methylpiperazin-1-yl)propoxy]quinoline-3-carbonitrile
@<TRIPOS>ATOM
      1 C1        -10.0137   -6.5102   -1.8158 C.3       1 <0>         0.0169
      2 N1         -8.6540   -6.0169   -1.5593 N.3       1 <0>        -0.5441
      3 C2         -7.7903   -6.2205   -2.7307 C.3       1 <0>         0.0228
      4 C3         -6.3670   -5.7678   -2.3965 C.3       1 <0>         0.0009
      5 N2         -6.3862   -4.3530   -1.9994 N.4       1 <0>        -0.3998
      6 C4         -7.2499   -4.1494   -0.8281 C.3       1 <0>        -0.0049
      7 C5         -8.6733   -4.6021   -1.1623 C.3       1 <0>         0.0237
      8 C6         -5.0265   -3.8597   -1.7430 C.3       1 <0>        -0.0032
      9 C7         -5.0583   -2.3389   -1.5783 C.3       1 <0>        -0.1498
     10 C8         -3.6421   -1.8251   -1.3112 C.3       1 <0>         0.0546
     11 O1         -3.6719   -0.4047   -1.1574 O.3       1 <0>        -0.2954
     12 C9         -2.4875    0.2141   -0.9129 C.ar      1 <0>         0.1508
     13 C10        -1.3345   -0.5326   -0.8253 C.ar      1 <0>        -0.1739
     14 C11        -0.1099    0.1042   -0.5728 C.ar      1 <0>         0.1865
     15 C12        -0.0839    1.5107   -0.4123 C.ar      1 <0>        -0.1289
     16 C13        -1.2740    2.2476   -0.5007 C.ar      1 <0>        -0.1461
     17 C14        -2.4527    1.6062   -0.7522 C.ar      1 <0>         0.1109
     18 O2         -3.6043    2.3237   -0.8425 O.3       1 <0>        -0.3036
     19 C15        -3.5023    3.7385   -0.6693 C.3       1 <0>         0.0176
     20 C16         1.1518    2.1498   -0.1579 C.ar      1 <0>         0.3244
     21 C17         2.2996    1.3468   -0.0768 C.ar      1 <0>        -0.1637
     22 C18         2.1804   -0.0418   -0.2488 C.ar      1 <0>         0.2201
     23 N3          1.0238   -0.6069   -0.4836 N.ar      1 <0>        -0.5059
     24 C19         3.5791    1.9370    0.1785 C.1       1 <0>         0.2491
     25 N4          4.5940    2.4052    0.3811 N.1       1 <0>        -0.4000
     26 N5          1.2264    3.5186    0.0048 N.pl3     1 <0>        -0.6785
     27 C20         2.4372    4.1835   -0.2122 C.ar      1 <0>         0.1791
     28 C21         3.1043    4.7773    0.8508 C.ar      1 <0>        -0.1908
     29 C22         4.3041    5.4350    0.6325 C.ar      1 <0>         0.1720
     30 C23         4.8372    5.4992   -0.6482 C.ar      1 <0>        -0.0462
     31 C24         4.1721    4.9075   -1.7063 C.ar      1 <0>        -0.0515
     32 C25         2.9774    4.2459   -1.4914 C.ar      1 <0>        -0.0696
     33 Cl1         2.1481    3.4984   -2.8208 Cl        1 <0>        -0.0433
     34 Cl2         6.3403    6.3238   -0.9213 Cl        1 <0>        -0.0302
     35 O3          4.9590    6.0176    1.6716 O.3       1 <0>        -0.2936
     36 C26         4.4145    5.8149    2.9772 C.3       1 <0>         0.0200
     37 H1         -9.9701   -7.5691   -2.1104 H         1 <0>         0.0846
     38 H2        -10.4701   -5.9227   -2.6260 H         1 <0>         0.0401
     39 H3        -10.6190   -6.4082   -0.9030 H         1 <0>         0.0850
     40 H4         -7.7832   -7.2870   -3.0001 H         1 <0>         0.1245
     41 H5         -8.1745   -5.6313   -3.5764 H         1 <0>         0.0612
     42 H6         -5.9734   -6.3765   -1.5691 H         1 <0>         0.1366
     43 H7         -5.7253   -5.8927   -3.2811 H         1 <0>         0.1378
     44 H8         -6.8657   -4.7386    0.0176 H         1 <0>         0.1367
     45 H9         -7.2570   -3.0829   -0.5587 H         1 <0>         0.1381
     46 H10        -9.0676   -3.9944   -1.9901 H         1 <0>         0.0613
     47 H11        -9.3157   -4.4781   -0.2780 H         1 <0>         0.1241
     48 H12        -4.6368   -4.3201   -0.8231 H         1 <0>         0.1339
     49 H13        -4.3751   -4.1233   -2.5893 H         1 <0>         0.1372
     50 H14        -5.4480   -1.8786   -2.4982 H         1 <0>         0.1006
     51 H15        -5.7097   -2.0753   -0.7320 H         1 <0>         0.0999
     52 H16        -3.2525   -2.2855   -0.3913 H         1 <0>         0.0789
     53 H17        -2.9907   -2.0887   -2.1575 H         1 <0>         0.0790
     54 H18        -1.3723   -1.6047   -0.9499 H         1 <0>         0.1517
     55 H19        -1.2569    3.3205   -0.3782 H         1 <0>         0.1413
     56 H20        -4.4995    4.1926   -0.7662 H         1 <0>         0.1090
     57 H21        -2.8337    4.1546   -1.4373 H         1 <0>         0.0608
     58 H22        -3.0952    3.9573    0.3289 H         1 <0>         0.0597
     59 H23         3.0649   -0.6582   -0.1860 H         1 <0>         0.1696
     60 H24         0.3333    4.0863    0.3052 H         1 <0>         0.4436
     61 H25         2.6888    4.7264    1.8464 H         1 <0>         0.1501
     62 H26         4.5888    4.9585   -2.7013 H         1 <0>         0.1563
     63 H27         5.0369    6.3367    3.7191 H         1 <0>         0.1123
     64 H28         4.3977    4.7388    3.2044 H         1 <0>         0.0608
     65 H29         3.3898    6.2132    3.0130 H         1 <0>         0.0596
     66 H30        -6.8037   -3.7713   -2.8345 H         1 <0>         0.4393
@<TRIPOS>BOND
     1    1    2 1
     2    1   37 1
     3    1   38 1
     4    1   39 1
     5    2    7 1
     6    2    3 1
     7    3    4 1
     8    3   40 1
     9    3   41 1
    10    4    5 1
    11    4   42 1
    12    4   43 1
    13    5    6 1
    14    5    8 1
    15    5   66 1
    16    6    7 1
    17    6   44 1
    18    6   45 1
    19    7   46 1
    20    7   47 1
    21    8    9 1
    22    8   48 1
    23    8   49 1
    24    9   10 1
    25    9   50 1
    26    9   51 1
    27   10   11 1
    28   10   52 1
    29   10   53 1
    30   11   12 1
    31   12   17 ar
    32   12   13 ar
    33   13   14 ar
    34   13   54 1
    35   14   23 ar
    36   14   15 ar
    37   15   16 ar
    38   15   20 ar
    39   16   17 ar
    40   16   55 1
    41   17   18 1
    42   18   19 1
    43   19   56 1
    44   19   57 1
    45   19   58 1
    46   20   21 ar
    47   20   26 1
    48   21   22 ar
    49   21   24 1
    50   22   23 ar
    51   22   59 1
    52   24   25 3
    53   26   27 1
    54   26   60 1
    55   27   32 ar
    56   27   28 ar
    57   28   29 ar
    58   28   61 1
    59   29   30 ar
    60   29   35 1
    61   30   31 ar
    62   30   34 1
    63   31   32 ar
    64   31   62 1
    65   32   33 1
    66   35   36 1
    67   36   63 1
    68   36   64 1
    69   36   65 1
@<TRIPOS>MOLECULE
ZINC22935274
   60    64     0     0     0
SMALL
USER_CHARGES
5-(1,3-benzodioxol-5-yl)-N-[4-[(4-methylpiperazin-1-yl)methyl]phenyl]-2-oxo-1H-pyridine-3-carboxamide
@<TRIPOS>ATOM
      1 C1          5.4583   -2.6631   -5.0582 C.3       1 <0>        -0.0450
      2 N1          5.0314   -2.4533   -3.6684 N.4       1 <0>        -0.4025
      3 C2          5.9495   -1.5451   -2.9669 C.3       1 <0>         0.0005
      4 C3          5.5165   -1.4157   -1.5046 C.3       1 <0>         0.0236
      5 N2          4.1369   -0.9127   -1.4476 N.3       1 <0>        -0.5344
      6 C4          3.2188   -1.8209   -2.1491 C.3       1 <0>         0.0187
      7 C5          3.6518   -1.9503   -3.6114 C.3       1 <0>         0.0006
      8 C6          3.7100   -0.7029   -0.0577 C.3       1 <0>         0.1012
      9 C7          2.3972    0.0369   -0.0416 C.ar      1 <0>        -0.1204
     10 C8          1.2077   -0.6682   -0.0575 C.ar      1 <0>        -0.0978
     11 C9          0.0029    0.0067   -0.0423 C.ar      1 <0>        -0.1473
     12 C10        -0.0132    1.3952   -0.0112 C.ar      1 <0>         0.1708
     13 C11         1.1833    2.1003    0.0046 C.ar      1 <0>        -0.1267
     14 C12         2.3847    1.4193   -0.0106 C.ar      1 <0>        -0.0741
     15 N3         -1.2315    2.0818   -0.0016 N.am      1 <0>        -0.6801
     16 C13        -1.3531    3.2289    0.6955 C.2       1 <0>         0.5839
     17 O1         -0.3803    3.7156    1.2403 O.2       1 <0>        -0.5323
     18 C14        -2.6619    3.8922    0.7977 C.2       1 <0>        -0.2866
     19 C15        -2.7759    5.1396    1.4032 C.2       1 <0>         0.0902
     20 C16        -4.0435    5.7410    1.4810 C.2       1 <0>        -0.1684
     21 C17        -5.1423    5.0907    0.9608 C.2       1 <0>         0.1974
     22 N4         -5.0213    3.8823    0.3762 N.am      1 <0>        -0.6017
     23 H1         -5.9097    3.3760   -0.0293 H         1 <0>         0.4581
     24 C18        -3.8263    3.2720    0.2748 C.2       1 <0>         0.5380
     25 O2         -3.7446    2.1813   -0.2631 O.2       1 <0>        -0.5490
     26 C19        -4.1990    7.0711    2.1212 C.ar      1 <0>        -0.0342
     27 C20        -3.9421    7.2249    3.4820 C.ar      1 <0>        -0.0881
     28 C21        -4.0864    8.4620    4.0764 C.ar      1 <0>        -0.0967
     29 C22        -4.4875    9.5549    3.3232 C.ar      1 <0>         0.0422
     30 C23        -4.7462    9.4064    1.9619 C.ar      1 <0>         0.0357
     31 C24        -4.5965    8.1690    1.3614 C.ar      1 <0>        -0.0872
     32 O3         -5.1203   10.6174    1.4543 O.3       1 <0>        -0.3088
     33 C25        -5.4831   11.4169    2.5955 C.3       1 <0>         0.2084
     34 O4         -4.6998   10.8592    3.6671 O.3       1 <0>        -0.3018
     35 H2          6.4921   -3.0388   -5.0715 H         1 <0>         0.1241
     36 H3          5.4075   -1.7101   -5.6052 H         1 <0>         0.1195
     37 H4          4.7950   -3.3975   -5.5386 H         1 <0>         0.1240
     38 H5          6.9716   -1.9491   -3.0133 H         1 <0>         0.1356
     39 H6          5.9243   -0.5556   -3.4467 H         1 <0>         0.1345
     40 H7          5.5690   -2.4009   -1.0181 H         1 <0>         0.0605
     41 H8          6.1854   -0.7140   -0.9848 H         1 <0>         0.1237
     42 H9          3.2441   -2.8104   -1.6692 H         1 <0>         0.0599
     43 H10         2.1967   -1.4169   -2.1027 H         1 <0>         0.1280
     44 H11         3.6002   -0.9654   -4.0986 H         1 <0>         0.1343
     45 H12         2.9838   -2.6523   -4.1319 H         1 <0>         0.1350
     46 H13         3.5883   -1.6766    0.4394 H         1 <0>         0.0541
     47 H14         4.4703   -0.1122    0.4742 H         1 <0>         0.0958
     48 H15         1.2209   -1.7479   -0.0813 H         1 <0>         0.1194
     49 H16        -0.9257   -0.5446   -0.0543 H         1 <0>         0.1272
     50 H17         1.1742    3.1800    0.0285 H         1 <0>         0.1412
     51 H18         3.3154    1.9671    0.0016 H         1 <0>         0.1244
     52 H19        -2.0905    1.6857   -0.5630 H         1 <0>         0.4489
     53 H20        -1.9060    5.6366    1.8065 H         1 <0>         0.1555
     54 H21        -6.1147    5.5564    1.0231 H         1 <0>         0.1800
     55 H22        -3.6295    6.3758    4.0716 H         1 <0>         0.1420
     56 H23        -3.8861    8.5793    5.1312 H         1 <0>         0.1417
     57 H24        -4.7916    8.0534    0.3055 H         1 <0>         0.1378
     58 H25        -5.2319   12.4699    2.4003 H         1 <0>         0.1373
     59 H26        -6.5639   11.3257    2.7785 H         1 <0>         0.0896
     60 H27         5.0594   -3.4267   -3.1569 H         1 <0>         0.4399
@<TRIPOS>BOND
     1    1    2 1
     2    1   35 1
     3    1   36 1
     4    1   37 1
     5    2    7 1
     6    2    3 1
     7    2   60 1
     8    3    4 1
     9    3   38 1
    10    3   39 1
    11    4    5 1
    12    4   40 1
    13    4   41 1
    14    5    6 1
    15    5    8 1
    16    6    7 1
    17    6   42 1
    18    6   43 1
    19    7   44 1
    20    7   45 1
    21    8    9 1
    22    8   46 1
    23    8   47 1
    24    9   14 ar
    25    9   10 ar
    26   10   11 ar
    27   10   48 1
    28   11   12 ar
    29   11   49 1
    30   12   13 ar
    31   12   15 1
    32   13   14 ar
    33   13   50 1
    34   14   51 1
    35   15   16 am
    36   15   52 1
    37   16   17 2
    38   16   18 1
    39   18   24 1
    40   18   19 2
    41   19   20 1
    42   19   53 1
    43   20   21 2
    44   20   26 1
    45   21   22 1
    46   21   54 1
    47   22   23 1
    48   22   24 am
    49   24   25 2
    50   26   31 ar
    51   26   27 ar
    52   27   28 ar
    53   27   55 1
    54   28   29 ar
    55   28   56 1
    56   29   34 1
    57   29   30 ar
    58   30   31 ar
    59   30   32 1
    60   31   57 1
    61   32   33 1
    62   33   34 1
    63   33   58 1
    64   33   59 1
@<TRIPOS>MOLECULE
ZINC22935274
   60    64     0     0     0
SMALL
USER_CHARGES
5-(1,3-benzodioxol-5-yl)-N-[4-[(4-methylpiperazin-1-yl)methyl]phenyl]-2-oxo-1H-pyridine-3-carboxamide
@<TRIPOS>ATOM
      1 C1          5.4583   -2.6631   -5.0582 C.3       1 <0>         0.0173
      2 N1          5.0314   -2.4533   -3.6684 N.3       1 <0>        -0.5437
      3 C2          5.9495   -1.5451   -2.9669 C.3       1 <0>         0.0235
      4 C3          5.5165   -1.4157   -1.5046 C.3       1 <0>         0.0000
      5 N2          4.1369   -0.9127   -1.4476 N.4       1 <0>        -0.3995
      6 C4          3.2188   -1.8209   -2.1491 C.3       1 <0>        -0.0031
      7 C5          3.6518   -1.9503   -3.6114 C.3       1 <0>         0.0252
      8 C6          3.7100   -0.7029   -0.0577 C.3       1 <0>         0.0523
      9 C7          2.3972    0.0369   -0.0416 C.ar      1 <0>        -0.1893
     10 C8          1.2077   -0.6682   -0.0575 C.ar      1 <0>        -0.0731
     11 C9          0.0029    0.0067   -0.0423 C.ar      1 <0>        -0.1472
     12 C10        -0.0132    1.3952   -0.0112 C.ar      1 <0>         0.2000
     13 C11         1.1833    2.1003    0.0046 C.ar      1 <0>        -0.1293
     14 C12         2.3847    1.4193   -0.0106 C.ar      1 <0>        -0.0716
     15 N3         -1.2315    2.0818   -0.0016 N.am      1 <0>        -0.6823
     16 C13        -1.3531    3.2289    0.6955 C.2       1 <0>         0.5882
     17 O1         -0.3803    3.7156    1.2403 O.2       1 <0>        -0.5294
     18 C14        -2.6619    3.8922    0.7977 C.2       1 <0>        -0.2932
     19 C15        -2.7759    5.1396    1.4032 C.2       1 <0>         0.0952
     20 C16        -4.0435    5.7410    1.4810 C.2       1 <0>        -0.1684
     21 C17        -5.1423    5.0907    0.9608 C.2       1 <0>         0.2020
     22 N4         -5.0213    3.8823    0.3762 N.am      1 <0>        -0.6009
     23 H1         -5.9097    3.3760   -0.0293 H         1 <0>         0.4600
     24 C18        -3.8263    3.2720    0.2748 C.2       1 <0>         0.5392
     25 O2         -3.7446    2.1813   -0.2631 O.2       1 <0>        -0.5501
     26 C19        -4.1990    7.0711    2.1212 C.ar      1 <0>        -0.0366
     27 C20        -3.9421    7.2249    3.4820 C.ar      1 <0>        -0.0880
     28 C21        -4.0864    8.4620    4.0764 C.ar      1 <0>        -0.0968
     29 C22        -4.4875    9.5549    3.3232 C.ar      1 <0>         0.0436
     30 C23        -4.7462    9.4064    1.9619 C.ar      1 <0>         0.0363
     31 C24        -4.5965    8.1690    1.3614 C.ar      1 <0>        -0.0871
     32 O3         -5.1203   10.6174    1.4543 O.3       1 <0>        -0.3085
     33 C25        -5.4831   11.4169    2.5955 C.3       1 <0>         0.2083
     34 O4         -4.6998   10.8592    3.6671 O.3       1 <0>        -0.3014
     35 H2          6.4921   -3.0388   -5.0715 H         1 <0>         0.0838
     36 H3          5.4075   -1.7101   -5.6052 H         1 <0>         0.0391
     37 H4          4.7950   -3.3975   -5.5386 H         1 <0>         0.0841
     38 H5          6.9716   -1.9491   -3.0133 H         1 <0>         0.1230
     39 H6          5.9243   -0.5556   -3.4467 H         1 <0>         0.0599
     40 H7          5.5690   -2.4009   -1.0181 H         1 <0>         0.1351
     41 H8          6.1854   -0.7140   -0.9848 H         1 <0>         0.1361
     42 H9          3.2441   -2.8104   -1.6692 H         1 <0>         0.1338
     43 H10         2.1967   -1.4169   -2.1027 H         1 <0>         0.1364
     44 H11         3.6002   -0.9654   -4.0986 H         1 <0>         0.0595
     45 H12         2.9838   -2.6523   -4.1319 H         1 <0>         0.1220
     46 H13         3.5883   -1.6766    0.4394 H         1 <0>         0.1318
     47 H14         4.4703   -0.1122    0.4742 H         1 <0>         0.1358
     48 H15         1.2209   -1.7479   -0.0813 H         1 <0>         0.1321
     49 H16        -0.9257   -0.5446   -0.0543 H         1 <0>         0.1372
     50 H17         1.1742    3.1800    0.0285 H         1 <0>         0.1492
     51 H18         3.3154    1.9671    0.0016 H         1 <0>         0.1315
     52 H19        -2.0905    1.6857   -0.5630 H         1 <0>         0.4536
     53 H20        -1.9060    5.6366    1.8065 H         1 <0>         0.1561
     54 H21        -6.1147    5.5564    1.0231 H         1 <0>         0.1816
     55 H22        -3.6295    6.3758    4.0716 H         1 <0>         0.1417
     56 H23        -3.8861    8.5793    5.1312 H         1 <0>         0.1420
     57 H24        -4.7916    8.0534    0.3055 H         1 <0>         0.1380
     58 H25        -5.2319   12.4699    2.4003 H         1 <0>         0.1380
     59 H26        -6.5639   11.3257    2.7785 H         1 <0>         0.0902
     60 H27         4.1089    0.0607   -1.9592 H         1 <0>         0.4366
@<TRIPOS>BOND
     1    1    2 1
     2    1   35 1
     3    1   36 1
     4    1   37 1
     5    2    7 1
     6    2    3 1
     7    3    4 1
     8    3   38 1
     9    3   39 1
    10    4    5 1
    11    4   40 1
    12    4   41 1
    13    5    6 1
    14    5    8 1
    15    5   60 1
    16    6    7 1
    17    6   42 1
    18    6   43 1
    19    7   44 1
    20    7   45 1
    21    8    9 1
    22    8   46 1
    23    8   47 1
    24    9   14 ar
    25    9   10 ar
    26   10   11 ar
    27   10   48 1
    28   11   12 ar
    29   11   49 1
    30   12   13 ar
    31   12   15 1
    32   13   14 ar
    33   13   50 1
    34   14   51 1
    35   15   16 am
    36   15   52 1
    37   16   17 2
    38   16   18 1
    39   18   24 1
    40   18   19 2
    41   19   20 1
    42   19   53 1
    43   20   21 2
    44   20   26 1
    45   21   22 1
    46   21   54 1
    47   22   23 1
    48   22   24 am
    49   24   25 2
    50   26   31 ar
    51   26   27 ar
    52   27   28 ar
    53   27   55 1
    54   28   29 ar
    55   28   56 1
    56   29   34 1
    57   29   30 ar
    58   30   31 ar
    59   30   32 1
    60   31   57 1
    61   32   33 1
    62   33   34 1
    63   33   58 1
    64   33   59 1
@<TRIPOS>MOLECULE
ZINC22935274
   59    63     0     0     0
SMALL
USER_CHARGES
5-(1,3-benzodioxol-5-yl)-N-[4-[(4-methylpiperazin-1-yl)methyl]phenyl]-2-oxo-1H-pyridine-3-carboxamide
@<TRIPOS>ATOM
      1 C1          5.4583   -2.6631   -5.0582 C.3       1 <0>         0.0226
      2 N1          5.0314   -2.4533   -3.6684 N.3       1 <0>        -0.5460
      3 C2          5.9495   -1.5451   -2.9669 C.3       1 <0>         0.0551
      4 C3          5.5165   -1.4157   -1.5046 C.3       1 <0>         0.0553
      5 N2          4.1369   -0.9127   -1.4476 N.3       1 <0>        -0.5338
      6 C4          3.2188   -1.8209   -2.1491 C.3       1 <0>         0.0528
      7 C5          3.6518   -1.9503   -3.6114 C.3       1 <0>         0.0554
      8 C6          3.7100   -0.7029   -0.0577 C.3       1 <0>         0.0962
      9 C7          2.3972    0.0369   -0.0416 C.ar      1 <0>        -0.0980
     10 C8          1.2077   -0.6682   -0.0575 C.ar      1 <0>        -0.0957
     11 C9          0.0029    0.0067   -0.0423 C.ar      1 <0>        -0.1459
     12 C10        -0.0132    1.3952   -0.0112 C.ar      1 <0>         0.1543
     13 C11         1.1833    2.1003    0.0046 C.ar      1 <0>        -0.1261
     14 C12         2.3847    1.4193   -0.0106 C.ar      1 <0>        -0.0795
     15 N3         -1.2315    2.0818   -0.0016 N.am      1 <0>        -0.6756
     16 C13        -1.3531    3.2289    0.6955 C.2       1 <0>         0.5792
     17 O1         -0.3803    3.7156    1.2403 O.2       1 <0>        -0.5343
     18 C14        -2.6619    3.8922    0.7977 C.2       1 <0>        -0.2776
     19 C15        -2.7759    5.1396    1.4032 C.2       1 <0>         0.0842
     20 C16        -4.0435    5.7410    1.4810 C.2       1 <0>        -0.1704
     21 C17        -5.1423    5.0907    0.9608 C.2       1 <0>         0.1928
     22 N4         -5.0213    3.8823    0.3762 N.am      1 <0>        -0.6027
     23 H1         -5.9097    3.3760   -0.0293 H         1 <0>         0.4562
     24 C18        -3.8263    3.2720    0.2748 C.2       1 <0>         0.5362
     25 O2         -3.7446    2.1813   -0.2631 O.2       1 <0>        -0.5439
     26 C19        -4.1990    7.0711    2.1212 C.ar      1 <0>        -0.0293
     27 C20        -3.9421    7.2249    3.4820 C.ar      1 <0>        -0.0884
     28 C21        -4.0864    8.4620    4.0764 C.ar      1 <0>        -0.0964
     29 C22        -4.4875    9.5549    3.3232 C.ar      1 <0>         0.0392
     30 C23        -4.7462    9.4064    1.9619 C.ar      1 <0>         0.0348
     31 C24        -4.5965    8.1690    1.3614 C.ar      1 <0>        -0.0872
     32 O3         -5.1203   10.6174    1.4543 O.3       1 <0>        -0.3092
     33 C25        -5.4831   11.4169    2.5955 C.3       1 <0>         0.2087
     34 O4         -4.6998   10.8592    3.6671 O.3       1 <0>        -0.3029
     35 H2          6.4921   -3.0388   -5.0715 H         1 <0>         0.0692
     36 H3          5.4075   -1.7101   -5.6052 H         1 <0>         0.0266
     37 H4          4.7950   -3.3975   -5.5386 H         1 <0>         0.0693
     38 H5          6.9716   -1.9491   -3.0133 H         1 <0>         0.0803
     39 H6          5.9243   -0.5556   -3.4467 H         1 <0>         0.0430
     40 H7          5.5690   -2.4009   -1.0181 H         1 <0>         0.0433
     41 H8          6.1854   -0.7140   -0.9848 H         1 <0>         0.0814
     42 H9          3.2441   -2.8104   -1.6692 H         1 <0>         0.0415
     43 H10         2.1967   -1.4169   -2.1027 H         1 <0>         0.0862
     44 H11         3.6002   -0.9654   -4.0986 H         1 <0>         0.0426
     45 H12         2.9838   -2.6523   -4.1319 H         1 <0>         0.0793
     46 H13         3.5883   -1.6766    0.4394 H         1 <0>         0.0436
     47 H14         4.4703   -0.1122    0.4742 H         1 <0>         0.0839
     48 H15         1.2209   -1.7479   -0.0813 H         1 <0>         0.1208
     49 H16        -0.9257   -0.5446   -0.0543 H         1 <0>         0.1237
     50 H17         1.1742    3.1800    0.0285 H         1 <0>         0.1373
     51 H18         3.3154    1.9671    0.0016 H         1 <0>         0.1232
     52 H19        -2.0905    1.6857   -0.5630 H         1 <0>         0.4465
     53 H20        -1.9060    5.6366    1.8065 H         1 <0>         0.1549
     54 H21        -6.1147    5.5564    1.0231 H         1 <0>         0.1776
     55 H22        -3.6295    6.3758    4.0716 H         1 <0>         0.1426
     56 H23        -3.8861    8.5793    5.1312 H         1 <0>         0.1409
     57 H24        -4.7916    8.0534    0.3055 H         1 <0>         0.1380
     58 H25        -5.2319   12.4699    2.4003 H         1 <0>         0.1358
     59 H26        -6.5639   11.3257    2.7785 H         1 <0>         0.0880
@<TRIPOS>BOND
     1    1    2 1
     2    1   35 1
     3    1   36 1
     4    1   37 1
     5    2    7 1
     6    2    3 1
     7    3    4 1
     8    3   38 1
     9    3   39 1
    10    4    5 1
    11    4   40 1
    12    4   41 1
    13    5    6 1
    14    5    8 1
    15    6    7 1
    16    6   42 1
    17    6   43 1
    18    7   44 1
    19    7   45 1
    20    8    9 1
    21    8   46 1
    22    8   47 1
    23    9   14 ar
    24    9   10 ar
    25   10   11 ar
    26   10   48 1
    27   11   12 ar
    28   11   49 1
    29   12   13 ar
    30   12   15 1
    31   13   14 ar
    32   13   50 1
    33   14   51 1
    34   15   16 am
    35   15   52 1
    36   16   17 2
    37   16   18 1
    38   18   24 1
    39   18   19 2
    40   19   20 1
    41   19   53 1
    42   20   21 2
    43   20   26 1
    44   21   22 1
    45   21   54 1
    46   22   23 1
    47   22   24 am
    48   24   25 2
    49   26   31 ar
    50   26   27 ar
    51   27   28 ar
    52   27   55 1
    53   28   29 ar
    54   28   56 1
    55   29   34 1
    56   29   30 ar
    57   30   31 ar
    58   30   32 1
    59   31   57 1
    60   32   33 1
    61   33   34 1
    62   33   58 1
    63   33   59 1
@<TRIPOS>MOLECULE
ZINC04302693
   34    36     0     0     0
SMALL
USER_CHARGES
3-[(2-ethyl-5-methyl-3H-imidazol-4-yl)methylene]indolin-2-one
@<TRIPOS>ATOM
      1 C1         -1.7490    1.3998    0.8610 C.3       1 <0>        -0.1428
      2 C2         -2.0673    1.2527    2.3503 C.3       1 <0>        -0.0420
      3 C3         -0.8034    0.9289    3.1045 C.2       1 <0>         0.2472
      4 N1         -0.3213    1.6279    4.1491 N.pl3     1 <0>        -0.5260
      5 H1         -0.7297    2.4445    4.5570 H         1 <0>         0.4304
      6 C4          0.8455    1.0037    4.5518 C.2       1 <0>        -0.0549
      7 C5          1.0194   -0.0705    3.6962 C.2       1 <0>         0.0776
      8 N2         -0.0021   -0.0721    2.8413 N.2       1 <0>        -0.4922
      9 C6          2.1569   -1.0585    3.7267 C.3       1 <0>        -0.0761
     10 C7          1.6905    1.3876    5.6153 C.2       1 <0>         0.0836
     11 C8          1.8368    2.7234    5.9334 C.2       1 <0>        -0.1988
     12 C9          2.5498    3.2993    7.0952 C.ar      1 <0>        -0.0970
     13 C10         3.2482    2.7382    8.1595 C.ar      1 <0>        -0.0659
     14 C11         3.8184    3.5581    9.1120 C.ar      1 <0>        -0.1373
     15 C12         3.6955    4.9339    9.0076 C.ar      1 <0>        -0.0845
     16 C13         3.0048    5.5003    7.9558 C.ar      1 <0>        -0.1346
     17 C14         2.4229    4.6907    6.9863 C.ar      1 <0>         0.1370
     18 N3          1.6876    4.9940    5.8470 N.am      1 <0>        -0.6510
     19 C15         1.3236    3.8807    5.1882 C.2       1 <0>         0.5565
     20 O1          0.6782    3.8385    4.1559 O.2       1 <0>        -0.5151
     21 H2         -1.3306    0.4662    0.4850 H         1 <0>         0.0693
     22 H3         -1.0266    2.2040    0.7216 H         1 <0>         0.0553
     23 H4         -2.6632    1.6341    0.3156 H         1 <0>         0.0649
     24 H5         -2.4857    2.1863    2.7264 H         1 <0>         0.0787
     25 H6         -2.7898    0.4486    2.4898 H         1 <0>         0.0932
     26 H7          2.9674   -0.6991    3.0926 H         1 <0>         0.0767
     27 H8          2.5167   -1.1669    4.7498 H         1 <0>         0.0730
     28 H9          1.8093   -2.0242    3.3596 H         1 <0>         0.0787
     29 H10         2.2227    0.6366    6.1803 H         1 <0>         0.1568
     30 H11         3.3442    1.6654    8.2398 H         1 <0>         0.1297
     31 H12         4.3614    3.1265    9.9398 H         1 <0>         0.1315
     32 H13         4.1443    5.5693    9.7568 H         1 <0>         0.1324
     33 H14         2.9159    6.5744    7.8854 H         1 <0>         0.1278
     34 H15         1.4688    5.8947    5.5612 H         1 <0>         0.4179
@<TRIPOS>BOND
     1    1    2 1
     2    1   21 1
     3    1   22 1
     4    1   23 1
     5    2    3 1
     6    2   24 1
     7    2   25 1
     8    3    8 2
     9    3    4 1
    10    4    5 1
    11    4    6 1
    12    6    7 2
    13    6   10 1
    14    7    8 1
    15    7    9 1
    16    9   26 1
    17    9   27 1
    18    9   28 1
    19   10   11 2
    20   10   29 1
    21   11   19 1
    22   11   12 1
    23   12   17 ar
    24   12   13 ar
    25   13   14 ar
    26   13   30 1
    27   14   15 ar
    28   14   31 1
    29   15   16 ar
    30   15   32 1
    31   16   17 ar
    32   16   33 1
    33   17   18 1
    34   18   19 am
    35   18   34 1
    36   19   20 2
@<TRIPOS>MOLECULE
ZINC02047743
   45    48     0     0     0
SMALL
USER_CHARGES
6-(2,6-dichlorophenyl)-8-methyl-2-[(3-methylsulfanylphenyl)amino]pyrido[6,5-d]pyrimidin-7-one
@<TRIPOS>ATOM
      1 C1         -3.2149    9.9478    6.3397 C.3       1 <0>         0.0697
      2 N1         -2.5718   10.5969    5.1946 N.am      1 <0>        -0.5056
      3 C2         -2.0976    9.8322    4.1588 C.ar      1 <0>         0.4667
      4 C3         -1.4757   10.4419    3.0477 C.ar      1 <0>        -0.2757
      5 C4         -1.3364   11.8476    2.9932 C.2       1 <0>         0.0302
      6 C5         -1.8127   12.6024    4.0314 C.2       1 <0>        -0.1631
      7 C6         -2.4525   11.9382    5.1691 C.2       1 <0>         0.5568
      8 O1         -2.8794   12.6023    6.0968 O.2       1 <0>        -0.5010
      9 C7         -1.6815   14.0779    4.0044 C.ar      1 <0>        -0.0104
     10 C8         -0.5524   14.6911    4.5489 C.ar      1 <0>        -0.0065
     11 C9         -0.4345   16.0668    4.5170 C.ar      1 <0>        -0.1064
     12 C10        -1.4368   16.8371    3.9553 C.ar      1 <0>        -0.0873
     13 C11        -2.5608   16.2358    3.4182 C.ar      1 <0>        -0.1064
     14 C12        -2.6891   14.8608    3.4397 C.ar      1 <0>        -0.0064
     15 Cl1        -4.1011   14.1082    2.7661 Cl        1 <0>        -0.0503
     16 Cl2         0.7038   13.7265    5.2597 Cl        1 <0>        -0.0500
     17 C13        -1.0042    9.6238    2.0101 C.ar      1 <0>         0.2643
     18 N2         -1.1563    8.3171    2.1171 N.ar      1 <0>        -0.5670
     19 C14        -1.7515    7.7784    3.1755 C.ar      1 <0>         0.6097
     20 N3         -2.2123    8.5091    4.1791 N.ar      1 <0>        -0.5950
     21 N4         -1.8899    6.4048    3.2340 N.pl3     1 <0>        -0.6257
     22 C15        -1.5197    5.6178    2.1394 C.ar      1 <0>         0.1772
     23 C16        -1.6834    6.1025    0.8470 C.ar      1 <0>        -0.1138
     24 C17        -1.3176    5.3259   -0.2354 C.ar      1 <0>        -0.0792
     25 C18        -0.7826    4.0675   -0.0375 C.ar      1 <0>        -0.1466
     26 C19        -0.6215    3.5742    1.2521 C.ar      1 <0>        -0.0629
     27 C20        -0.9883    4.3524    2.3421 C.ar      1 <0>        -0.1252
     28 S1          0.0539    1.9663    1.5035 S.3       1 <0>        -0.1153
     29 C21         0.3690    1.3552   -0.1751 C.3       1 <0>        -0.1440
     30 H1         -2.4636    9.7144    7.0942 H         1 <0>         0.0748
     31 H2         -3.9613   10.6184    6.7655 H         1 <0>         0.0924
     32 H3         -3.6983    9.0276    6.0115 H         1 <0>         0.0952
     33 H4         -0.8618   12.3189    2.1453 H         1 <0>         0.1508
     34 H5          0.4406   16.5425    4.9347 H         1 <0>         0.1438
     35 H6         -1.3415   17.9127    3.9363 H         1 <0>         0.1454
     36 H7         -3.3400   16.8429    2.9814 H         1 <0>         0.1438
     37 H8         -0.5227   10.0538    1.1443 H         1 <0>         0.1886
     38 H9         -2.2438    5.9866    4.0344 H         1 <0>         0.4277
     39 H10        -2.0974    7.0873    0.6888 H         1 <0>         0.1382
     40 H11        -1.4455    5.7052   -1.2385 H         1 <0>         0.1308
     41 H12        -0.4935    3.4647   -0.8857 H         1 <0>         0.1250
     42 H13        -0.8598    3.9737    3.3453 H         1 <0>         0.1313
     43 H14         0.7936    0.3527   -0.1231 H         1 <0>         0.1105
     44 H15         1.0700    2.0210   -0.6785 H         1 <0>         0.0855
     45 H16        -0.5673    1.3248   -0.7324 H         1 <0>         0.0854
@<TRIPOS>BOND
     1    1    2 1
     2    1   30 1
     3    1   31 1
     4    1   32 1
     5    2    7 am
     6    2    3 1
     7    3   20 ar
     8    3    4 ar
     9    4    5 1
    10    4   17 ar
    11    5    6 2
    12    5   33 1
    13    6    7 1
    14    6    9 1
    15    7    8 2
    16    9   14 ar
    17    9   10 ar
    18   10   11 ar
    19   10   16 1
    20   11   12 ar
    21   11   34 1
    22   12   13 ar
    23   12   35 1
    24   13   14 ar
    25   13   36 1
    26   14   15 1
    27   17   18 ar
    28   17   37 1
    29   18   19 ar
    30   19   20 ar
    31   19   21 1
    32   21   22 1
    33   21   38 1
    34   22   27 ar
    35   22   23 ar
    36   23   24 ar
    37   23   39 1
    38   24   25 ar
    39   24   40 1
    40   25   26 ar
    41   25   41 1
    42   26   27 ar
    43   26   28 1
    44   27   42 1
    45   28   29 1
    46   29   43 1
    47   29   44 1
    48   29   45 1
@<TRIPOS>MOLECULE
ZINC00009851
   37    39     0     0     0
SMALL
USER_CHARGES
4-(6,7-dimethoxyquinazolin-4-yl)aminophenol
@<TRIPOS>ATOM
      1 C1          5.8721    3.2860    0.3141 C.3       1 <0>         0.0217
      2 O1          4.6756    4.0528    0.1639 O.3       1 <0>        -0.3003
      3 C2          3.5152    3.3616    0.0059 C.ar      1 <0>         0.1098
      4 C3          3.5383    1.9957   -0.0028 C.ar      1 <0>        -0.1477
      5 C4          2.3443    1.2832   -0.1653 C.ar      1 <0>        -0.1837
      6 C5          1.1206    1.9808   -0.3196 C.ar      1 <0>         0.2016
      7 C6          1.1203    3.3808   -0.3082 C.ar      1 <0>        -0.1840
      8 C7          2.3086    4.0585   -0.1467 C.ar      1 <0>         0.1635
      9 O2          2.3111    5.4169   -0.1348 O.3       1 <0>        -0.2974
     10 C8          1.0499    6.0695   -0.2949 C.3       1 <0>         0.0202
     11 N1         -0.0098    1.2734   -0.4732 N.ar      1 <0>        -0.5434
     12 C9          0.0220   -0.0380   -0.4799 C.ar      1 <0>         0.3427
     13 N2          1.1404   -0.7317   -0.3394 N.ar      1 <0>        -0.5810
     14 C10         2.3131   -0.1316   -0.1811 C.ar      1 <0>         0.4648
     15 N3          3.4716   -0.8676   -0.0362 N.pl3     1 <0>        -0.6397
     16 C11         3.4070   -2.2626    0.0621 C.ar      1 <0>         0.1431
     17 C12         2.3197   -2.8659    0.6805 C.ar      1 <0>        -0.0935
     18 C13         2.2541   -4.2422    0.7719 C.ar      1 <0>        -0.1240
     19 C14         3.2793   -5.0216    0.2565 C.ar      1 <0>         0.0901
     20 C15         4.3685   -4.4195   -0.3563 C.ar      1 <0>        -0.1245
     21 C16         4.4330   -3.0436   -0.4537 C.ar      1 <0>        -0.1309
     22 O3          3.2168   -6.3766    0.3523 O.3       1 <0>        -0.4987
     23 H1          6.7221    3.9583    0.4312 H         1 <0>         0.1069
     24 H2          5.7878    2.6500    1.1952 H         1 <0>         0.0573
     25 H3          6.0191    2.6651   -0.5696 H         1 <0>         0.0571
     26 H4          4.4732    1.4681    0.1156 H         1 <0>         0.1390
     27 H5          0.1951    3.9255   -0.4251 H         1 <0>         0.1561
     28 H6          1.1935    7.1496   -0.2668 H         1 <0>         0.1074
     29 H7          0.6131    5.7858   -1.2524 H         1 <0>         0.0622
     30 H8          0.3812    5.7707    0.5123 H         1 <0>         0.0622
     31 H9         -0.9060   -0.5758   -0.6060 H         1 <0>         0.1979
     32 H10         4.3306   -0.4182   -0.0024 H         1 <0>         0.4187
     33 H11         1.5238   -2.2590    1.0862 H         1 <0>         0.1419
     34 H12         1.4065   -4.7117    1.2488 H         1 <0>         0.1329
     35 H13         5.1664   -5.0271   -0.7570 H         1 <0>         0.1329
     36 H14         5.2809   -2.5750   -0.9311 H         1 <0>         0.1287
     37 H15         3.6164   -6.7328    1.1576 H         1 <0>         0.3899
@<TRIPOS>BOND
     1    1    2 1
     2    1   23 1
     3    1   24 1
     4    1   25 1
     5    2    3 1
     6    3    8 ar
     7    3    4 ar
     8    4    5 ar
     9    4   26 1
    10    5   14 ar
    11    5    6 ar
    12    6    7 ar
    13    6   11 ar
    14    7    8 ar
    15    7   27 1
    16    8    9 1
    17    9   10 1
    18   10   28 1
    19   10   29 1
    20   10   30 1
    21   11   12 ar
    22   12   13 ar
    23   12   31 1
    24   13   14 ar
    25   14   15 1
    26   15   16 1
    27   15   32 1
    28   16   21 ar
    29   16   17 ar
    30   17   18 ar
    31   17   33 1
    32   18   19 ar
    33   18   34 1
    34   19   20 ar
    35   19   22 1
    36   20   21 ar
    37   20   35 1
    38   21   36 1
    39   22   37 1
@<TRIPOS>MOLECULE
ZINC21288966
   49    52     0     0     0
SMALL
USER_CHARGES
2-(2-chlorophenyl)-5,7-dihydroxy-8-[(3S,4R)-3-hydroxy-1-methyl-4-piperidyl]chromen-4-one
@<TRIPOS>ATOM
      1 C1          6.0895   -0.0238    5.9621 C.3       1 <0>        -0.0460
      2 N1          6.1756    1.0472    4.9603 N.4       1 <0>        -0.3934
      3 C2          5.9739    0.5180    3.6055 C.3       1 <0>        -0.0028
      4 C3          6.2126    1.6289    2.5802 C.3       1 <0>        -0.1464
      5 C4          5.2418    2.7821    2.8491 C.3       1 <0>        -0.0180
      6 H1          4.2050    2.4431    2.7074 H         1 <0>         0.1039
      7 C5          5.4391    3.2830    4.2825 C.3       1 <0>         0.1015
      8 H2          4.7709    4.1271    4.5084 H         1 <0>         0.0941
      9 C6          5.2218    2.1236    5.2574 C.3       1 <0>        -0.0361
     10 O1          6.7669    3.7898    4.4323 O.3       1 <0>        -0.5639
     11 C7          5.5132    3.9050    1.8814 C.ar      1 <0>        -0.2158
     12 C8          6.8017    4.3949    1.7322 C.ar      1 <0>         0.2946
     13 C9          7.0678    5.4304    0.8434 C.ar      1 <0>        -0.3049
     14 C10         6.0448    5.9841    0.0956 C.ar      1 <0>         0.3111
     15 C11         4.7411    5.4942    0.2412 C.ar      1 <0>        -0.3649
     16 C12         4.4748    4.4470    1.1407 C.ar      1 <0>         0.2362
     17 O2          3.2147    3.9814    1.2730 O.3       1 <0>        -0.2171
     18 C13         2.1871    4.4838    0.5705 C.2       1 <0>         0.1982
     19 C14         2.3394    5.4926   -0.3277 C.2       1 <0>        -0.2780
     20 C15         3.6225    6.0546   -0.5353 C.2       1 <0>         0.4382
     21 O3          3.7953    6.9641   -1.3304 O.2       1 <0>        -0.4786
     22 C16         0.8407    3.9147    0.7769 C.ar      1 <0>        -0.0680
     23 C17         0.6478    2.5322    0.7263 C.ar      1 <0>        -0.0708
     24 C18        -0.6124    2.0073    0.9205 C.ar      1 <0>        -0.1159
     25 C19        -1.6867    2.8467    1.1599 C.ar      1 <0>        -0.0780
     26 C20        -1.5036    4.2164    1.2169 C.ar      1 <0>        -0.1066
     27 C21        -0.2472    4.7566    1.0243 C.ar      1 <0>        -0.0057
     28 Cl1        -0.0199    6.4765    1.0889 Cl        1 <0>        -0.0424
     29 O4          6.3024    6.9947   -0.7728 O.3       1 <0>        -0.4999
     30 O5          7.8133    3.8585    2.4614 O.3       1 <0>        -0.4665
     31 H3          6.8128   -0.8151    5.7159 H         1 <0>         0.1242
     32 H4          5.0728   -0.4438    5.9634 H         1 <0>         0.1169
     33 H5          6.3184    0.3856    6.9571 H         1 <0>         0.1225
     34 H6          6.6809   -0.3050    3.4243 H         1 <0>         0.1308
     35 H7          4.9438    0.1448    3.5072 H         1 <0>         0.1211
     36 H8          7.2477    1.9910    2.6662 H         1 <0>         0.1216
     37 H9          6.0450    1.2349    1.5669 H         1 <0>         0.1057
     38 H10         4.1951    1.7434    5.1512 H         1 <0>         0.1298
     39 H11         5.3771    2.4772    6.2874 H         1 <0>         0.1312
     40 H12         7.0946    4.1958    5.4007 H         1 <0>         0.4106
     41 H13         8.0758    5.8030    0.7365 H         1 <0>         0.1471
     42 H14         1.4871    5.8659   -0.8759 H         1 <0>         0.1670
     43 H15         1.4839    1.8757    0.5352 H         1 <0>         0.1384
     44 H16        -0.7625    0.9385    0.8812 H         1 <0>         0.1407
     45 H17        -2.6721    2.4298    1.3071 H         1 <0>         0.1438
     46 H18        -2.3456    4.8651    1.4082 H         1 <0>         0.1476
     47 H19         5.4855    7.4321   -1.3656 H         1 <0>         0.4556
     48 H20         8.8375    4.2431    2.3473 H         1 <0>         0.4397
     49 H21         7.1882    1.4744    5.0059 H         1 <0>         0.4481
@<TRIPOS>BOND
     1    1    2 1
     2    1   31 1
     3    1   32 1
     4    1   33 1
     5    2    9 1
     6    2    3 1
     7    2   49 1
     8    3    4 1
     9    3   34 1
    10    3   35 1
    11    4    5 1
    12    4   36 1
    13    4   37 1
    14    5    6 1
    15    5    7 1
    16    5   11 1
    17    7    8 1
    18    7    9 1
    19    7   10 1
    20    9   38 1
    21    9   39 1
    22   10   40 1
    23   11   16 ar
    24   11   12 ar
    25   12   13 ar
    26   12   30 1
    27   13   14 ar
    28   13   41 1
    29   14   15 ar
    30   14   29 1
    31   15   20 1
    32   15   16 ar
    33   16   17 1
    34   17   18 1
    35   18   19 2
    36   18   22 1
    37   19   20 1
    38   19   42 1
    39   20   21 2
    40   22   27 ar
    41   22   23 ar
    42   23   24 ar
    43   23   43 1
    44   24   25 ar
    45   24   44 1
    46   25   26 ar
    47   25   45 1
    48   26   27 ar
    49   26   46 1
    50   27   28 1
    51   29   47 1
    52   30   48 1
@<TRIPOS>MOLECULE
ZINC14761282
   30    32     0     0     0
SMALL
USER_CHARGES
2,3,6,8-tetrahydroxy-1-methyl-xanthen-9-one
@<TRIPOS>ATOM
      1 C1         -4.9185    5.5078    0.0779 C.3       1 <0>        -0.1280
      2 C2         -3.5589    6.1577    0.0694 C.ar      1 <0>         0.0027
      3 C3         -2.4048    5.3710    0.0883 C.ar      1 <0>        -0.2276
      4 C4         -1.1351    5.9695    0.0801 C.ar      1 <0>         0.1781
      5 C5         -1.0400    7.3557    0.0535 C.ar      1 <0>        -0.1694
      6 C6         -2.1856    8.1307    0.0344 C.ar      1 <0>         0.1596
      7 C7         -3.4480    7.5321    0.0426 C.ar      1 <0>         0.0442
      8 O1         -4.5676    8.3049    0.0246 O.3       1 <0>        -0.4751
      9 O2         -2.0823    9.4845    0.0080 O.3       1 <0>        -0.4786
     10 O3         -0.0131    5.2197    0.0996 O.3       1 <0>        -0.2248
     11 C8         -0.0194    3.8712    0.1264 C.ar      1 <0>         0.1996
     12 C9          1.1807    3.1742    0.1442 C.ar      1 <0>        -0.1877
     13 C10         1.1827    1.7884    0.1728 C.ar      1 <0>         0.1985
     14 C11        -0.0121    1.0771    0.1840 C.ar      1 <0>        -0.2101
     15 C12        -1.2187    1.7514    0.1609 C.ar      1 <0>         0.2237
     16 C13        -1.2274    3.1533    0.1372 C.ar      1 <0>        -0.2714
     17 C14        -2.4972    3.8983    0.1181 C.2       1 <0>         0.4404
     18 O4         -3.5727    3.3265    0.1261 O.2       1 <0>        -0.4278
     19 O5         -2.3868    1.0612    0.1665 O.3       1 <0>        -0.4737
     20 O6          2.3631    1.1188    0.1904 O.3       1 <0>        -0.4885
     21 H1         -5.1981    5.2636    1.1027 H         1 <0>         0.0812
     22 H2         -5.6520    6.1943   -0.3451 H         1 <0>         0.0771
     23 H3         -4.8888    4.5955   -0.5179 H         1 <0>         0.1005
     24 H4         -0.0693    7.8290    0.0476 H         1 <0>         0.1557
     25 H5         -4.8934    8.5457    0.9026 H         1 <0>         0.3881
     26 H6         -2.0550    9.8940    0.8835 H         1 <0>         0.3991
     27 H7          2.1163    3.7136    0.1362 H         1 <0>         0.1540
     28 H8          0.0026   -0.0026    0.2063 H         1 <0>         0.1507
     29 H9         -2.7320    0.8796    1.0513 H         1 <0>         0.4040
     30 H10         2.7079    0.9062   -0.6877 H         1 <0>         0.4055
@<TRIPOS>BOND
     1    1    2 1
     2    1   21 1
     3    1   22 1
     4    1   23 1
     5    2    7 ar
     6    2    3 ar
     7    3   17 1
     8    3    4 ar
     9    4    5 ar
    10    4   10 1
    11    5    6 ar
    12    5   24 1
    13    6    7 ar
    14    6    9 1
    15    7    8 1
    16    8   25 1
    17    9   26 1
    18   10   11 1
    19   11   16 ar
    20   11   12 ar
    21   12   13 ar
    22   12   27 1
    23   13   14 ar
    24   13   20 1
    25   14   15 ar
    26   14   28 1
    27   15   16 ar
    28   15   19 1
    29   16   17 1
    30   17   18 2
    31   19   29 1
    32   20   30 1
@<TRIPOS>MOLECULE
ZINC20148986
   58    61     0     0     0
SMALL
USER_CHARGES
2-[[5-chloro-2-[(2-methoxy-4-morpholino-phenyl)amino]pyrimidin-4-yl]amino]-N-methyl-benzamide
@<TRIPOS>ATOM
      1 C1          2.0100   -7.4042   -2.0403 C.3       1 <0>         0.0865
      2 N1          2.9989   -6.3692   -1.7292 N.am      1 <0>        -0.7287
      3 C2          2.5960   -5.1704   -1.2634 C.2       1 <0>         0.5614
      4 O1          1.4116   -4.9479   -1.1013 O.2       1 <0>        -0.5382
      5 C3          3.5915   -4.1285   -0.9502 C.ar      1 <0>        -0.1752
      6 C4          4.9406   -4.3325   -1.2505 C.ar      1 <0>        -0.0656
      7 C5          5.8658   -3.3554   -0.9551 C.ar      1 <0>        -0.1436
      8 C6          5.4658   -2.1690   -0.3606 C.ar      1 <0>        -0.0693
      9 C7          4.1364   -1.9505   -0.0627 C.ar      1 <0>        -0.1233
     10 C8          3.1896   -2.9262   -0.3483 C.ar      1 <0>         0.2206
     11 N2          1.8501   -2.7103   -0.0447 N.pl3     1 <0>        -0.6268
     12 C9          1.3032   -1.4425   -0.1819 C.ar      1 <0>         0.4842
     13 C10        -0.0058   -1.1861    0.2348 C.ar      1 <0>        -0.2479
     14 C11        -0.5084    0.0918    0.0790 C.ar      1 <0>         0.2323
     15 N3          0.2597    1.0294   -0.4569 N.ar      1 <0>        -0.5756
     16 C12         1.4974    0.7575   -0.8429 C.ar      1 <0>         0.5995
     17 N4          2.0167   -0.4542   -0.7110 N.ar      1 <0>        -0.5959
     18 N5          2.2679    1.7651   -1.3989 N.pl3     1 <0>        -0.6186
     19 C13         1.7625    3.0719   -1.4786 C.ar      1 <0>         0.1118
     20 C14         0.8267    3.5115   -0.5541 C.ar      1 <0>        -0.0569
     21 C15         0.3293    4.7984   -0.6313 C.ar      1 <0>        -0.1822
     22 C16         0.7651    5.6542   -1.6344 C.ar      1 <0>         0.1303
     23 C17         1.7012    5.2176   -2.5623 C.ar      1 <0>        -0.2072
     24 C18         2.2048    3.9300   -2.4827 C.ar      1 <0>         0.1247
     25 O2          3.1265    3.5024   -3.3866 O.3       1 <0>        -0.3177
     26 C19         3.5341    4.4360   -4.3887 C.3       1 <0>         0.0294
     27 N6          0.2604    6.9571   -1.7103 N.pl3     1 <0>        -0.4873
     28 C20         1.3471    7.9464   -1.6703 C.3       1 <0>         0.0210
     29 C21         0.7567    9.3514   -1.8157 C.3       1 <0>         0.0614
     30 O3         -0.2094    9.5663   -0.7833 O.3       1 <0>        -0.3826
     31 C22        -1.2825    8.6209   -0.7931 C.3       1 <0>         0.0613
     32 C23        -0.7127    7.2085   -0.6373 C.3       1 <0>         0.0130
     33 Cl1        -0.9784   -2.4439    0.9315 Cl        1 <0>        -0.0431
     34 H1          2.5200   -8.2972   -2.4015 H         1 <0>         0.0781
     35 H2          1.4439   -7.6478   -1.1412 H         1 <0>         0.0628
     36 H3          1.3302   -7.0378   -2.8095 H         1 <0>         0.0623
     37 H4          3.9438   -6.5466   -1.8584 H         1 <0>         0.4025
     38 H5          5.2578   -5.2549   -1.7141 H         1 <0>         0.1288
     39 H6          6.9083   -3.5146   -1.1882 H         1 <0>         0.1311
     40 H7          6.1986   -1.4090   -0.1332 H         1 <0>         0.1316
     41 H8          3.8322   -1.0216    0.3967 H         1 <0>         0.1387
     42 H9          1.2978   -3.4460    0.2631 H         1 <0>         0.4356
     43 H10        -1.5176    0.3227    0.3864 H         1 <0>         0.1803
     44 H11         3.1568    1.5676   -1.7332 H         1 <0>         0.4270
     45 H12         0.4867    2.8476    0.2269 H         1 <0>         0.1570
     46 H13        -0.3991    5.1392    0.0896 H         1 <0>         0.1320
     47 H14         2.0401    5.8832   -3.3424 H         1 <0>         0.1347
     48 H15         2.6676    4.7405   -4.9757 H         1 <0>         0.0573
     49 H16         3.9756    5.3111   -3.9119 H         1 <0>         0.0558
     50 H17         4.2701    3.9686   -5.0429 H         1 <0>         0.1013
     51 H18         1.8742    7.8697   -0.7193 H         1 <0>         0.0548
     52 H19         2.0419    7.7571   -2.4885 H         1 <0>         0.0905
     53 H20         0.2757    9.4451   -2.7894 H         1 <0>         0.0622
     54 H21         1.5520   10.0918   -1.7299 H         1 <0>         0.1032
     55 H22        -1.8227    8.6934   -1.7370 H         1 <0>         0.0621
     56 H23        -1.9622    8.8323    0.0324 H         1 <0>         0.1040
     57 H24        -1.5215    6.4806   -0.7015 H         1 <0>         0.0964
     58 H25        -0.2185    7.1201    0.3302 H         1 <0>         0.0581
@<TRIPOS>BOND
     1    1    2 1
     2    1   34 1
     3    1   35 1
     4    1   36 1
     5    2    3 am
     6    2   37 1
     7    3    4 2
     8    3    5 1
     9    5   10 ar
    10    5    6 ar
    11    6    7 ar
    12    6   38 1
    13    7    8 ar
    14    7   39 1
    15    8    9 ar
    16    8   40 1
    17    9   10 ar
    18    9   41 1
    19   10   11 1
    20   11   12 1
    21   11   42 1
    22   12   17 ar
    23   12   13 ar
    24   13   14 ar
    25   13   33 1
    26   14   15 ar
    27   14   43 1
    28   15   16 ar
    29   16   17 ar
    30   16   18 1
    31   18   19 1
    32   18   44 1
    33   19   24 ar
    34   19   20 ar
    35   20   21 ar
    36   20   45 1
    37   21   22 ar
    38   21   46 1
    39   22   23 ar
    40   22   27 1
    41   23   24 ar
    42   23   47 1
    43   24   25 1
    44   25   26 1
    45   26   48 1
    46   26   49 1
    47   26   50 1
    48   27   32 1
    49   27   28 1
    50   28   29 1
    51   28   51 1
    52   28   52 1
    53   29   30 1
    54   29   53 1
    55   29   54 1
    56   30   31 1
    57   31   32 1
    58   31   55 1
    59   31   56 1
    60   32   57 1
    61   32   58 1
@<TRIPOS>MOLECULE
ZINC11617039
   55    58     0     0     0
SMALL
USER_CHARGES

@<TRIPOS>ATOM
      1 H1          0.2120    6.2074    3.3921 H         1 <0>         0.1353
      2 C1         -0.6814    5.6062    3.3098 C.ar      1 <0>         0.0196
      3 C2         -1.0741    5.1311    2.1031 C.ar      1 <0>        -0.1998
      4 C3         -2.2288    4.3474    1.9606 C.ar      1 <0>         0.2426
      5 C4         -3.0111    4.0257    3.0293 C.ar      1 <0>        -0.1858
      6 C5         -2.6578    4.4884    4.3143 C.ar      1 <0>         0.1374
      7 C6         -1.4433    5.3059    4.4600 C.ar      1 <0>        -0.2352
      8 C7         -1.3367    5.6110    5.8041 C.2       1 <0>         0.1330
      9 N1         -2.3705    5.0424    6.4391 N.pl3     1 <0>        -0.3190
     10 N2         -3.1795    4.3626    5.5213 N.2       1 <0>        -0.3200
     11 C8         -2.6225    5.1281    7.8797 C.3       1 <0>         0.0831
     12 H2         -3.2434    5.9992    8.0888 H         1 <0>         0.0888
     13 H3         -3.1369    4.2268    8.2129 H         1 <0>         0.0992
     14 H4         -1.6744    5.2222    8.4094 H         1 <0>         0.0983
     15 C9         -0.2495    6.4365    6.4425 C.3       1 <0>        -0.1025
     16 H5         -0.5455    7.4855    6.4477 H         1 <0>         0.0927
     17 H6         -0.0907    6.0987    7.4666 H         1 <0>         0.0807
     18 H7          0.6740    6.3223    5.8749 H         1 <0>         0.0943
     19 H8         -3.8955    3.4210    2.8932 H         1 <0>         0.1075
     20 N3         -2.5862    3.8853    0.6908 N.pl3     1 <0>        -0.5925
     21 C10        -3.6562    3.0160    0.5454 C.ar      1 <0>         0.5430
     22 C11        -3.4766    1.6392    0.6984 C.ar      1 <0>        -0.2193
     23 C12        -4.5711    0.8111    0.5450 C.ar      1 <0>         0.2156
     24 N4         -5.7510    1.3422    0.2594 N.ar      1 <0>        -0.5411
     25 C13        -5.8925    2.6520    0.1199 C.ar      1 <0>         0.6254
     26 N5         -4.8692    3.4808    0.2639 N.ar      1 <0>        -0.5160
     27 N6         -7.1427    3.1682   -0.1788 N.pl3     1 <0>        -0.6061
     28 C14        -7.2911    4.5338   -0.4396 C.ar      1 <0>         0.0902
     29 C15        -6.2697    5.2382   -1.0645 C.ar      1 <0>        -0.0370
     30 C16        -6.4197    6.5867   -1.3210 C.ar      1 <0>        -0.1186
     31 C17        -7.5850    7.2362   -0.9562 C.ar      1 <0>         0.0334
     32 C18        -8.6034    6.5381   -0.3338 C.ar      1 <0>        -0.6606
     33 C19        -8.4623    5.1877   -0.0798 C.ar      1 <0>        -0.0140
     34 S1        -10.0857    7.3705    0.1294 S.o2      1 <0>         2.7024
     35 O1        -10.5091    8.1093   -1.0082 O.2       1 <0>        -0.9461
     36 O2        -10.9137    6.4040    0.7615 O.2       1 <0>        -0.9598
     37 N7         -9.6818    8.4799    1.2907 N.pl3     1 <0>        -1.2481
     38 C20        -7.7450    8.7080   -1.2374 C.3       1 <0>        -0.1567
     39 H9         -8.1929    8.8433   -2.2218 H         1 <0>         0.1090
     40 H10        -8.3897    9.1545   -0.4804 H         1 <0>         0.0769
     41 H11        -6.7680    9.1908   -1.2132 H         1 <0>         0.0924
     42 H12        -4.4665   -0.2581    0.6563 H         1 <0>         0.2280
     43 H13        -2.5039    1.2316    0.9310 H         1 <0>         0.1988
     44 C21        -1.8301    4.3196   -0.4864 C.3       1 <0>         0.0917
     45 H14        -1.0078    3.6271   -0.6659 H         1 <0>         0.0746
     46 H15        -2.4881    4.3354   -1.3553 H         1 <0>         0.0729
     47 H16        -1.4320    5.3196   -0.3140 H         1 <0>         0.0953
     48 H17        -0.4834    5.3620    1.2289 H         1 <0>         0.1346
     49 H18        -7.9152    2.5823   -0.2071 H         1 <0>         0.4391
     50 H19        -5.3592    4.7318   -1.3490 H         1 <0>         0.1427
     51 H20        -5.6260    7.1349   -1.8068 H         1 <0>         0.1482
     52 H21        -9.2599    4.6421    0.4024 H         1 <0>         0.1564
     53 H22        -8.7604    8.5635    1.5820 H         1 <0>         0.4174
     54 H23       -10.3667    9.0460    1.6797 H         1 <0>         0.4270
     55 H24        -6.5221    0.7638    0.1506 H         1 <0>         0.4504
@<TRIPOS>BOND
     1    1    2 1
     2    2    7 ar
     3    2    3 ar
     4    3    4 ar
     5    3   48 1
     6    4    5 ar
     7    4   20 1
     8    5    6 ar
     9    5   19 1
    10    6   10 2
    11    6    7 ar
    12    7    8 2
    13    8    9 1
    14    8   15 1
    15    9   10 1
    16    9   11 1
    17   11   12 1
    18   11   13 1
    19   11   14 1
    20   15   16 1
    21   15   17 1
    22   15   18 1
    23   20   21 1
    24   20   44 1
    25   21   26 ar
    26   21   22 ar
    27   22   23 ar
    28   22   43 1
    29   23   24 ar
    30   23   42 1
    31   24   25 ar
    32   24   55 1
    33   25   26 ar
    34   25   27 1
    35   27   28 1
    36   27   49 1
    37   28   33 ar
    38   28   29 ar
    39   29   30 ar
    40   29   50 1
    41   30   31 ar
    42   30   51 1
    43   31   32 ar
    44   31   38 1
    45   32   33 ar
    46   32   34 1
    47   33   52 1
    48   34   35 2
    49   34   36 2
    50   34   37 1
    51   37   53 1
    52   37   54 1
    53   38   39 1
    54   38   40 1
    55   38   41 1
    56   44   45 1
    57   44   46 1
    58   44   47 1
@<TRIPOS>MOLECULE
ZINC03982130
   50    51     0     0     0
SMALL
USER_CHARGES

@<TRIPOS>ATOM
      1 C1         -0.0187    1.5258    0.0104 C.3       1 <0>        -0.2007
      2 C2          0.0021   -0.0041    0.0020 C.3       1 <0>         0.1097
      3 H1         -1.0205   -0.3814    0.0098 H         1 <0>         0.1090
      4 C3          0.7184   -0.4976   -1.2566 C.3       1 <0>        -0.2162
      5 C4          0.6959    0.5849   -2.3049 C.2       1 <0>        -0.0297
      6 C5          1.8379    1.1456   -2.7085 C.2       1 <0>        -0.2557
      7 C6          3.1091    0.7098   -2.1312 C.2       1 <0>         0.3442
      8 O1          3.1248   -0.1613   -1.2868 O.2       1 <0>        -0.3603
      9 C7          4.3996    1.3422   -2.5852 C.3       1 <0>         0.0392
     10 H2          4.5012    1.2261   -3.6642 H         1 <0>         0.0775
     11 C8          5.5762    0.6586   -1.8857 C.3       1 <0>         0.1198
     12 H3          6.4968    0.8754   -2.4275 H         1 <0>         0.0624
     13 C9          5.6920    1.1829   -0.4529 C.3       1 <0>        -0.1050
     14 C10         4.8754    0.2904    0.4837 C.3       1 <0>        -0.1550
     15 C11         4.6033    1.0363    1.7918 C.3       1 <0>        -0.0800
     16 C12         3.9792    0.0908    2.7858 C.ar      1 <0>         0.0458
     17 C13         4.6753   -0.2820    3.9123 C.ar      1 <0>        -0.1782
     18 C14         4.1043   -1.1570    4.8317 C.ar      1 <0>         0.1845
     19 C15         2.8292   -1.6605    4.6193 C.ar      1 <0>        -0.2633
     20 C16         2.1178   -1.2926    3.4909 C.ar      1 <0>         0.2090
     21 C17         2.6912   -0.4075    2.5638 C.ar      1 <0>        -0.1956
     22 C18         1.9400   -0.0053    1.3643 C.2       1 <0>         0.5058
     23 O2          2.4428    0.7524    0.5579 O.2       1 <0>        -0.4686
     24 O3          0.6934   -0.4775    1.1595 O.3       1 <0>        -0.3323
     25 O4          0.8714   -1.7849    3.2811 O.3       1 <0>        -0.4782
     26 O5          4.7980   -1.5195    5.9403 O.3       1 <0>        -0.3085
     27 C19         4.1536   -2.4206    6.8430 C.3       1 <0>         0.0229
     28 O6          5.3599   -0.7537   -1.8602 O.3       1 <0>        -0.5347
     29 O7          4.3911    2.7323   -2.2543 O.3       1 <0>        -0.5349
     30 H4          1.0039    1.9031    0.0027 H         1 <0>         0.0946
     31 H5         -0.5459    1.8868   -0.8726 H         1 <0>         0.0679
     32 H6         -0.5289    1.8773    0.9072 H         1 <0>         0.0571
     33 H7          1.7513   -0.7459   -1.0129 H         1 <0>         0.1710
     34 H8          0.2121   -1.3840   -1.6387 H         1 <0>         0.0755
     35 H9         -0.2438    0.9071   -2.7287 H         1 <0>         0.1170
     36 H10         1.8233    1.9196   -3.4617 H         1 <0>         0.1256
     37 H11         6.7377    1.1718   -0.1454 H         1 <0>         0.0549
     38 H12         5.3105    2.2029   -0.4073 H         1 <0>         0.0882
     39 H13         3.9287    0.0345    0.0078 H         1 <0>         0.1651
     40 H14         5.4338   -0.6216    0.6949 H         1 <0>         0.0462
     41 H15         5.5413    1.4194    2.1938 H         1 <0>         0.0611
     42 H16         3.9226    1.8662    1.6024 H         1 <0>         0.0886
     43 H17         5.6687    0.1056    4.0837 H         1 <0>         0.1414
     44 H18         2.3915   -2.3405    5.3352 H         1 <0>         0.1416
     45 H19         0.1656   -1.2435    3.6604 H         1 <0>         0.3979
     46 H20         4.8154   -2.6276    7.6839 H         1 <0>         0.1051
     47 H21         3.2309   -1.9702    7.2090 H         1 <0>         0.0595
     48 H22         3.9229   -3.3512    6.3245 H         1 <0>         0.0604
     49 H23         5.2766   -1.1548   -2.7361 H         1 <0>         0.3677
     50 H24         3.6701    3.2297   -2.6639 H         1 <0>         0.3811
@<TRIPOS>BOND
     1    1    2 1
     2    1   30 1
     3    1   31 1
     4    1   32 1
     5    2    3 1
     6    2   24 1
     7    2    4 1
     8    4    5 1
     9    4   33 1
    10    4   34 1
    11    5    6 2
    12    5   35 1
    13    6    7 1
    14    6   36 1
    15    7    8 2
    16    7    9 1
    17    9   10 1
    18    9   11 1
    19    9   29 1
    20   11   12 1
    21   11   13 1
    22   11   28 1
    23   13   14 1
    24   13   37 1
    25   13   38 1
    26   14   15 1
    27   14   39 1
    28   14   40 1
    29   15   16 1
    30   15   41 1
    31   15   42 1
    32   16   21 ar
    33   16   17 ar
    34   17   18 ar
    35   17   43 1
    36   18   19 ar
    37   18   26 1
    38   19   20 ar
    39   19   44 1
    40   20   21 ar
    41   20   25 1
    42   21   22 1
    43   22   23 2
    44   22   24 1
    45   25   45 1
    46   26   27 1
    47   27   46 1
    48   27   47 1
    49   27   48 1
    50   28   49 1
    51   29   50 1
@<TRIPOS>MOLECULE
ZINC55760827
   83    87     0     0     0
SMALL
USER_CHARGES

@<TRIPOS>ATOM
      1 C1          0.1308    1.2757   -1.5114 C.3       1 <0>        -0.1457
      2 C2          0.0489   -0.2316   -1.2617 C.3       1 <0>        -0.5666
      3 C3          1.2691   -0.6821   -0.4560 C.3       1 <0>        -0.1409
      4 S1         -1.4624   -0.6093   -0.3323 S.o2      1 <0>         2.4858
      5 O1         -1.4234    0.0188    0.9418 O.2       1 <0>        -0.9268
      6 O2         -2.6005   -0.4734   -1.1723 O.2       1 <0>        -0.9405
      7 C4         -1.3622   -2.3341    0.0135 C.ar      1 <0>        -0.6839
      8 C5         -1.2554   -2.7725    1.3190 C.ar      1 <0>        -0.0030
      9 C6         -1.1772   -4.1258    1.5912 C.ar      1 <0>        -0.1503
     10 C7         -1.2056   -5.0450    0.5581 C.ar      1 <0>        -0.0467
     11 C8         -1.3123   -4.6135   -0.7492 C.ar      1 <0>        -0.1331
     12 C9         -1.3964   -3.2546   -1.0259 C.ar      1 <0>         0.2443
     13 N1         -1.5099   -2.8147   -2.3478 N.pl3     1 <0>        -0.6616
     14 C10        -0.8607   -3.4990   -3.3646 C.ar      1 <0>         0.4830
     15 C11        -0.8842   -3.0123   -4.6745 C.ar      1 <0>        -0.2526
     16 C12        -0.2236   -3.7275   -5.6550 C.ar      1 <0>         0.2363
     17 N2          0.4082   -4.8455   -5.3272 N.ar      1 <0>        -0.5723
     18 C13         0.4137   -5.2832   -4.0770 C.ar      1 <0>         0.5997
     19 N3         -0.2026   -4.6244   -3.1067 N.ar      1 <0>        -0.5908
     20 N4          1.0856   -6.4561   -3.7754 N.pl3     1 <0>        -0.6151
     21 C14         1.8542   -7.0973   -4.7591 C.ar      1 <0>         0.0827
     22 C15         2.3739   -6.3680   -5.8182 C.ar      1 <0>        -0.0385
     23 C16         3.1307   -6.9985   -6.7873 C.ar      1 <0>        -0.2089
     24 C17         3.3726   -8.3634   -6.7029 C.ar      1 <0>         0.2363
     25 C18         2.8541   -9.0969   -5.6442 C.ar      1 <0>        -0.2647
     26 C19         2.1002   -8.4653   -4.6693 C.ar      1 <0>         0.1479
     27 O3          1.5961   -9.1808   -3.6285 O.3       1 <0>        -0.3171
     28 C20         1.8884  -10.5793   -3.6006 C.3       1 <0>         0.0308
     29 N5          4.1389   -8.9999   -7.6857 N.pl3     1 <0>        -0.6295
     30 C21         4.7972   -8.2205   -8.7431 C.3       1 <0>         0.1228
     31 C22         4.3883   -8.7923  -10.1042 C.3       1 <0>        -0.1329
     32 C23         4.7023  -10.2897  -10.1391 C.3       1 <0>         0.0908
     33 C24         3.8977  -11.0068   -9.0526 C.3       1 <0>        -0.1308
     34 C25         4.3056  -10.4596   -7.6763 C.3       1 <0>         0.1234
     35 N6          4.3421  -10.8347  -11.4549 N.3       1 <0>        -0.5357
     36 C26         5.0321  -10.1106  -12.5318 C.3       1 <0>         0.0201
     37 C27         4.5853  -10.6681  -13.8850 C.3       1 <0>        -0.0022
     38 N7          4.9025  -12.1007  -13.9534 N.4       1 <0>        -0.3883
     39 C28         4.1869  -12.8138  -12.8872 C.3       1 <0>        -0.0021
     40 C29         4.6303  -12.2741  -11.5256 C.3       1 <0>         0.0207
     41 C30         4.4898  -12.6315  -15.2595 C.3       1 <0>        -0.0459
     42 Cl1        -1.7246   -1.5432   -5.0610 Cl        1 <0>        -0.0377
     43 H1          1.0389    1.5027   -2.0698 H         1 <0>         0.0885
     44 H2         -0.7385    1.5967   -2.0853 H         1 <0>         0.0736
     45 H3          0.1503    1.8016   -0.5568 H         1 <0>         0.0788
     46 H4          0.0294   -0.7574   -2.2162 H         1 <0>         0.1318
     47 H5          2.1772   -0.4551   -1.0145 H         1 <0>         0.0814
     48 H6          1.2886   -0.1562    0.4985 H         1 <0>         0.0798
     49 H7          1.2107   -1.7559   -0.2782 H         1 <0>         0.0704
     50 H8         -1.2325   -2.0574    2.1279 H         1 <0>         0.1501
     51 H9         -1.0933   -4.4659    2.6128 H         1 <0>         0.1365
     52 H10        -1.1440   -6.1014    0.7741 H         1 <0>         0.1352
     53 H11        -1.3341   -5.3318   -1.5555 H         1 <0>         0.1523
     54 H12        -2.0426   -2.0307   -2.5540 H         1 <0>         0.4348
     55 H13        -0.2223   -3.3794   -6.6774 H         1 <0>         0.1828
     56 H14         1.0250   -6.8344   -2.8843 H         1 <0>         0.4275
     57 H15         2.1866   -5.3065   -5.8858 H         1 <0>         0.1583
     58 H16         3.5343   -6.4292   -7.6115 H         1 <0>         0.1269
     59 H17         3.0423  -10.1584   -5.5787 H         1 <0>         0.1320
     60 H18         1.4922  -11.0513   -4.4997 H         1 <0>         0.0544
     61 H19         2.9680  -10.7241   -3.5600 H         1 <0>         0.0558
     62 H20         1.4281  -11.0293   -2.7210 H         1 <0>         0.1025
     63 H21         4.4859   -7.1780   -8.6762 H         1 <0>         0.0942
     64 H22         5.8789   -8.2891   -8.6279 H         1 <0>         0.0623
     65 H23         3.3196   -8.6410  -10.2562 H         1 <0>         0.0830
     66 H24         4.9438   -8.2856  -10.8934 H         1 <0>         0.0745
     67 H25         5.7671  -10.4417   -9.9625 H         1 <0>         0.0537
     68 H26         2.8336  -10.8347   -9.2145 H         1 <0>         0.0823
     69 H27         4.1040  -12.0763   -9.0933 H         1 <0>         0.0730
     70 H28         5.3481  -10.7071   -7.4760 H         1 <0>         0.0623
     71 H29         3.6699  -10.8950   -6.9053 H         1 <0>         0.0877
     72 H30         4.7834   -9.0509  -12.4750 H         1 <0>         0.1272
     73 H31         6.1092  -10.2381  -12.4236 H         1 <0>         0.0603
     74 H32         3.5103  -10.5282  -13.9986 H         1 <0>         0.1375
     75 H33         5.1067  -10.1420  -14.6847 H         1 <0>         0.1357
     76 H34         3.1139  -12.6629  -13.0058 H         1 <0>         0.1374
     77 H35         4.4128  -13.8785  -12.9471 H         1 <0>         0.1354
     78 H36         5.7008  -12.4372  -11.4009 H         1 <0>         0.0602
     79 H37         4.0885  -12.7929  -10.7348 H         1 <0>         0.1256
     80 H38         5.0217  -12.1033  -16.0508 H         1 <0>         0.1244
     81 H39         4.7251  -13.6946  -15.3105 H         1 <0>         0.1242
     82 H40         3.4165  -12.4904  -15.3864 H         1 <0>         0.1232
     83 H41         5.8962  -12.2309  -13.8366 H         1 <0>         0.4222
@<TRIPOS>BOND
     1    1    2 1
     2    1   43 1
     3    1   44 1
     4    1   45 1
     5    2    3 1
     6    2    4 1
     7    2   46 1
     8    3   47 1
     9    3   48 1
    10    3   49 1
    11    4    5 2
    12    4    6 2
    13    4    7 1
    14    7   12 ar
    15    7    8 ar
    16    8    9 ar
    17    8   50 1
    18    9   10 ar
    19    9   51 1
    20   10   11 ar
    21   10   52 1
    22   11   12 ar
    23   11   53 1
    24   12   13 1
    25   13   14 1
    26   13   54 1
    27   14   19 ar
    28   14   15 ar
    29   15   16 ar
    30   15   42 1
    31   16   17 ar
    32   16   55 1
    33   17   18 ar
    34   18   19 ar
    35   18   20 1
    36   20   21 1
    37   20   56 1
    38   21   26 ar
    39   21   22 ar
    40   22   23 ar
    41   22   57 1
    42   23   24 ar
    43   23   58 1
    44   24   25 ar
    45   24   29 1
    46   25   26 ar
    47   25   59 1
    48   26   27 1
    49   27   28 1
    50   28   60 1
    51   28   61 1
    52   28   62 1
    53   29   34 1
    54   29   30 1
    55   30   31 1
    56   30   63 1
    57   30   64 1
    58   31   32 1
    59   31   65 1
    60   31   66 1
    61   32   33 1
    62   32   35 1
    63   32   67 1
    64   33   34 1
    65   33   68 1
    66   33   69 1
    67   34   70 1
    68   34   71 1
    69   35   40 1
    70   35   36 1
    71   36   37 1
    72   36   72 1
    73   36   73 1
    74   37   38 1
    75   37   74 1
    76   37   75 1
    77   38   39 1
    78   38   41 1
    79   38   83 1
    80   39   40 1
    81   39   76 1
    82   39   77 1
    83   40   78 1
    84   40   79 1
    85   41   80 1
    86   41   81 1
    87   41   82 1
@<TRIPOS>MOLECULE
ZINC03816310
   51    55     0     0     0
SMALL
USER_CHARGES
4-amino-5-fluoro-3-[5-(4-methylpiperazin-1-yl)-3H-benzoimidazol-2-yl]-1H-quinolin-2-one
@<TRIPOS>ATOM
      1 C1         -4.4670    0.8494    3.0633 C.3       1 <0>        -0.0407
      2 C2         -3.3790    0.9463    0.9019 C.3       1 <0>         0.0019
      3 C3         -3.5151    1.4789   -0.5264 C.3       1 <0>         0.0203
      4 N1         -3.5799    2.9467   -0.4951 N.pl3     1 <0>        -0.4822
      5 C4         -4.7239    3.4034    0.3063 C.3       1 <0>         0.0231
      6 C5         -4.5878    2.8708    1.7347 C.3       1 <0>         0.0021
      7 C6         -3.6324    3.4738   -1.7895 C.ar      1 <0>         0.0898
      8 C7         -3.6187    2.6172   -2.8884 C.ar      1 <0>        -0.1658
      9 C8         -3.6694    3.1157   -4.1588 C.ar      1 <0>        -0.0428
     10 C9         -3.7362    4.4973   -4.3655 C.ar      1 <0>         0.0571
     11 C10        -3.7506    5.3641   -3.2589 C.ar      1 <0>         0.0655
     12 C11        -3.7036    4.8454   -1.9734 C.ar      1 <0>        -0.1134
     13 N2         -3.8198    6.6467   -3.7722 N.pl3     1 <0>        -0.5851
     14 H1         -3.8464    7.4962   -3.2453 H         1 <0>         0.4436
     15 C12        -3.8451    6.5353   -5.1390 C.2       1 <0>         0.4046
     16 N3         -3.7957    5.2687   -5.4809 N.2       1 <0>        -0.5294
     17 C13        -3.9164    7.6652   -6.0804 C.2       1 <0>        -0.3025
     18 C14        -4.0559    7.4305   -7.4504 C.2       1 <0>         0.3760
     19 C15        -4.1228    8.5898   -8.3476 C.ar      1 <0>        -0.1878
     20 C16        -4.0447    9.8830   -7.7997 C.ar      1 <0>         0.2450
     21 C17        -4.1078   10.9864   -8.6429 C.ar      1 <0>        -0.1734
     22 C18        -4.2458   10.8081  -10.0035 C.ar      1 <0>        -0.0185
     23 C19        -4.3231    9.5350  -10.5468 C.ar      1 <0>        -0.1801
     24 C20        -4.2628    8.4239   -9.7304 C.ar      1 <0>         0.1680
     25 F1         -4.3388    7.1843  -10.2623 F         1 <0>        -0.1206
     26 N4         -3.9076   10.0470   -6.4354 N.am      1 <0>        -0.6368
     27 H2         -3.8498   10.9715   -6.0585 H         1 <0>         0.4300
     28 C21        -3.8500    8.9949   -5.6023 C.2       1 <0>         0.5826
     29 O1         -3.7334    9.1908   -4.4050 O.2       1 <0>        -0.5600
     30 N5         -4.1288    6.1500   -7.9440 N.pl3     1 <0>        -0.8025
     31 H3         -3.5472    1.1734    3.5502 H         1 <0>         0.1241
     32 H4         -5.3249    1.2032    3.6351 H         1 <0>         0.1225
     33 H5         -4.4877   -0.2393    3.0134 H         1 <0>         0.1228
     34 H6         -3.3598   -0.1434    0.8835 H         1 <0>         0.1376
     35 H7         -2.4541    1.3189    1.3424 H         1 <0>         0.1399
     36 H8         -2.6529    1.1655   -1.1151 H         1 <0>         0.1307
     37 H9         -4.4260    1.0841   -0.9765 H         1 <0>         0.0717
     38 H10        -4.7431    4.4931    0.3248 H         1 <0>         0.1261
     39 H11        -5.6486    3.0309   -0.1345 H         1 <0>         0.0691
     40 H12        -3.6769    3.2656    2.1847 H         1 <0>         0.1400
     41 H13        -5.4498    3.1846    2.3235 H         1 <0>         0.1367
     42 H14        -3.5672    1.5496   -2.7341 H         1 <0>         0.1314
     43 H15        -3.6582    2.4431   -5.0037 H         1 <0>         0.1346
     44 H16        -3.7183    5.5073   -1.1202 H         1 <0>         0.1268
     45 H17        -4.0491   11.9836   -8.2323 H         1 <0>         0.1496
     46 H18        -4.2944   11.6697  -10.6529 H         1 <0>         0.1516
     47 H19        -4.4307    9.4121  -11.6144 H         1 <0>         0.1515
     48 H20        -4.3218    5.4103   -7.3468 H         1 <0>         0.4285
     49 H21        -3.9874    5.9859   -8.8895 H         1 <0>         0.4092
     50 N6         -4.5458    1.3938    1.6909 N.4       1 <0>        -0.3998
     51 H22        -5.4033    1.0486    1.2438 H         1 <0>         0.4274
@<TRIPOS>BOND
     1    1   31 1
     2    1   32 1
     3    1   33 1
     4    1   50 1
     5    2    3 1
     6    2   34 1
     7    2   35 1
     8    2   50 1
     9    3    4 1
    10    3   36 1
    11    3   37 1
    12    4    5 1
    13    4    7 1
    14    5    6 1
    15    5   38 1
    16    5   39 1
    17    6   40 1
    18    6   41 1
    19    6   50 1
    20    7   12 ar
    21    7    8 ar
    22    8    9 ar
    23    8   42 1
    24    9   10 ar
    25    9   43 1
    26   10   16 1
    27   10   11 ar
    28   11   12 ar
    29   11   13 1
    30   12   44 1
    31   13   14 1
    32   13   15 1
    33   15   16 2
    34   15   17 1
    35   17   28 1
    36   17   18 2
    37   18   19 1
    38   18   30 1
    39   19   24 ar
    40   19   20 ar
    41   20   21 ar
    42   20   26 1
    43   21   22 ar
    44   21   45 1
    45   22   23 ar
    46   22   46 1
    47   23   24 ar
    48   23   47 1
    49   24   25 1
    50   26   27 1
    51   26   28 am
    52   28   29 2
    53   30   48 1
    54   30   49 1
    55   50   51 1
@<TRIPOS>MOLECULE
ZINC03964325
   57    59     0     0     0
SMALL
USER_CHARGES

@<TRIPOS>ATOM
      1 C1          0.1489    2.0884    0.1150 C.3       1 <0>        -0.1876
      2 C2          0.1348    0.5603    0.1888 C.3       1 <0>        -0.0191
      3 N1         -1.2520    0.0881    0.2979 N.4       1 <0>        -0.3822
      4 C3         -1.9779    0.4111   -0.9377 C.3       1 <0>        -0.0142
      5 C4         -3.4549    0.0484   -0.7712 C.3       1 <0>        -0.1895
      6 C5         -1.2593   -1.3663    0.5041 C.3       1 <0>        -0.0265
      7 C6         -0.6131   -1.6936    1.8518 C.3       1 <0>         0.0952
      8 N2         -0.6203   -3.1440    2.0575 N.am      1 <0>        -0.7289
      9 C7         -0.0988   -3.6675    3.1846 C.2       1 <0>         0.6111
     10 O1          0.3779   -2.9358    4.0309 O.2       1 <0>        -0.5184
     11 C8         -0.1061   -5.1270    3.3915 C.2       1 <0>        -0.2420
     12 C9          0.9071   -6.0320    3.0089 C.2       1 <0>        -0.0577
     13 C10         0.4868   -7.2892    3.3960 C.2       1 <0>        -0.0075
     14 N3         -0.7476   -7.1595    3.9982 N.pl3     1 <0>        -0.4910
     15 H1         -1.2731   -7.8879    4.3645 H         1 <0>         0.4270
     16 C11        -1.1044   -5.8642    4.0022 C.2       1 <0>         0.1158
     17 C12        -2.3825   -5.3072    4.5743 C.3       1 <0>        -0.0999
     18 C13         1.1957   -8.4957    3.2079 C.2       1 <0>         0.0729
     19 C14         0.5100   -9.6674    2.9570 C.2       1 <0>        -0.1889
     20 C15         1.0648  -11.0377    2.8871 C.ar      1 <0>        -0.0736
     21 C16         2.3472  -11.5557    3.0375 C.ar      1 <0>        -0.1000
     22 C17         2.5553  -12.9162    2.9116 C.ar      1 <0>         0.0861
     23 C18         1.4888  -13.7593    2.6366 C.ar      1 <0>        -0.1139
     24 C19         0.2139  -13.2531    2.4856 C.ar      1 <0>        -0.1021
     25 C20        -0.0144  -11.8871    2.6092 C.ar      1 <0>         0.1282
     26 N4         -1.1765  -11.1301    2.5069 N.am      1 <0>        -0.6466
     27 C21        -0.9294   -9.8245    2.7079 C.2       1 <0>         0.5595
     28 O2         -1.7538   -8.9280    2.6842 O.2       1 <0>        -0.5156
     29 F1          3.7984  -13.4252    3.0561 F         1 <0>        -0.1318
     30 C22         2.1990   -5.6919    2.3116 C.3       1 <0>        -0.0931
     31 H2          1.1793    2.4435    0.1331 H         1 <0>         0.1076
     32 H3         -0.3308    2.4121   -0.8087 H         1 <0>         0.0811
     33 H4         -0.3916    2.4984    0.9682 H         1 <0>         0.0809
     34 H5          0.5888    0.1488   -0.7126 H         1 <0>         0.1317
     35 H6          0.6996    0.2334    1.0619 H         1 <0>         0.1337
     36 H7         -1.8867    1.4775   -1.1444 H         1 <0>         0.1351
     37 H8         -1.5554   -0.1571   -1.7664 H         1 <0>         0.1307
     38 H9         -3.5537   -1.0316   -0.6617 H         1 <0>         0.0802
     39 H10        -3.8523    0.5414    0.1160 H         1 <0>         0.0808
     40 H11        -4.0109    0.3769   -1.6492 H         1 <0>         0.1074
     41 H12        -2.2871   -1.7292    0.4963 H         1 <0>         0.1397
     42 H13        -0.6973   -1.8494   -0.2952 H         1 <0>         0.1376
     43 H14         0.4147   -1.3306    1.8596 H         1 <0>         0.0893
     44 H15        -1.1751   -1.2105    2.6511 H         1 <0>         0.0890
     45 H16        -1.0005   -3.7277    1.3824 H         1 <0>         0.4099
     46 H17        -3.1529   -5.3000    3.8032 H         1 <0>         0.0840
     47 H18        -2.7087   -5.9289    5.4080 H         1 <0>         0.0782
     48 H19        -2.2103   -4.2898    4.9254 H         1 <0>         0.0840
     49 H20         2.2744   -8.5020    3.2604 H         1 <0>         0.1589
     50 H21         3.1765  -10.8977    3.2512 H         1 <0>         0.1436
     51 H22         1.6578  -14.8215    2.5394 H         1 <0>         0.1485
     52 H23        -0.6084  -13.9196    2.2712 H         1 <0>         0.1415
     53 H24        -2.0541  -11.4980    2.3189 H         1 <0>         0.4217
     54 H25         2.9686   -5.4822    3.0545 H         1 <0>         0.0785
     55 H26         2.5107   -6.5337    1.6932 H         1 <0>         0.0726
     56 H27         2.0522   -4.8138    1.6827 H         1 <0>         0.0634
     57 H28        -1.7009    0.5410    1.0799 H         1 <0>         0.4247
@<TRIPOS>BOND
     1    1    2 1
     2    1   31 1
     3    1   32 1
     4    1   33 1
     5    2    3 1
     6    2   34 1
     7    2   35 1
     8    3    4 1
     9    3    6 1
    10    3   57 1
    11    4    5 1
    12    4   36 1
    13    4   37 1
    14    5   38 1
    15    5   39 1
    16    5   40 1
    17    6    7 1
    18    6   41 1
    19    6   42 1
    20    7    8 1
    21    7   43 1
    22    7   44 1
    23    8    9 am
    24    8   45 1
    25    9   10 2
    26    9   11 1
    27   11   16 2
    28   11   12 1
    29   12   13 2
    30   12   30 1
    31   13   14 1
    32   13   18 1
    33   14   15 1
    34   14   16 1
    35   16   17 1
    36   17   46 1
    37   17   47 1
    38   17   48 1
    39   18   19 2
    40   18   49 1
    41   19   27 1
    42   19   20 1
    43   20   25 ar
    44   20   21 ar
    45   21   22 ar
    46   21   50 1
    47   22   23 ar
    48   22   29 1
    49   23   24 ar
    50   23   51 1
    51   24   25 ar
    52   24   52 1
    53   25   26 1
    54   26   27 am
    55   26   53 1
    56   27   28 2
    57   30   54 1
    58   30   55 1
    59   30   56 1
@<TRIPOS>MOLECULE
ZINC01546066
   52    54     0     0     0
SMALL
USER_CHARGES

@<TRIPOS>ATOM
      1 C1          1.3190    1.4185    0.8998 C.3       1 <0>         0.0308
      2 O1          1.1221    0.0121    0.7412 O.3       1 <0>        -0.3842
      3 C2          1.6336   -0.7719    1.8209 C.3       1 <0>         0.0626
      4 C3          1.3686   -2.2534    1.5456 C.3       1 <0>         0.0560
      5 O2          2.1105   -2.6643    0.3955 O.3       1 <0>        -0.2877
      6 C4          1.9861   -3.9631    0.0122 C.ar      1 <0>         0.1163
      7 C5          1.1727   -4.8014    0.7206 C.ar      1 <0>        -0.1508
      8 C6          1.0439   -6.1386    0.3269 C.ar      1 <0>        -0.1822
      9 C7          1.7562   -6.6146   -0.8018 C.ar      1 <0>         0.2018
     10 C8          2.5842   -5.7378   -1.5132 C.ar      1 <0>        -0.1867
     11 C9          2.6894   -4.4253   -1.1088 C.ar      1 <0>         0.1692
     12 O3          3.4878   -3.5711   -1.8004 O.3       1 <0>        -0.2847
     13 C10         4.1782   -4.1019   -2.9333 C.3       1 <0>         0.0544
     14 C11         5.0210   -3.0002   -3.5791 C.3       1 <0>         0.0626
     15 O4          6.0448   -2.5894   -2.6708 O.3       1 <0>        -0.3848
     16 C12         6.8933   -1.5581   -3.1792 C.3       1 <0>         0.0309
     17 N1          1.6146   -7.9009   -1.1583 N.ar      1 <0>        -0.5426
     18 C13         0.8310   -8.6986   -0.4725 C.ar      1 <0>         0.3422
     19 N2          0.1465   -8.2987    0.5874 N.ar      1 <0>        -0.5807
     20 C14         0.2146   -7.0483    1.0253 C.ar      1 <0>         0.4641
     21 N3         -0.5043   -6.6451    2.1328 N.pl3     1 <0>        -0.6417
     22 C15        -1.2223   -7.5837    2.8797 C.ar      1 <0>         0.1534
     23 C16        -2.4417   -7.2339    3.4483 C.ar      1 <0>        -0.1365
     24 C17        -3.1548   -8.1581    4.1879 C.ar      1 <0>        -0.0976
     25 C18        -2.6612   -9.4349    4.3666 C.ar      1 <0>        -0.1098
     26 C19        -1.4382   -9.7960    3.7995 C.ar      1 <0>         0.0290
     27 C20        -0.7210   -8.8652    3.0488 C.ar      1 <0>        -0.0846
     28 C21        -0.9239  -11.1197    3.9839 C.1       1 <0>        -0.1518
     29 C22        -0.5023  -12.2049    4.1351 C.1       1 <0>        -0.1689
     30 H1          2.3858    1.6300    0.9737 H         1 <0>         0.0438
     31 H2          0.9034    1.9430    0.0394 H         1 <0>         0.0882
     32 H3          0.8182    1.7554    1.8074 H         1 <0>         0.0421
     33 H4          2.7069   -0.6059    1.9138 H         1 <0>         0.0642
     34 H5          1.1392   -0.4804    2.7476 H         1 <0>         0.0738
     35 H6          1.6782   -2.8442    2.4078 H         1 <0>         0.0797
     36 H7          0.3045   -2.4047    1.3647 H         1 <0>         0.0731
     37 H8          0.6320   -4.4344    1.5804 H         1 <0>         0.1376
     38 H9          3.1329   -6.0870   -2.3754 H         1 <0>         0.1546
     39 H10         4.8282   -4.9164   -2.6138 H         1 <0>         0.0783
     40 H11         3.4545   -4.4770   -3.6569 H         1 <0>         0.0849
     41 H12         5.4773   -3.3804   -4.4931 H         1 <0>         0.0752
     42 H13         4.3841   -2.1485   -3.8181 H         1 <0>         0.0638
     43 H14         6.2953   -0.6764   -3.4098 H         1 <0>         0.0434
     44 H15         7.6433   -1.3027   -2.4306 H         1 <0>         0.0879
     45 H16         7.3884   -1.9084   -4.0848 H         1 <0>         0.0424
     46 H17         0.7401   -9.7278   -0.7869 H         1 <0>         0.1966
     47 H18        -0.5113   -5.7106    2.3927 H         1 <0>         0.4197
     48 H19        -2.8329   -6.2365    3.3119 H         1 <0>         0.1281
     49 H20        -4.1012   -7.8805    4.6278 H         1 <0>         0.1331
     50 H21        -3.2213  -10.1542    4.9456 H         1 <0>         0.1284
     51 H22         0.2239   -9.1405    2.6039 H         1 <0>         0.1386
     52 H23        -0.1252  -13.1754    4.2703 H         1 <0>         0.2249
@<TRIPOS>BOND
     1    1    2 1
     2    1   30 1
     3    1   31 1
     4    1   32 1
     5    2    3 1
     6    3    4 1
     7    3   33 1
     8    3   34 1
     9    4    5 1
    10    4   35 1
    11    4   36 1
    12    5    6 1
    13    6   11 ar
    14    6    7 ar
    15    7    8 ar
    16    7   37 1
    17    8   20 ar
    18    8    9 ar
    19    9   10 ar
    20    9   17 ar
    21   10   11 ar
    22   10   38 1
    23   11   12 1
    24   12   13 1
    25   13   14 1
    26   13   39 1
    27   13   40 1
    28   14   15 1
    29   14   41 1
    30   14   42 1
    31   15   16 1
    32   16   43 1
    33   16   44 1
    34   16   45 1
    35   17   18 ar
    36   18   19 ar
    37   18   46 1
    38   19   20 ar
    39   20   21 1
    40   21   22 1
    41   21   47 1
    42   22   27 ar
    43   22   23 ar
    44   23   24 ar
    45   23   48 1
    46   24   25 ar
    47   24   49 1
    48   25   26 ar
    49   25   50 1
    50   26   27 ar
    51   26   28 1
    52   27   51 1
    53   28   29 3
    54   29   52 1
@<TRIPOS>MOLECULE
ZINC03820040
   62    66     0     0     0
SMALL
USER_CHARGES
N-[4-[4-(4-methylpiperazin-1-yl)-6-[(5-methyl-2H-pyrazol-3-yl)amino]pyrimidin-2-yl]sulfanylphenyl]cyclopropanecarboxamide
@<TRIPOS>ATOM
      1 C1          1.8035   -7.6837    0.5070 C.3       1 <0>        -0.0779
      2 C2          2.3685   -6.3674    0.0389 C.2       1 <0>         0.0949
      3 C3          1.9325   -5.1020    0.4407 C.2       1 <0>        -0.2905
      4 C4          2.6904   -4.1743   -0.2066 C.2       1 <0>         0.3252
      5 N1          3.5799   -4.8447   -0.9836 N.pl3     1 <0>        -0.4853
      6 H1          4.2729   -4.4328   -1.5753 H         1 <0>         0.4473
      7 N2          3.3537   -6.2159   -0.8085 N.2       1 <0>        -0.2711
      8 N3          2.5778   -2.7905   -0.0888 N.pl3     1 <0>        -0.6296
      9 C5          1.3376   -2.2123    0.1391 C.ar      1 <0>         0.4706
     10 C6          0.1755   -2.9717    0.0343 C.ar      1 <0>        -0.2983
     11 C7         -1.0466   -2.3490    0.2714 C.ar      1 <0>         0.3791
     12 N4         -1.0643   -1.0564    0.5886 N.ar      1 <0>        -0.5664
     13 C8          0.0620   -0.3646    0.6795 C.ar      1 <0>         0.3511
     14 N5          1.2425   -0.9231    0.4557 N.ar      1 <0>        -0.5606
     15 S1         -0.0125    1.3444    1.1018 S.3       1 <0>         0.1303
     16 C9          1.7078    1.7032    1.2298 C.ar      1 <0>        -0.1638
     17 C10         2.3806    1.4637    2.4214 C.ar      1 <0>        -0.0284
     18 C11         3.7293    1.7409    2.5200 C.ar      1 <0>        -0.1315
     19 C12         4.4114    2.2681    1.4313 C.ar      1 <0>         0.1902
     20 C13         3.7379    2.5125    0.2417 C.ar      1 <0>        -0.1573
     21 C14         2.3903    2.2311    0.1410 C.ar      1 <0>        -0.0288
     22 N6          5.7793    2.5539    1.5333 N.am      1 <0>        -0.6744
     23 C15         6.5739    1.7808    2.2997 C.2       1 <0>         0.5466
     24 O1          6.1269    0.7811    2.8213 O.2       1 <0>        -0.5140
     25 C16         8.0178    2.1584    2.5086 C.3       1 <0>        -0.2022
     26 C17         9.0818    1.2604    1.8742 C.3       1 <0>        -0.1494
     27 C18         8.8679    1.2402    3.3890 C.3       1 <0>        -0.1425
     28 N7         -2.2296   -3.0657    0.1789 N.pl3     1 <0>        -0.4710
     29 C19        -2.3617   -3.6957   -1.1422 C.3       1 <0>         0.0277
     30 C20        -3.6379   -4.5399   -1.1765 C.3       1 <0>         0.0040
     31 C21        -4.6643   -3.0537    0.4349 C.3       1 <0>        -0.0004
     32 C22        -3.3881   -2.2095    0.4692 C.3       1 <0>         0.0347
     33 C23        -6.0501   -4.4431   -0.9842 C.3       1 <0>        -0.0407
     34 H2          2.3381   -8.0122    1.3982 H         1 <0>         0.0831
     35 H3          0.7460   -7.5623    0.7417 H         1 <0>         0.0784
     36 H4          1.9177   -8.4287   -0.2805 H         1 <0>         0.0774
     37 H5          1.1347   -4.8964    1.1389 H         1 <0>         0.1550
     38 H6          3.3667   -2.2314   -0.1662 H         1 <0>         0.4241
     39 H7          0.2211   -4.0192   -0.2246 H         1 <0>         0.1631
     40 H8          1.8494    1.0573    3.2693 H         1 <0>         0.1319
     41 H9          4.2533    1.5509    3.4451 H         1 <0>         0.1405
     42 H10         4.2686    2.9225   -0.6049 H         1 <0>         0.1339
     43 H11         1.8666    2.4209   -0.7843 H         1 <0>         0.1341
     44 H12         6.1543    3.3081    1.0523 H         1 <0>         0.4168
     45 H13         8.2224    3.2282    2.5520 H         1 <0>         0.1306
     46 H14         8.7374    0.3965    1.3057 H         1 <0>         0.0995
     47 H15         9.9866    1.7393    1.5000 H         1 <0>         0.1100
     48 H16         9.6320    1.7059    4.0114 H         1 <0>         0.1092
     49 H17         8.3827    0.3633    3.8175 H         1 <0>         0.1093
     50 H18        -2.4158   -2.9234   -1.9095 H         1 <0>         0.0737
     51 H19        -1.4982   -4.3342   -1.3286 H         1 <0>         0.1318
     52 H20        -3.5722   -5.3290   -0.4274 H         1 <0>         0.1439
     53 H21        -3.7533   -4.9852   -2.1646 H         1 <0>         0.1412
     54 H22        -4.6102   -3.8259    1.2022 H         1 <0>         0.1407
     55 H23        -5.5278   -2.4152    0.6217 H         1 <0>         0.1407
     56 H24        -3.2729   -1.7645    1.4575 H         1 <0>         0.1357
     57 H25        -3.4537   -1.4201   -0.2796 H         1 <0>         0.0793
     58 H26        -6.8948   -3.7714   -0.8313 H         1 <0>         0.1238
     59 H27        -6.1225   -4.8989   -1.9717 H         1 <0>         0.1230
     60 H28        -6.0632   -5.2226   -0.2224 H         1 <0>         0.1251
     61 N8         -4.7966   -3.6630   -0.9051 N.4       1 <0>        -0.4014
     62 H29        -4.8229   -2.9169   -1.6099 H         1 <0>         0.4281
@<TRIPOS>BOND
     1    1    2 1
     2    1   34 1
     3    1   35 1
     4    1   36 1
     5    2    7 2
     6    2    3 1
     7    3    4 2
     8    3   37 1
     9    4    5 1
    10    4    8 1
    11    5    6 1
    12    5    7 1
    13    8    9 1
    14    8   38 1
    15    9   14 ar
    16    9   10 ar
    17   10   11 ar
    18   10   39 1
    19   11   12 ar
    20   11   28 1
    21   12   13 ar
    22   13   14 ar
    23   13   15 1
    24   15   16 1
    25   16   21 ar
    26   16   17 ar
    27   17   18 ar
    28   17   40 1
    29   18   19 ar
    30   18   41 1
    31   19   20 ar
    32   19   22 1
    33   20   21 ar
    34   20   42 1
    35   21   43 1
    36   22   23 am
    37   22   44 1
    38   23   24 2
    39   23   25 1
    40   25   27 1
    41   25   26 1
    42   25   45 1
    43   26   27 1
    44   26   46 1
    45   26   47 1
    46   27   48 1
    47   27   49 1
    48   28   32 1
    49   28   29 1
    50   29   30 1
    51   29   50 1
    52   29   51 1
    53   30   52 1
    54   30   53 1
    55   30   61 1
    56   31   32 1
    57   31   54 1
    58   31   55 1
    59   31   61 1
    60   32   56 1
    61   32   57 1
    62   33   58 1
    63   33   59 1
    64   33   60 1
    65   33   61 1
    66   61   62 1
@<TRIPOS>MOLECULE
ZINC18825339
   59    62     0     0     0
SMALL
USER_CHARGES
5-[(Z)-(5-fluoro-2-oxo-indolin-3-ylidene)methyl]-N-[(2R)-2-hydroxy-3-morpholino-propyl]-2,4-dimethyl-1H-pyrrole-3-carboxamide
@<TRIPOS>ATOM
      1 C1          3.5607    0.7280    0.3667 C.3       1 <0>        -0.0956
      2 C2          2.0758    0.7165    0.1102 C.2       1 <0>        -0.0564
      3 C3          1.2591    1.8188   -0.0477 C.2       1 <0>        -0.0308
      4 N1         -0.0271    1.3691   -0.2640 N.pl3     1 <0>        -0.5068
      5 H1         -0.8436    2.0903   -0.4163 H         1 <0>         0.4494
      6 C4         -0.0354    0.0257   -0.2455 C.2       1 <0>         0.1277
      7 C5          1.2525   -0.4230   -0.0155 C.2       1 <0>        -0.2308
      8 C6          1.6847   -1.8291    0.0810 C.2       1 <0>         0.5980
      9 O1          2.0430   -2.4250   -0.9167 O.2       1 <0>        -0.5421
     10 N2          1.6827   -2.4542    1.2750 N.am      1 <0>        -0.7266
     11 C7          2.1121   -3.8516    1.3710 C.3       1 <0>         0.1299
     12 C8          2.0150   -4.3162    2.8255 C.3       1 <0>         0.1144
     13 H2          2.5334   -3.6206    3.5018 H         1 <0>         0.0568
     14 C9          2.5799   -5.7329    2.9471 C.3       1 <0>         0.0228
     15 N3          2.4867   -6.1790    4.3436 N.3       1 <0>        -0.5349
     16 C10         3.3671   -5.3829    5.2109 C.3       1 <0>         0.0083
     17 C11         3.1945   -5.8402    6.6618 C.3       1 <0>         0.0618
     18 O2          3.4694   -7.2408    6.7508 O.3       1 <0>        -0.3843
     19 C12         2.6296   -8.0463    5.9193 C.3       1 <0>         0.0614
     20 C13         2.7965   -7.6114    4.4609 C.3       1 <0>         0.0172
     21 O3          0.6463   -4.3123    3.2364 O.3       1 <0>        -0.5882
     22 C14        -1.2476   -0.8477   -0.4426 C.3       1 <0>        -0.0994
     23 C15         1.6686    3.1691    0.0027 C.2       1 <0>         0.0908
     24 C16         0.8216    4.1284    0.5209 C.2       1 <0>        -0.2125
     25 C17         1.0162    5.5955    0.5210 C.ar      1 <0>        -0.0684
     26 C18         2.0202    6.4240    0.0297 C.ar      1 <0>        -0.1043
     27 C19         1.9118    7.7937    0.1786 C.ar      1 <0>         0.0808
     28 C20         0.8031    8.3379    0.8097 C.ar      1 <0>        -0.1198
     29 C21        -0.2000    7.5233    1.2941 C.ar      1 <0>        -0.1061
     30 C22        -0.1080    6.1430    1.1533 C.ar      1 <0>         0.1250
     31 N4         -0.9593    5.1144    1.5420 N.am      1 <0>        -0.6604
     32 C23        -0.4649    3.9133    1.1971 C.2       1 <0>         0.5647
     33 O4         -0.9909    2.8351    1.4086 O.2       1 <0>        -0.5132
     34 F1          2.8866    8.6030   -0.2904 F         1 <0>        -0.1355
     35 H3          3.9167    1.7678    0.4131 H         1 <0>         0.0672
     36 H4          4.0776    0.1994   -0.4478 H         1 <0>         0.0746
     37 H5          3.7717    0.2252    1.3221 H         1 <0>         0.0710
     38 H6          1.3586   -1.9152    2.1775 H         1 <0>         0.4262
     39 H7          1.4633   -4.4786    0.7417 H         1 <0>         0.0750
     40 H8          3.1531   -3.9398    1.0266 H         1 <0>         0.0785
     41 H9          2.0023   -6.4143    2.3052 H         1 <0>         0.0900
     42 H10         3.6334   -5.7360    2.6307 H         1 <0>         0.0465
     43 H11         4.4130   -5.5254    4.9015 H         1 <0>         0.0459
     44 H12         3.1012   -4.3189    5.1257 H         1 <0>         0.0881
     45 H13         3.8925   -5.2859    7.3064 H         1 <0>         0.1001
     46 H14         2.1618   -5.6458    6.9871 H         1 <0>         0.0615
     47 H15         2.9156   -9.1033    6.0238 H         1 <0>         0.1009
     48 H16         1.5805   -7.9185    6.2243 H         1 <0>         0.0621
     49 H17         2.1104   -8.1883    3.8234 H         1 <0>         0.0898
     50 H18         3.8332   -7.7899    4.1393 H         1 <0>         0.0455
     51 H19         0.3780   -4.6185    4.2583 H         1 <0>         0.4136
     52 H20        -0.9523   -1.9052   -0.3757 H         1 <0>         0.0845
     53 H21        -1.6843   -0.6508   -1.4328 H         1 <0>         0.0777
     54 H22        -1.9909   -0.6245    0.3369 H         1 <0>         0.0809
     55 H23         2.6624    3.4568   -0.3709 H         1 <0>         0.1579
     56 H24         2.8828    5.9984   -0.4614 H         1 <0>         0.1409
     57 H25         0.7239    9.4091    0.9228 H         1 <0>         0.1443
     58 H26        -1.0583    7.9589    1.7840 H         1 <0>         0.1386
     59 H27        -1.9003    5.3463    2.0623 H         1 <0>         0.4455
@<TRIPOS>BOND
     1    1    2 1
     2    1   35 1
     3    1   36 1
     4    1   37 1
     5    2    7 1
     6    2    3 2
     7    3    4 1
     8    3   23 1
     9    4    5 1
    10    4    6 1
    11    6    7 2
    12    6   22 1
    13    7    8 1
    14    8    9 2
    15    8   10 am
    16   10   11 1
    17   10   38 1
    18   11   12 1
    19   11   39 1
    20   11   40 1
    21   12   13 1
    22   12   14 1
    23   12   21 1
    24   14   15 1
    25   14   41 1
    26   14   42 1
    27   15   20 1
    28   15   16 1
    29   16   17 1
    30   16   43 1
    31   16   44 1
    32   17   18 1
    33   17   45 1
    34   17   46 1
    35   18   19 1
    36   19   20 1
    37   19   47 1
    38   19   48 1
    39   20   49 1
    40   20   50 1
    41   21   51 1
    42   22   52 1
    43   22   53 1
    44   22   54 1
    45   23   24 2
    46   23   55 1
    47   24   32 1
    48   24   25 1
    49   25   30 ar
    50   25   26 ar
    51   26   27 ar
    52   26   56 1
    53   27   28 ar
    54   27   34 1
    55   28   29 ar
    56   28   57 1
    57   29   30 ar
    58   29   58 1
    59   30   31 1
    60   31   32 am
    61   31   59 1
    62   32   33 2
@<TRIPOS>MOLECULE
ZINC18825344
   59    62     0     0     0
SMALL
USER_CHARGES
5-[(Z)-(5-fluoro-2-oxo-indolin-3-ylidene)methyl]-N-[(2S)-2-hydroxy-3-morpholino-propyl]-2,4-dimethyl-1H-pyrrole-3-carboxamide
@<TRIPOS>ATOM
      1 C1          4.7056    0.6287    1.0117 C.3       1 <0>        -0.0968
      2 C2          3.2464    0.8378    0.6983 C.2       1 <0>        -0.0523
      3 C3          2.5980    2.0501    0.5678 C.2       1 <0>        -0.0327
      4 N1          1.2732    1.7961    0.2789 N.pl3     1 <0>        -0.5060
      5 H1          0.5720    2.6311    0.1339 H         1 <0>         0.4496
      6 C4          1.0783    0.4679    0.2258 C.2       1 <0>         0.1246
      7 C5          2.2801   -0.1676    0.4808 C.2       1 <0>        -0.2308
      8 C6          2.5088   -1.6234    0.5191 C.2       1 <0>         0.5976
      9 O1          2.8262   -2.2159   -0.4944 O.2       1 <0>        -0.5428
     10 N2          2.3662   -2.2977    1.6773 N.am      1 <0>        -0.7254
     11 C7          2.5935   -3.7444    1.7154 C.3       1 <0>         0.1298
     12 C8          2.3672   -4.2590    3.1384 C.3       1 <0>         0.1172
     13 H2          1.3599   -4.0040    3.4994 H         1 <0>         0.0560
     14 C9          2.6045   -5.7699    3.1781 C.3       1 <0>         0.0219
     15 N3          2.3382   -6.2720    4.5327 N.3       1 <0>        -0.5356
     16 C10         2.9762   -7.5793    4.7450 C.3       1 <0>         0.0168
     17 C11         2.7241   -8.0365    6.1842 C.3       1 <0>         0.0612
     18 O2          1.3152   -8.0759    6.4267 O.3       1 <0>        -0.3844
     19 C12         0.6618   -6.8191    6.2299 C.3       1 <0>         0.0617
     20 C13         0.8930   -6.3496    4.7911 C.3       1 <0>         0.0111
     21 O3          3.2765   -3.6103    4.0297 O.3       1 <0>        -0.5892
     22 C14        -0.2328   -0.2165   -0.0637 C.3       1 <0>        -0.0987
     23 C15         3.1876    3.3256    0.7056 C.2       1 <0>         0.0935
     24 C16         2.4515    4.3746    1.2192 C.2       1 <0>        -0.2157
     25 C17         2.8515    5.7966    1.3077 C.ar      1 <0>        -0.0669
     26 C18         3.9943    6.4912    0.9234 C.ar      1 <0>        -0.1048
     27 C19         4.0710    7.8545    1.1363 C.ar      1 <0>         0.0814
     28 C20         3.0098    8.5263    1.7247 C.ar      1 <0>        -0.1204
     29 C21         1.8704    7.8457    2.1029 C.ar      1 <0>        -0.1055
     30 C22         1.7753    6.4739    1.8965 C.ar      1 <0>         0.1237
     31 N4          0.7622    5.5637    2.1775 N.am      1 <0>        -0.6596
     32 C23         1.1039    4.3195    1.8021 C.2       1 <0>         0.5657
     33 O4          0.4171    3.3209    1.9242 O.2       1 <0>        -0.5153
     34 F1          5.1807    8.5334    0.7715 F         1 <0>        -0.1355
     35 H3          5.1994    1.6049    1.1269 H         1 <0>         0.0668
     36 H4          5.1808    0.0720    0.1906 H         1 <0>         0.0744
     37 H5          4.8016    0.0567    1.9464 H         1 <0>         0.0741
     38 H6          2.0791   -1.7617    2.5940 H         1 <0>         0.4273
     39 H7          1.8935   -4.2437    1.0293 H         1 <0>         0.0777
     40 H8          3.6268   -3.9615    1.4070 H         1 <0>         0.0736
     41 H9          1.9304   -6.2658    2.4641 H         1 <0>         0.0486
     42 H10         3.6486   -5.9844    2.9062 H         1 <0>         0.0884
     43 H11         2.5501   -8.3132    4.0451 H         1 <0>         0.0451
     44 H12         4.0587   -7.4917    4.5704 H         1 <0>         0.0900
     45 H13         3.1515   -9.0395    6.3305 H         1 <0>         0.1008
     46 H14         3.1986   -7.3305    6.8817 H         1 <0>         0.0620
     47 H15        -0.4170   -6.9344    6.4112 H         1 <0>         0.1000
     48 H16         1.0741   -6.0778    6.9303 H         1 <0>         0.0613
     49 H17         0.4415   -5.3564    4.6504 H         1 <0>         0.0873
     50 H18         0.4333   -7.0637    4.0920 H         1 <0>         0.0461
     51 H19         3.2627   -3.8533    5.1024 H         1 <0>         0.4141
     52 H20        -0.0899   -1.3070   -0.0417 H         1 <0>         0.0829
     53 H21        -0.5927    0.0862   -1.0581 H         1 <0>         0.0781
     54 H22        -0.9728    0.0718    0.6974 H         1 <0>         0.0803
     55 H23         4.2335    3.4835    0.4037 H         1 <0>         0.1584
     56 H24         4.8196    5.9664    0.4654 H         1 <0>         0.1411
     57 H25         3.0756    9.5918    1.8882 H         1 <0>         0.1443
     58 H26         1.0507    8.3797    2.5605 H         1 <0>         0.1385
     59 H27        -0.1701    5.9069    2.6497 H         1 <0>         0.4455
@<TRIPOS>BOND
     1    1    2 1
     2    1   35 1
     3    1   36 1
     4    1   37 1
     5    2    7 1
     6    2    3 2
     7    3    4 1
     8    3   23 1
     9    4    5 1
    10    4    6 1
    11    6    7 2
    12    6   22 1
    13    7    8 1
    14    8    9 2
    15    8   10 am
    16   10   11 1
    17   10   38 1
    18   11   12 1
    19   11   39 1
    20   11   40 1
    21   12   13 1
    22   12   14 1
    23   12   21 1
    24   14   15 1
    25   14   41 1
    26   14   42 1
    27   15   20 1
    28   15   16 1
    29   16   17 1
    30   16   43 1
    31   16   44 1
    32   17   18 1
    33   17   45 1
    34   17   46 1
    35   18   19 1
    36   19   20 1
    37   19   47 1
    38   19   48 1
    39   20   49 1
    40   20   50 1
    41   21   51 1
    42   22   52 1
    43   22   53 1
    44   22   54 1
    45   23   24 2
    46   23   55 1
    47   24   32 1
    48   24   25 1
    49   25   30 ar
    50   25   26 ar
    51   26   27 ar
    52   26   56 1
    53   27   28 ar
    54   27   34 1
    55   28   29 ar
    56   28   57 1
    57   29   30 ar
    58   29   58 1
    59   30   31 1
    60   31   32 am
    61   31   59 1
    62   32   33 2
@<TRIPOS>MOLECULE
ZINC23247639
   69    72     0     0     0
SMALL
USER_CHARGES
1-[4-[(4-ethylpiperazin-1-yl)methyl]-3-(trifluoromethyl)phenyl]-3-[4-(6-methylaminopyrimidin-4-yl)oxyphenyl]urea
@<TRIPOS>ATOM
      1 C1          8.9417    3.3719    8.2172 C.3       1 <0>        -0.1901
      2 C2         10.1498    2.9102    7.3997 C.3       1 <0>        -0.0070
      3 N1          9.9972    3.3533    6.0075 N.4       1 <0>        -0.4011
      4 C3         11.2367    3.1387    5.2477 C.3       1 <0>         0.0016
      5 C4         11.0629    3.6845    3.8284 C.3       1 <0>         0.0271
      6 N2          9.9288    3.0094    3.1822 N.3       1 <0>        -0.5300
      7 C5          8.6893    3.2240    3.9420 C.3       1 <0>         0.0232
      8 C6          8.8631    2.6781    5.3612 C.3       1 <0>        -0.0016
      9 C7          9.7762    3.4524    1.7899 C.3       1 <0>         0.0786
     10 C8          8.7879    2.5601    1.0842 C.ar      1 <0>        -0.0666
     11 C9          7.5022    3.0092    0.8434 C.ar      1 <0>        -0.0932
     12 C10         6.5958    2.1959    0.1923 C.ar      1 <0>        -0.0888
     13 C11         6.9731    0.9214   -0.2106 C.ar      1 <0>         0.1880
     14 C12         8.2646    0.4735    0.0326 C.ar      1 <0>        -0.1043
     15 C13         9.1683    1.2940    0.6793 C.ar      1 <0>        -0.1369
     16 C14        10.5702    0.8086    0.9441 C.3       1 <0>         0.5111
     17 F1         10.7250   -0.4786    0.4184 F         1 <0>        -0.1776
     18 F2         11.4860    1.6739    0.3362 F         1 <0>        -0.1774
     19 F3         10.8008    0.7797    2.3237 F         1 <0>        -0.1628
     20 N3          6.0552    0.0926   -0.8655 N.am      1 <0>        -0.6979
     21 C15         4.7513    0.1311   -0.5266 C.2       1 <0>         0.7117
     22 O1          4.3858    0.8194    0.4067 O.2       1 <0>        -0.5623
     23 N4          3.8526   -0.5934   -1.2222 N.am      1 <0>        -0.6900
     24 C16         2.4863   -0.4790   -0.9335 C.ar      1 <0>         0.1635
     25 C17         1.5516   -0.5518   -1.9576 C.ar      1 <0>        -0.1265
     26 C18         0.2052   -0.4394   -1.6724 C.ar      1 <0>        -0.0923
     27 C19        -0.2137   -0.2543   -0.3628 C.ar      1 <0>         0.0841
     28 C20         0.7198   -0.1815    0.6609 C.ar      1 <0>        -0.0957
     29 C21         2.0665   -0.2932    0.3769 C.ar      1 <0>        -0.1058
     30 O2         -1.5393   -0.1385   -0.0833 O.3       1 <0>        -0.2424
     31 C22        -2.3129   -1.2454   -0.1983 C.ar      1 <0>         0.3836
     32 C23        -3.6894   -1.1637   -0.0277 C.ar      1 <0>        -0.3134
     33 C24        -4.4409   -2.3284   -0.1601 C.ar      1 <0>         0.4631
     34 N5         -3.8165   -3.4721   -0.4341 N.ar      1 <0>        -0.5936
     35 C25        -2.5082   -3.5081   -0.5840 C.ar      1 <0>         0.3760
     36 N6         -1.7644   -2.4263   -0.4707 N.ar      1 <0>        -0.6039
     37 N7         -5.8178   -2.2988   -0.0034 N.pl3     1 <0>        -0.7218
     38 C26        -6.4937   -1.0344    0.2979 C.3       1 <0>         0.0891
     39 H1          9.0560    3.0401    9.2597 H         1 <0>         0.1066
     40 H2          8.0243    2.9380    7.7928 H         1 <0>         0.0798
     41 H3          8.8763    4.4695    8.1868 H         1 <0>         0.0803
     42 H4         11.0672    3.3441    7.8241 H         1 <0>         0.1306
     43 H5         10.2153    1.8126    7.4301 H         1 <0>         0.1269
     44 H6         12.0665    3.6630    5.7442 H         1 <0>         0.1361
     45 H7         11.4577    2.0621    5.2031 H         1 <0>         0.1357
     46 H8         10.8699    4.7665    3.8728 H         1 <0>         0.0625
     47 H9         11.9796    3.4990    3.2494 H         1 <0>         0.1239
     48 H10         8.4684    4.3007    3.9867 H         1 <0>         0.0621
     49 H11         7.8594    2.6998    3.4455 H         1 <0>         0.1239
     50 H12         9.0569    1.5962    5.3178 H         1 <0>         0.1351
     51 H13         7.9470    2.8635    5.9412 H         1 <0>         0.1359
     52 H14         9.4106    4.4897    1.7732 H         1 <0>         0.0663
     53 H15        10.7489    3.3982    1.2791 H         1 <0>         0.1073
     54 H16         7.2082    3.9988    1.1607 H         1 <0>         0.1358
     55 H17         5.5933    2.5489    0.0003 H         1 <0>         0.1466
     56 H18         8.5625   -0.5152   -0.2838 H         1 <0>         0.1447
     57 H19         6.3979   -0.5903   -1.6569 H         1 <0>         0.4387
     58 H20         4.1917   -1.2745   -2.0166 H         1 <0>         0.4355
     59 H21         1.8775   -0.6959   -2.9771 H         1 <0>         0.1334
     60 H22        -0.5220   -0.4960   -2.4689 H         1 <0>         0.1303
     61 H23         0.3932   -0.0371    1.6801 H         1 <0>         0.1327
     62 H24         2.7931   -0.2369    1.1740 H         1 <0>         0.1442
     63 H25        -4.1646   -0.2205    0.1982 H         1 <0>         0.1466
     64 H26        -2.0315   -4.4515   -0.8058 H         1 <0>         0.2000
     65 H27        -6.4030   -3.2246   -0.1053 H         1 <0>         0.4376
     66 H28        -7.5762   -1.2091    0.3856 H         1 <0>         0.0864
     67 H29        -6.3028   -0.3146   -0.5117 H         1 <0>         0.0603
     68 H30        -6.1096   -0.6302    1.2461 H         1 <0>         0.0599
     69 H31         9.7882    4.4332    6.0188 H         1 <0>         0.4364
@<TRIPOS>BOND
     1    1    2 1
     2    1   39 1
     3    1   40 1
     4    1   41 1
     5    2    3 1
     6    2   42 1
     7    2   43 1
     8    3    8 1
     9    3    4 1
    10    3   69 1
    11    4    5 1
    12    4   44 1
    13    4   45 1
    14    5    6 1
    15    5   46 1
    16    5   47 1
    17    6    7 1
    18    6    9 1
    19    7    8 1
    20    7   48 1
    21    7   49 1
    22    8   50 1
    23    8   51 1
    24    9   10 1
    25    9   52 1
    26    9   53 1
    27   10   15 ar
    28   10   11 ar
    29   11   12 ar
    30   11   54 1
    31   12   13 ar
    32   12   55 1
    33   13   14 ar
    34   13   20 1
    35   14   15 ar
    36   14   56 1
    37   15   16 1
    38   16   17 1
    39   16   18 1
    40   16   19 1
    41   20   21 am
    42   20   57 1
    43   21   22 2
    44   21   23 am
    45   23   24 1
    46   23   58 1
    47   24   29 ar
    48   24   25 ar
    49   25   26 ar
    50   25   59 1
    51   26   27 ar
    52   26   60 1
    53   27   28 ar
    54   27   30 1
    55   28   29 ar
    56   28   61 1
    57   29   62 1
    58   30   31 1
    59   31   36 ar
    60   31   32 ar
    61   32   33 ar
    62   32   63 1
    63   33   34 ar
    64   33   37 1
    65   34   35 ar
    66   35   36 ar
    67   35   64 1
    68   37   38 1
    69   37   65 1
    70   38   66 1
    71   38   67 1
    72   38   68 1
@<TRIPOS>MOLECULE
ZINC23247639
   69    72     0     0     0
SMALL
USER_CHARGES
1-[4-[(4-ethylpiperazin-1-yl)methyl]-3-(trifluoromethyl)phenyl]-3-[4-(6-methylaminopyrimidin-4-yl)oxyphenyl]urea
@<TRIPOS>ATOM
      1 C1          8.9417    3.3719    8.2172 C.3       1 <0>        -0.1569
      2 C2         10.1498    2.9102    7.3997 C.3       1 <0>         0.0486
      3 N1          9.9972    3.3533    6.0075 N.3       1 <0>        -0.5379
      4 C3         11.2367    3.1387    5.2477 C.3       1 <0>         0.0250
      5 C4         11.0629    3.6845    3.8284 C.3       1 <0>         0.0004
      6 N2          9.9288    3.0094    3.1822 N.4       1 <0>        -0.4202
      7 C5          8.6893    3.2240    3.9420 C.3       1 <0>        -0.0009
      8 C6          8.8631    2.6781    5.3612 C.3       1 <0>         0.0222
      9 C7          9.7762    3.4524    1.7899 C.3       1 <0>         0.0266
     10 C8          8.7879    2.5601    1.0842 C.ar      1 <0>        -0.1272
     11 C9          7.5022    3.0092    0.8434 C.ar      1 <0>        -0.0630
     12 C10         6.5958    2.1959    0.1923 C.ar      1 <0>        -0.0846
     13 C11         6.9731    0.9214   -0.2106 C.ar      1 <0>         0.2154
     14 C12         8.2646    0.4735    0.0326 C.ar      1 <0>        -0.0955
     15 C13         9.1683    1.2940    0.6793 C.ar      1 <0>        -0.1507
     16 C14        10.5702    0.8086    0.9441 C.3       1 <0>         0.5109
     17 F1         10.7250   -0.4786    0.4184 F         1 <0>        -0.1491
     18 F2         11.4860    1.6739    0.3362 F         1 <0>        -0.1584
     19 F3         10.8008    0.7797    2.3237 F         1 <0>        -0.1724
     20 N3          6.0552    0.0926   -0.8655 N.am      1 <0>        -0.6988
     21 C15         4.7513    0.1311   -0.5266 C.2       1 <0>         0.7114
     22 O1          4.3858    0.8194    0.4067 O.2       1 <0>        -0.5584
     23 N4          3.8526   -0.5934   -1.2222 N.am      1 <0>        -0.6858
     24 C16         2.4863   -0.4790   -0.9335 C.ar      1 <0>         0.1577
     25 C17         1.5516   -0.5518   -1.9576 C.ar      1 <0>        -0.1240
     26 C18         0.2052   -0.4394   -1.6724 C.ar      1 <0>        -0.0926
     27 C19        -0.2137   -0.2543   -0.3628 C.ar      1 <0>         0.0883
     28 C20         0.7198   -0.1815    0.6609 C.ar      1 <0>        -0.0957
     29 C21         2.0665   -0.2932    0.3769 C.ar      1 <0>        -0.1046
     30 O2         -1.5393   -0.1385   -0.0833 O.3       1 <0>        -0.2426
     31 C22        -2.3129   -1.2454   -0.1983 C.ar      1 <0>         0.3832
     32 C23        -3.6894   -1.1637   -0.0277 C.ar      1 <0>        -0.3126
     33 C24        -4.4409   -2.3284   -0.1601 C.ar      1 <0>         0.4635
     34 N5         -3.8165   -3.4721   -0.4341 N.ar      1 <0>        -0.5931
     35 C25        -2.5082   -3.5081   -0.5840 C.ar      1 <0>         0.3762
     36 N6         -1.7644   -2.4263   -0.4707 N.ar      1 <0>        -0.6049
     37 N7         -5.8178   -2.2988   -0.0034 N.pl3     1 <0>        -0.7212
     38 C26        -6.4937   -1.0344    0.2979 C.3       1 <0>         0.0887
     39 H1          9.0560    3.0401    9.2597 H         1 <0>         0.0714
     40 H2          8.0243    2.9380    7.7928 H         1 <0>         0.0562
     41 H3          8.8763    4.4695    8.1868 H         1 <0>         0.0696
     42 H4         11.0672    3.3441    7.8241 H         1 <0>         0.0895
     43 H5         10.2153    1.8126    7.4301 H         1 <0>         0.0455
     44 H6         12.0665    3.6630    5.7442 H         1 <0>         0.1253
     45 H7         11.4577    2.0621    5.2031 H         1 <0>         0.0582
     46 H8         10.8699    4.7665    3.8728 H         1 <0>         0.1369
     47 H9         11.9796    3.4990    3.2494 H         1 <0>         0.1329
     48 H10         8.4684    4.3007    3.9867 H         1 <0>         0.1355
     49 H11         7.8594    2.6998    3.4455 H         1 <0>         0.1312
     50 H12         9.0569    1.5962    5.3178 H         1 <0>         0.0572
     51 H13         7.9470    2.8635    5.9412 H         1 <0>         0.1266
     52 H14         9.4106    4.4897    1.7732 H         1 <0>         0.1472
     53 H15        10.7489    3.3982    1.2791 H         1 <0>         0.1420
     54 H16         7.2082    3.9988    1.1607 H         1 <0>         0.1512
     55 H17         5.5933    2.5489    0.0003 H         1 <0>         0.1583
     56 H18         8.5625   -0.5152   -0.2838 H         1 <0>         0.1556
     57 H19         6.3979   -0.5903   -1.6569 H         1 <0>         0.4440
     58 H20         4.1917   -1.2745   -2.0166 H         1 <0>         0.4371
     59 H21         1.8775   -0.6959   -2.9771 H         1 <0>         0.1338
     60 H22        -0.5220   -0.4960   -2.4689 H         1 <0>         0.1313
     61 H23         0.3932   -0.0371    1.6801 H         1 <0>         0.1341
     62 H24         2.7931   -0.2369    1.1740 H         1 <0>         0.1440
     63 H25        -4.1646   -0.2205    0.1982 H         1 <0>         0.1470
     64 H26        -2.0315   -4.4515   -0.8058 H         1 <0>         0.2001
     65 H27        -6.4030   -3.2246   -0.1053 H         1 <0>         0.4380
     66 H28        -7.5762   -1.2091    0.3856 H         1 <0>         0.0868
     67 H29        -6.3028   -0.3146   -0.5117 H         1 <0>         0.0604
     68 H30        -6.1096   -0.6302    1.2461 H         1 <0>         0.0603
     69 H31        10.1379    1.9295    3.1711 H         1 <0>         0.4253
@<TRIPOS>BOND
     1    1    2 1
     2    1   39 1
     3    1   40 1
     4    1   41 1
     5    2    3 1
     6    2   42 1
     7    2   43 1
     8    3    8 1
     9    3    4 1
    10    4    5 1
    11    4   44 1
    12    4   45 1
    13    5    6 1
    14    5   46 1
    15    5   47 1
    16    6    7 1
    17    6    9 1
    18    6   69 1
    19    7    8 1
    20    7   48 1
    21    7   49 1
    22    8   50 1
    23    8   51 1
    24    9   10 1
    25    9   52 1
    26    9   53 1
    27   10   15 ar
    28   10   11 ar
    29   11   12 ar
    30   11   54 1
    31   12   13 ar
    32   12   55 1
    33   13   14 ar
    34   13   20 1
    35   14   15 ar
    36   14   56 1
    37   15   16 1
    38   16   17 1
    39   16   18 1
    40   16   19 1
    41   20   21 am
    42   20   57 1
    43   21   22 2
    44   21   23 am
    45   23   24 1
    46   23   58 1
    47   24   29 ar
    48   24   25 ar
    49   25   26 ar
    50   25   59 1
    51   26   27 ar
    52   26   60 1
    53   27   28 ar
    54   27   30 1
    55   28   29 ar
    56   28   61 1
    57   29   62 1
    58   30   31 1
    59   31   36 ar
    60   31   32 ar
    61   32   33 ar
    62   32   63 1
    63   33   34 ar
    64   33   37 1
    65   34   35 ar
    66   35   36 ar
    67   35   64 1
    68   37   38 1
    69   37   65 1
    70   38   66 1
    71   38   67 1
    72   38   68 1
@<TRIPOS>MOLECULE
ZINC23247639
   68    71     0     0     0
SMALL
USER_CHARGES
1-[4-[(4-ethylpiperazin-1-yl)methyl]-3-(trifluoromethyl)phenyl]-3-[4-(6-methylaminopyrimidin-4-yl)oxyphenyl]urea
@<TRIPOS>ATOM
      1 C1          8.9417    3.3719    8.2172 C.3       1 <0>        -0.1510
      2 C2         10.1498    2.9102    7.3997 C.3       1 <0>         0.0499
      3 N1          9.9972    3.3533    6.0075 N.3       1 <0>        -0.5402
      4 C3         11.2367    3.1387    5.2477 C.3       1 <0>         0.0569
      5 C4         11.0629    3.6845    3.8284 C.3       1 <0>         0.0590
      6 N2          9.9288    3.0094    3.1822 N.3       1 <0>        -0.5268
      7 C5          8.6893    3.2240    3.9420 C.3       1 <0>         0.0561
      8 C6          8.8631    2.6781    5.3612 C.3       1 <0>         0.0550
      9 C7          9.7762    3.4524    1.7899 C.3       1 <0>         0.0729
     10 C8          8.7879    2.5601    1.0842 C.ar      1 <0>        -0.0447
     11 C9          7.5022    3.0092    0.8434 C.ar      1 <0>        -0.0942
     12 C10         6.5958    2.1959    0.1923 C.ar      1 <0>        -0.0884
     13 C11         6.9731    0.9214   -0.2106 C.ar      1 <0>         0.1720
     14 C12         8.2646    0.4735    0.0326 C.ar      1 <0>        -0.1038
     15 C13         9.1683    1.2940    0.6793 C.ar      1 <0>        -0.1404
     16 C14        10.5702    0.8086    0.9441 C.3       1 <0>         0.5095
     17 F1         10.7250   -0.4786    0.4184 F         1 <0>        -0.1841
     18 F2         11.4860    1.6739    0.3362 F         1 <0>        -0.1795
     19 F3         10.8008    0.7797    2.3237 F         1 <0>        -0.1519
     20 N3          6.0552    0.0926   -0.8655 N.am      1 <0>        -0.6948
     21 C15         4.7513    0.1311   -0.5266 C.2       1 <0>         0.7096
     22 O1          4.3858    0.8194    0.4067 O.2       1 <0>        -0.5587
     23 N4          3.8526   -0.5934   -1.2222 N.am      1 <0>        -0.6930
     24 C16         2.4863   -0.4790   -0.9335 C.ar      1 <0>         0.1697
     25 C17         1.5516   -0.5518   -1.9576 C.ar      1 <0>        -0.1297
     26 C18         0.2052   -0.4394   -1.6724 C.ar      1 <0>        -0.0930
     27 C19        -0.2137   -0.2543   -0.3628 C.ar      1 <0>         0.0783
     28 C20         0.7198   -0.1815    0.6609 C.ar      1 <0>        -0.0936
     29 C21         2.0665   -0.2932    0.3769 C.ar      1 <0>        -0.1059
     30 O2         -1.5393   -0.1385   -0.0833 O.3       1 <0>        -0.2412
     31 C22        -2.3129   -1.2454   -0.1983 C.ar      1 <0>         0.3851
     32 C23        -3.6894   -1.1637   -0.0277 C.ar      1 <0>        -0.3141
     33 C24        -4.4409   -2.3284   -0.1601 C.ar      1 <0>         0.4620
     34 N5         -3.8165   -3.4721   -0.4341 N.ar      1 <0>        -0.5954
     35 C25        -2.5082   -3.5081   -0.5840 C.ar      1 <0>         0.3753
     36 N6         -1.7644   -2.4263   -0.4707 N.ar      1 <0>        -0.6017
     37 N7         -5.8178   -2.2988   -0.0034 N.pl3     1 <0>        -0.7231
     38 C26        -6.4937   -1.0344    0.2979 C.3       1 <0>         0.0898
     39 H1          9.0560    3.0401    9.2597 H         1 <0>         0.0595
     40 H2          8.0243    2.9380    7.7928 H         1 <0>         0.0547
     41 H3          8.8763    4.4695    8.1868 H         1 <0>         0.0631
     42 H4         11.0672    3.3441    7.8241 H         1 <0>         0.0746
     43 H5         10.2153    1.8126    7.4301 H         1 <0>         0.0335
     44 H6         12.0665    3.6630    5.7442 H         1 <0>         0.0800
     45 H7         11.4577    2.0621    5.2031 H         1 <0>         0.0441
     46 H8         10.8699    4.7665    3.8728 H         1 <0>         0.0445
     47 H9         11.9796    3.4990    3.2494 H         1 <0>         0.0809
     48 H10         8.4684    4.3007    3.9867 H         1 <0>         0.0435
     49 H11         7.8594    2.6998    3.4455 H         1 <0>         0.0808
     50 H12         9.0569    1.5962    5.3178 H         1 <0>         0.0425
     51 H13         7.9470    2.8635    5.9412 H         1 <0>         0.0819
     52 H14         9.4106    4.4897    1.7732 H         1 <0>         0.0550
     53 H15        10.7489    3.3982    1.2791 H         1 <0>         0.0962
     54 H16         7.2082    3.9988    1.1607 H         1 <0>         0.1355
     55 H17         5.5933    2.5489    0.0003 H         1 <0>         0.1427
     56 H18         8.5625   -0.5152   -0.2838 H         1 <0>         0.1409
     57 H19         6.3979   -0.5903   -1.6569 H         1 <0>         0.4343
     58 H20         4.1917   -1.2745   -2.0166 H         1 <0>         0.4332
     59 H21         1.8775   -0.6959   -2.9771 H         1 <0>         0.1323
     60 H22        -0.5220   -0.4960   -2.4689 H         1 <0>         0.1282
     61 H23         0.3932   -0.0371    1.6801 H         1 <0>         0.1328
     62 H24         2.7931   -0.2369    1.1740 H         1 <0>         0.1466
     63 H25        -4.1646   -0.2205    0.1982 H         1 <0>         0.1463
     64 H26        -2.0315   -4.4515   -0.8058 H         1 <0>         0.1996
     65 H27        -6.4030   -3.2246   -0.1053 H         1 <0>         0.4362
     66 H28        -7.5762   -1.2091    0.3856 H         1 <0>         0.0851
     67 H29        -6.3028   -0.3146   -0.5117 H         1 <0>         0.0598
     68 H30        -6.1096   -0.6302    1.2461 H         1 <0>         0.0599
@<TRIPOS>BOND
     1    1    2 1
     2    1   39 1
     3    1   40 1
     4    1   41 1
     5    2    3 1
     6    2   42 1
     7    2   43 1
     8    3    8 1
     9    3    4 1
    10    4    5 1
    11    4   44 1
    12    4   45 1
    13    5    6 1
    14    5   46 1
    15    5   47 1
    16    6    7 1
    17    6    9 1
    18    7    8 1
    19    7   48 1
    20    7   49 1
    21    8   50 1
    22    8   51 1
    23    9   10 1
    24    9   52 1
    25    9   53 1
    26   10   15 ar
    27   10   11 ar
    28   11   12 ar
    29   11   54 1
    30   12   13 ar
    31   12   55 1
    32   13   14 ar
    33   13   20 1
    34   14   15 ar
    35   14   56 1
    36   15   16 1
    37   16   17 1
    38   16   18 1
    39   16   19 1
    40   20   21 am
    41   20   57 1
    42   21   22 2
    43   21   23 am
    44   23   24 1
    45   23   58 1
    46   24   29 ar
    47   24   25 ar
    48   25   26 ar
    49   25   59 1
    50   26   27 ar
    51   26   60 1
    52   27   28 ar
    53   27   30 1
    54   28   29 ar
    55   28   61 1
    56   29   62 1
    57   30   31 1
    58   31   36 ar
    59   31   32 ar
    60   32   33 ar
    61   32   63 1
    62   33   34 ar
    63   33   37 1
    64   34   35 ar
    65   35   36 ar
    66   35   64 1
    67   37   38 1
    68   37   65 1
    69   38   66 1
    70   38   67 1
    71   38   68 1
@<TRIPOS>MOLECULE
ZINC35902489
   54    57     0     0     0
SMALL
USER_CHARGES

@<TRIPOS>ATOM
      1 C1         -0.2366    1.5009   -0.1002 C.3       1 <0>        -0.1868
      2 C2          0.0023   -0.0068    0.0032 C.3       1 <0>         0.1262
      3 H1         -0.9541   -0.5203    0.1009 H         1 <0>         0.1027
      4 C3          0.8549   -0.2986    1.2111 C.ar      1 <0>        -0.0648
      5 C4          2.2095   -0.0176    1.1860 C.ar      1 <0>        -0.0174
      6 C5          2.9928   -0.2851    2.2943 C.ar      1 <0>        -0.0698
      7 C6          2.4230   -0.8330    3.4283 C.ar      1 <0>        -0.1110
      8 C7          1.0682   -1.1142    3.4552 C.ar      1 <0>         0.1278
      9 C8          0.2825   -0.8418    2.3465 C.ar      1 <0>        -0.0562
     10 Cl1        -1.4183   -1.1878    2.3810 Cl        1 <0>        -0.0259
     11 F1          0.5110   -1.6502    4.5631 F         1 <0>        -0.1090
     12 Cl2         2.9265    0.6706   -0.2374 Cl        1 <0>        -0.0327
     13 O1          0.6709   -0.4649   -1.1737 O.3       1 <0>        -0.2750
     14 C9         -0.1076   -0.7749   -2.2450 C.ar      1 <0>         0.0922
     15 C10        -1.4721   -0.5389   -2.2126 C.ar      1 <0>        -0.0840
     16 C11        -2.2312   -0.8738   -3.3386 C.ar      1 <0>         0.0162
     17 C12        -1.5947   -1.4281   -4.4440 C.ar      1 <0>         0.0781
     18 N1         -0.2926   -1.6388   -4.4381 N.ar      1 <0>        -0.4651
     19 C13         0.4590   -1.3297   -3.3941 C.ar      1 <0>         0.4321
     20 N2          1.8309   -1.5659   -3.4397 N.pl3     1 <0>        -0.8070
     21 C14        -3.6979   -0.6410   -3.3535 C.2       1 <0>        -0.2043
     22 C15        -4.4627   -0.0847   -2.3100 C.2       1 <0>         0.0864
     23 N3         -5.7097   -0.0414   -2.6987 N.2       1 <0>        -0.2628
     24 N4         -5.7898   -0.5640   -3.9951 N.pl3     1 <0>        -0.3634
     25 C16        -4.5480   -0.9216   -4.3826 C.2       1 <0>         0.0838
     26 C17        -7.0103   -0.6949   -4.7948 C.3       1 <0>         0.1502
     27 C18        -6.9271   -1.9605   -5.6529 C.3       1 <0>        -0.1621
     28 C19        -8.1684   -2.0490   -6.5433 C.3       1 <0>        -0.0015
     29 N5         -8.2355   -0.8693   -7.4141 N.4       1 <0>        -0.5088
     30 C20        -8.3877    0.3426   -6.6000 C.3       1 <0>        -0.0035
     31 C21        -7.1548    0.5231   -5.7117 C.3       1 <0>        -0.1623
     32 H2          0.7199    2.0145   -0.1979 H         1 <0>         0.0878
     33 H3         -0.8533    1.7120   -0.9739 H         1 <0>         0.0744
     34 H4         -0.7466    1.8504    0.7975 H         1 <0>         0.0940
     35 H5          4.0502   -0.0661    2.2735 H         1 <0>         0.1611
     36 H6          3.0352   -1.0420    4.2932 H         1 <0>         0.1666
     37 H7         -1.9384   -0.1073   -1.3393 H         1 <0>         0.1754
     38 H8         -2.1735   -1.6895   -5.3175 H         1 <0>         0.2000
     39 H9          2.3867   -1.3451   -2.6760 H         1 <0>         0.4445
     40 H10         2.2306   -1.9511   -4.2352 H         1 <0>         0.4249
     41 H11        -4.0846    0.2477   -1.3545 H         1 <0>         0.1959
     42 H12        -4.2766   -1.3540   -5.3343 H         1 <0>         0.1825
     43 H13        -7.8744   -0.7577   -4.1333 H         1 <0>         0.1289
     44 H14        -6.0340   -1.9194   -6.2765 H         1 <0>         0.0978
     45 H15        -6.8801   -2.8365   -5.0059 H         1 <0>         0.1266
     46 H16        -8.1124   -2.9491   -7.1555 H         1 <0>         0.1473
     47 H17        -9.0608   -2.0903   -5.9188 H         1 <0>         0.1409
     48 H18        -7.3873   -0.8043   -7.9567 H         1 <0>         0.4290
     49 H19        -8.4936    1.2082   -7.2540 H         1 <0>         0.1462
     50 H20        -9.2754    0.2503   -5.9742 H         1 <0>         0.1402
     51 H21        -7.2705    1.4224   -5.1068 H         1 <0>         0.1256
     52 H22        -6.2665    0.6158   -6.3365 H         1 <0>         0.0962
     53 H23        -9.0248   -0.9564   -8.0365 H         1 <0>         0.4414
     54 H24         0.1260   -2.0273   -5.2222 H         1 <0>         0.4508
@<TRIPOS>BOND
     1    1    2 1
     2    1   32 1
     3    1   33 1
     4    1   34 1
     5    2    3 1
     6    2    4 1
     7    2   13 1
     8    4    9 ar
     9    4    5 ar
    10    5    6 ar
    11    5   12 1
    12    6    7 ar
    13    6   35 1
    14    7    8 ar
    15    7   36 1
    16    8    9 ar
    17    8   11 1
    18    9   10 1
    19   13   14 1
    20   14   19 ar
    21   14   15 ar
    22   15   16 ar
    23   15   37 1
    24   16   17 ar
    25   16   21 1
    26   17   18 ar
    27   17   38 1
    28   18   19 ar
    29   18   54 1
    30   19   20 1
    31   20   39 1
    32   20   40 1
    33   21   25 2
    34   21   22 1
    35   22   23 2
    36   22   41 1
    37   23   24 1
    38   24   25 1
    39   24   26 1
    40   25   42 1
    41   26   31 1
    42   26   27 1
    43   26   43 1
    44   27   28 1
    45   27   44 1
    46   27   45 1
    47   28   29 1
    48   28   46 1
    49   28   47 1
    50   29   30 1
    51   29   48 1
    52   29   53 1
    53   30   31 1
    54   30   49 1
    55   30   50 1
    56   31   51 1
    57   31   52 1
@<TRIPOS>MOLECULE
ZINC35902489
   53    56     0     0     0
SMALL
USER_CHARGES

@<TRIPOS>ATOM
      1 C1         -0.2366    1.5009   -0.1002 C.3       1 <0>        -0.1800
      2 C2          0.0023   -0.0068    0.0032 C.3       1 <0>         0.1238
      3 H1         -0.9541   -0.5203    0.1009 H         1 <0>         0.0939
      4 C3          0.8549   -0.2986    1.2111 C.ar      1 <0>        -0.0507
      5 C4          2.2095   -0.0176    1.1860 C.ar      1 <0>        -0.0168
      6 C5          2.9928   -0.2851    2.2943 C.ar      1 <0>        -0.0751
      7 C6          2.4230   -0.8330    3.4283 C.ar      1 <0>        -0.1208
      8 C7          1.0682   -1.1142    3.4552 C.ar      1 <0>         0.1197
      9 C8          0.2825   -0.8418    2.3465 C.ar      1 <0>        -0.0574
     10 Cl1        -1.4183   -1.1878    2.3810 Cl        1 <0>        -0.0303
     11 F1          0.5110   -1.6502    4.5631 F         1 <0>        -0.1157
     12 Cl2         2.9265    0.6706   -0.2374 Cl        1 <0>        -0.0266
     13 O1          0.6709   -0.4649   -1.1737 O.3       1 <0>        -0.2903
     14 C9         -0.1076   -0.7749   -2.2450 C.ar      1 <0>         0.0299
     15 C10        -1.4721   -0.5389   -2.2126 C.ar      1 <0>        -0.1219
     16 C11        -2.2312   -0.8738   -3.3386 C.ar      1 <0>        -0.0860
     17 C12        -1.5947   -1.4281   -4.4440 C.ar      1 <0>         0.1181
     18 N1         -0.2926   -1.6388   -4.4381 N.ar      1 <0>        -0.5097
     19 C13         0.4590   -1.3297   -3.3941 C.ar      1 <0>         0.3993
     20 N2          1.8309   -1.5659   -3.4397 N.pl3     1 <0>        -0.8414
     21 C14        -3.6979   -0.6410   -3.3535 C.2       1 <0>        -0.1558
     22 C15        -4.4627   -0.0847   -2.3100 C.2       1 <0>         0.0711
     23 N3         -5.7097   -0.0414   -2.6987 N.2       1 <0>        -0.2815
     24 N4         -5.7898   -0.5640   -3.9951 N.pl3     1 <0>        -0.3795
     25 C16        -4.5480   -0.9216   -4.3826 C.2       1 <0>         0.0495
     26 C17        -7.0103   -0.6949   -4.7948 C.3       1 <0>         0.1592
     27 C18        -6.9271   -1.9605   -5.6529 C.3       1 <0>        -0.1636
     28 C19        -8.1684   -2.0490   -6.5433 C.3       1 <0>         0.0000
     29 N5         -8.2355   -0.8693   -7.4141 N.4       1 <0>        -0.5082
     30 C20        -8.3877    0.3426   -6.6000 C.3       1 <0>        -0.0019
     31 C21        -7.1548    0.5231   -5.7117 C.3       1 <0>        -0.1640
     32 H2          0.7199    2.0145   -0.1979 H         1 <0>         0.0791
     33 H3         -0.8533    1.7120   -0.9739 H         1 <0>         0.0735
     34 H4         -0.7466    1.8504    0.7975 H         1 <0>         0.0781
     35 H5          4.0502   -0.0661    2.2735 H         1 <0>         0.1565
     36 H6          3.0352   -1.0420    4.2932 H         1 <0>         0.1608
     37 H7         -1.9384   -0.1073   -1.3393 H         1 <0>         0.1391
     38 H8         -2.1735   -1.6895   -5.3175 H         1 <0>         0.1503
     39 H9          2.3867   -1.3451   -2.6760 H         1 <0>         0.4140
     40 H10         2.2306   -1.9511   -4.2352 H         1 <0>         0.4065
     41 H11        -4.0846    0.2477   -1.3545 H         1 <0>         0.1874
     42 H12        -4.2766   -1.3540   -5.3343 H         1 <0>         0.1760
     43 H13        -7.8744   -0.7577   -4.1333 H         1 <0>         0.1197
     44 H14        -6.0340   -1.9194   -6.2765 H         1 <0>         0.0999
     45 H15        -6.8801   -2.8365   -5.0059 H         1 <0>         0.1250
     46 H16        -8.1124   -2.9491   -7.1555 H         1 <0>         0.1440
     47 H17        -9.0608   -2.0903   -5.9188 H         1 <0>         0.1374
     48 H18        -7.3873   -0.8043   -7.9567 H         1 <0>         0.4300
     49 H19        -8.4936    1.2082   -7.2540 H         1 <0>         0.1421
     50 H20        -9.2754    0.2503   -5.9742 H         1 <0>         0.1368
     51 H21        -7.2705    1.4224   -5.1068 H         1 <0>         0.1226
     52 H22        -6.2665    0.6158   -6.3365 H         1 <0>         0.0966
     53 H23        -9.0248   -0.9564   -8.0365 H         1 <0>         0.4369
@<TRIPOS>BOND
     1    1    2 1
     2    1   32 1
     3    1   33 1
     4    1   34 1
     5    2    3 1
     6    2    4 1
     7    2   13 1
     8    4    9 ar
     9    4    5 ar
    10    5    6 ar
    11    5   12 1
    12    6    7 ar
    13    6   35 1
    14    7    8 ar
    15    7   36 1
    16    8    9 ar
    17    8   11 1
    18    9   10 1
    19   13   14 1
    20   14   19 ar
    21   14   15 ar
    22   15   16 ar
    23   15   37 1
    24   16   17 ar
    25   16   21 1
    26   17   18 ar
    27   17   38 1
    28   18   19 ar
    29   19   20 1
    30   20   39 1
    31   20   40 1
    32   21   25 2
    33   21   22 1
    34   22   23 2
    35   22   41 1
    36   23   24 1
    37   24   25 1
    38   24   26 1
    39   25   42 1
    40   26   31 1
    41   26   27 1
    42   26   43 1
    43   27   28 1
    44   27   44 1
    45   27   45 1
    46   28   29 1
    47   28   46 1
    48   28   47 1
    49   29   30 1
    50   29   48 1
    51   29   53 1
    52   30   31 1
    53   30   49 1
    54   30   50 1
    55   31   51 1
    56   31   52 1
@<TRIPOS>MOLECULE
ZINC03875028
   47    50     0     0     0
SMALL
USER_CHARGES

@<TRIPOS>ATOM
      1 C1         -2.5941    1.6316   -0.5549 C.3       1 <0>         0.0875
      2 N1         -1.4727    0.8249   -1.0428 N.pl3     1 <0>        -1.0063
      3 C2         -0.7489    1.2308   -2.2501 C.3       1 <0>         0.0907
      4 S1         -1.0231   -0.5457   -0.2294 S.o2      1 <0>         2.6970
      5 O1          0.3400   -0.7819   -0.5540 O.2       1 <0>        -0.9509
      6 O2         -1.4711   -0.3886    1.1099 O.2       1 <0>        -0.9503
      7 C3         -1.9430   -1.8833   -0.9144 C.ar      1 <0>        -0.7042
      8 C4         -3.1793   -2.2152   -0.3852 C.ar      1 <0>         0.0215
      9 C5         -3.9118   -3.2601   -0.9107 C.ar      1 <0>        -0.1588
     10 C6         -3.4122   -3.9932   -1.9816 C.ar      1 <0>         0.2096
     11 C7         -2.1609   -3.6544   -2.5144 C.ar      1 <0>        -0.1334
     12 C8         -1.4332   -2.5953   -1.9811 C.ar      1 <0>         0.0424
     13 C9         -1.9103   -4.6006   -3.6241 C.2       1 <0>        -0.1424
     14 C10        -0.8016   -4.6562   -4.4470 C.2       1 <0>         0.0616
     15 C11        -0.7256   -5.6316   -5.4625 C.2       1 <0>        -0.0097
     16 C12        -0.1011   -6.8678   -5.3686 C.2       1 <0>        -0.1392
     17 C13        -0.2684   -7.5007   -6.5951 C.2       1 <0>        -0.1603
     18 C14        -0.9747   -6.6681   -7.4088 C.2       1 <0>         0.0349
     19 N2         -1.2634   -5.5344   -6.7296 N.pl3     1 <0>        -0.5237
     20 H1         -1.7630   -4.7786   -7.0760 H         1 <0>         0.4119
     21 C15        -1.3537   -7.0049   -8.8315 C.3       1 <0>        -0.0514
     22 C16        -0.4837   -8.1772   -9.2999 C.3       1 <0>        -0.1118
     23 C17        -0.5357   -9.3006   -8.2611 C.3       1 <0>        -0.1202
     24 C18         0.2244   -8.8674   -7.0016 C.3       1 <0>        -0.0477
     25 C19        -3.0944   -5.4683   -3.6609 C.2       1 <0>         0.5549
     26 O3         -3.2848   -6.3870   -4.4381 O.2       1 <0>        -0.4682
     27 N3         -3.9316   -5.0713   -2.6876 N.am      1 <0>        -0.6564
     28 H2         -2.7402    2.4871   -1.2144 H         1 <0>         0.0834
     29 H3         -3.4994    1.0247   -0.5413 H         1 <0>         0.0603
     30 H4         -2.3771    1.9832    0.4537 H         1 <0>         0.0709
     31 H5          0.0785    1.8849   -1.9751 H         1 <0>         0.0635
     32 H6         -0.3606    0.3466   -2.7555 H         1 <0>         0.0714
     33 H7         -1.4262    1.7630   -2.9180 H         1 <0>         0.0753
     34 H8         -3.5737   -1.6510    0.4470 H         1 <0>         0.1507
     35 H9         -4.8745   -3.5091   -0.4892 H         1 <0>         0.1416
     36 H10        -0.4715   -2.3341   -2.3974 H         1 <0>         0.1469
     37 H11         0.0066   -3.9527   -4.3123 H         1 <0>         0.1492
     38 H12         0.4165   -7.2627   -4.5069 H         1 <0>         0.1369
     39 H13        -2.4053   -7.2885   -8.8739 H         1 <0>         0.0761
     40 H14        -1.1802   -6.1402   -9.4721 H         1 <0>         0.0712
     41 H15        -0.8570   -8.5477  -10.2546 H         1 <0>         0.0694
     42 H16         0.5461   -7.8402   -9.4190 H         1 <0>         0.0673
     43 H17        -1.5741   -9.5106   -8.0047 H         1 <0>         0.0637
     44 H18        -0.0746  -10.1982   -8.6732 H         1 <0>         0.0660
     45 H19         1.2926   -8.8242   -7.2141 H         1 <0>         0.0682
     46 H20         0.0380   -9.5791   -6.1973 H         1 <0>         0.0687
     47 H21        -4.7890   -5.4848   -2.5014 H         1 <0>         0.4224
@<TRIPOS>BOND
     1    1    2 1
     2    1   28 1
     3    1   29 1
     4    1   30 1
     5    2    3 1
     6    2    4 1
     7    3   31 1
     8    3   32 1
     9    3   33 1
    10    4    5 2
    11    4    6 2
    12    4    7 1
    13    7   12 ar
    14    7    8 ar
    15    8    9 ar
    16    8   34 1
    17    9   10 ar
    18    9   35 1
    19   10   27 1
    20   10   11 ar
    21   11   12 ar
    22   11   13 1
    23   12   36 1
    24   13   14 2
    25   13   25 1
    26   14   15 1
    27   14   37 1
    28   15   19 1
    29   15   16 2
    30   16   17 1
    31   16   38 1
    32   17   24 1
    33   17   18 2
    34   18   19 1
    35   18   21 1
    36   19   20 1
    37   21   22 1
    38   21   39 1
    39   21   40 1
    40   22   23 1
    41   22   41 1
    42   22   42 1
    43   23   24 1
    44   23   43 1
    45   23   44 1
    46   24   45 1
    47   24   46 1
    48   25   26 2
    49   25   27 am
    50   27   47 1
@<TRIPOS>MOLECULE
ZINC00602803
   57    59     0     0     0
SMALL
USER_CHARGES

@<TRIPOS>ATOM
      1 C1         -1.3402   -4.8618    1.2145 C.3       1 <0>        -0.1534
      2 C2         -0.8181   -3.6495    0.4408 C.3       1 <0>         0.0511
      3 O1         -0.7742   -2.5142    1.3074 O.3       1 <0>        -0.3148
      4 C3         -0.3304   -1.3470    0.7727 C.ar      1 <0>         0.1525
      5 C4          0.0498   -1.3049   -0.5488 C.ar      1 <0>        -0.1831
      6 C5          0.5092   -0.1023   -1.1071 C.ar      1 <0>         0.1876
      7 C6          0.5748    1.0570   -0.2965 C.ar      1 <0>        -0.1304
      8 C7          0.1883    0.9932    1.0499 C.ar      1 <0>        -0.0592
      9 C8         -0.2650   -0.1967    1.5740 C.ar      1 <0>         0.1185
     10 N1         -0.6575   -0.2608    2.9161 N.am      1 <0>        -0.6449
     11 C9         -0.1566    0.6173    3.8075 C.2       1 <0>         0.5328
     12 O2          0.7152    1.3957    3.4703 O.2       1 <0>        -0.5071
     13 C10        -0.6641    0.6344    5.1877 C.2       1 <0>        -0.1271
     14 C11        -0.1697    1.5011    6.0673 C.2       1 <0>        -0.1492
     15 C12        -0.6897    1.5186    7.4817 C.3       1 <0>         0.0302
     16 C13         1.3312    2.5206    8.3617 C.3       1 <0>        -0.0486
     17 C14        -0.0528    1.1357    9.7861 C.3       1 <0>        -0.0433
     18 C15         1.0386    2.2666   -0.8642 C.ar      1 <0>         0.2844
     19 C16         1.4144    2.2536   -2.2161 C.ar      1 <0>        -0.1029
     20 C17         1.3165    1.0573   -2.9447 C.ar      1 <0>         0.2010
     21 N2          0.8834   -0.0478   -2.3940 N.ar      1 <0>        -0.4743
     22 C18         1.8922    3.4476   -2.8459 C.1       1 <0>         0.2469
     23 N3          2.2712    4.3948   -3.3456 N.1       1 <0>        -0.3851
     24 N4          1.1194    3.4219   -0.1130 N.pl3     1 <0>        -0.6979
     25 C19         2.3677    3.9814    0.1773 C.ar      1 <0>         0.1846
     26 C20         3.4715    3.1592    0.3659 C.ar      1 <0>        -0.1231
     27 C21         4.7048    3.7137    0.6463 C.ar      1 <0>        -0.1069
     28 C22         4.8398    5.0877    0.7520 C.ar      1 <0>         0.0844
     29 C23         3.7394    5.9099    0.5700 C.ar      1 <0>        -0.0407
     30 C24         2.5044    5.3592    0.2831 C.ar      1 <0>        -0.1222
     31 Cl1         3.9119    7.6322    0.7020 Cl        1 <0>        -0.0373
     32 F1          6.0462    5.6274    1.0324 F         1 <0>        -0.1244
     33 H1         -2.3423   -4.6506    1.5877 H         1 <0>         0.0676
     34 H2         -1.3737   -5.7279    0.5535 H         1 <0>         0.0859
     35 H3         -0.6765   -5.0706    2.0536 H         1 <0>         0.0665
     36 H4         -1.4818   -3.4407   -0.3983 H         1 <0>         0.0727
     37 H5          0.1840   -3.8607    0.0676 H         1 <0>         0.0719
     38 H6         -0.0049   -2.1965   -1.1558 H         1 <0>         0.1557
     39 H7          0.2375    1.8756    1.6707 H         1 <0>         0.1646
     40 H8         -1.2900   -0.9373    3.2047 H         1 <0>         0.4221
     41 H9         -1.4381   -0.0567    5.4870 H         1 <0>         0.1454
     42 H10         0.6043    2.1922    5.7680 H         1 <0>         0.1533
     43 H11        -1.1915    2.4672    7.6726 H         1 <0>         0.1468
     44 H12        -1.3959    0.6999    7.6193 H         1 <0>         0.1366
     45 H13         0.7789    3.4221    8.6269 H         1 <0>         0.1257
     46 H14         2.1523    2.3777    9.0642 H         1 <0>         0.1250
     47 H15         1.7302    2.6227    7.3524 H         1 <0>         0.1232
     48 H16        -0.6601    0.2309    9.8124 H         1 <0>         0.1226
     49 H17         0.7976    1.0222   10.4584 H         1 <0>         0.1252
     50 H18        -0.6553    1.9870   10.1029 H         1 <0>         0.1250
     51 H19         1.6056    1.0492   -3.9853 H         1 <0>         0.1765
     52 H20         0.3102    3.8456    0.2136 H         1 <0>         0.4201
     53 H21         3.3660    2.0871    0.2888 H         1 <0>         0.1375
     54 H22         5.5639    3.0747    0.7881 H         1 <0>         0.1500
     55 H23         1.6466    6.0000    0.1416 H         1 <0>         0.1457
     56 N5          0.4465    1.3376    8.4096 N.4       1 <0>        -0.3970
     57 H24         0.9816    0.5092    8.1241 H         1 <0>         0.4334
@<TRIPOS>BOND
     1    1    2 1
     2    1   33 1
     3    1   34 1
     4    1   35 1
     5    2    3 1
     6    2   36 1
     7    2   37 1
     8    3    4 1
     9    4    9 ar
    10    4    5 ar
    11    5    6 ar
    12    5   38 1
    13    6   21 ar
    14    6    7 ar
    15    7    8 ar
    16    7   18 ar
    17    8    9 ar
    18    8   39 1
    19    9   10 1
    20   10   11 am
    21   10   40 1
    22   11   12 2
    23   11   13 1
    24   13   14 2
    25   13   41 1
    26   14   15 1
    27   14   42 1
    28   15   43 1
    29   15   44 1
    30   15   56 1
    31   16   45 1
    32   16   46 1
    33   16   47 1
    34   16   56 1
    35   17   48 1
    36   17   49 1
    37   17   50 1
    38   17   56 1
    39   18   19 ar
    40   18   24 1
    41   19   20 ar
    42   19   22 1
    43   20   21 ar
    44   20   51 1
    45   22   23 3
    46   24   25 1
    47   24   52 1
    48   25   30 ar
    49   25   26 ar
    50   26   27 ar
    51   26   53 1
    52   27   28 ar
    53   27   54 1
    54   28   29 ar
    55   28   32 1
    56   29   30 ar
    57   29   31 1
    58   30   55 1
    59   56   57 1
