@<TRIPOS>MOLECULE
ZINC03807804
   42    45     0     0     0
SMALL
USER_CHARGES

@<TRIPOS>ATOM
      1 C1         -0.1404    1.0961   -0.4391 C.ar      1 <0>        -0.1020
      2 C2          0.9979    1.8788   -0.4898 C.ar      1 <0>        -0.1176
      3 C3          2.2443    1.2953   -0.3597 C.ar      1 <0>        -0.1015
      4 C4          2.3524   -0.0709   -0.1784 C.ar      1 <0>        -0.0957
      5 C5          1.2140   -0.8534   -0.1268 C.ar      1 <0>        -0.0879
      6 C6         -0.0323   -0.2701   -0.2583 C.ar      1 <0>        -0.1206
      7 C7          3.7112   -0.7071   -0.0376 C.3       1 <0>         0.3033
      8 C8          3.5548   -2.1991    0.1055 C.ar      1 <0>        -0.0980
      9 C9          4.1018   -3.0454   -0.8408 C.ar      1 <0>        -0.0924
     10 C10         3.9584   -4.4140   -0.7096 C.ar      1 <0>        -0.1192
     11 C11         3.2684   -4.9364    0.3683 C.ar      1 <0>        -0.1040
     12 C12         2.7222   -4.0902    1.3152 C.ar      1 <0>        -0.1220
     13 C13         2.8693   -2.7218    1.1862 C.ar      1 <0>        -0.0909
     14 C14         4.5372   -0.4037   -1.2609 C.ar      1 <0>        -0.0899
     15 C15         5.7856    0.1744   -1.1262 C.ar      1 <0>        -0.0993
     16 C16         6.5434    0.4528   -2.2482 C.ar      1 <0>        -0.1105
     17 C17         6.0533    0.1533   -3.5058 C.ar      1 <0>        -0.0985
     18 C18         4.8053   -0.4246   -3.6418 C.ar      1 <0>        -0.1111
     19 C19         4.0487   -0.7087   -2.5187 C.ar      1 <0>        -0.0192
     20 Cl1         2.4837   -1.4408   -2.6883 Cl        1 <0>        -0.0484
     21 N1          4.3811   -0.1702    1.1495 N.pl3     1 <0>        -0.4460
     22 C20         5.5751   -0.5924    1.6690 C.2       1 <0>        -0.0513
     23 C21         5.8188    0.1680    2.7534 C.2       1 <0>        -0.0258
     24 N2          4.8014    1.0309    2.8923 N.2       1 <0>        -0.4890
     25 C22         3.9390    0.8376    1.9322 C.2       1 <0>         0.1875
     26 H1         -1.1143    1.5526   -0.5363 H         1 <0>         0.1257
     27 H2          0.9135    2.9461   -0.6315 H         1 <0>         0.1275
     28 H3          3.1337    1.9067   -0.4001 H         1 <0>         0.1221
     29 H4          1.2985   -1.9209    0.0142 H         1 <0>         0.1329
     30 H5         -0.9216   -0.8816   -0.2183 H         1 <0>         0.1255
     31 H6          4.6409   -2.6372   -1.6830 H         1 <0>         0.1253
     32 H7          4.3851   -5.0750   -1.4493 H         1 <0>         0.1258
     33 H8          3.1557   -6.0056    0.4705 H         1 <0>         0.1257
     34 H9          2.1828   -4.4983    2.1571 H         1 <0>         0.1266
     35 H10         2.4458   -2.0608    1.9279 H         1 <0>         0.1217
     36 H11         6.1689    0.4089   -0.1441 H         1 <0>         0.1411
     37 H12         7.5185    0.9047   -2.1424 H         1 <0>         0.1336
     38 H13         6.6456    0.3714   -4.3821 H         1 <0>         0.1361
     39 H14         4.4225   -0.6582   -4.6243 H         1 <0>         0.1382
     40 H15         6.2011   -1.3835    1.2836 H         1 <0>         0.1702
     41 H16         6.6821    0.0956    3.3983 H         1 <0>         0.1703
     42 H17         3.0222    1.3901    1.7888 H         1 <0>         0.2017
@<TRIPOS>BOND
     1    1    6 ar
     2    1    2 ar
     3    1   26 1
     4    2    3 ar
     5    2   27 1
     6    3    4 ar
     7    3   28 1
     8    4    5 ar
     9    4    7 1
    10    5    6 ar
    11    5   29 1
    12    6   30 1
    13    7    8 1
    14    7   14 1
    15    7   21 1
    16    8   13 ar
    17    8    9 ar
    18    9   10 ar
    19    9   31 1
    20   10   11 ar
    21   10   32 1
    22   11   12 ar
    23   11   33 1
    24   12   13 ar
    25   12   34 1
    26   13   35 1
    27   14   19 ar
    28   14   15 ar
    29   15   16 ar
    30   15   36 1
    31   16   17 ar
    32   16   37 1
    33   17   18 ar
    34   17   38 1
    35   18   19 ar
    36   18   39 1
    37   19   20 1
    38   21   25 1
    39   21   22 1
    40   22   23 2
    41   22   40 1
    42   23   24 1
    43   23   41 1
    44   24   25 2
    45   25   42 1
@<TRIPOS>MOLECULE
ZINC03807804
   43    46     0     0     0
SMALL
USER_CHARGES

@<TRIPOS>ATOM
      1 C1          0.5987    1.7832    1.4981 C.ar      1 <0>        -0.0892
      2 C2          0.3739    1.0091    0.3751 C.ar      1 <0>        -0.1131
      3 C3          1.3811    0.2033   -0.1220 C.ar      1 <0>        -0.1073
      4 C4          2.6134    0.1720    0.5037 C.ar      1 <0>        -0.1169
      5 C5          2.8385    0.9468    1.6262 C.ar      1 <0>        -0.0809
      6 C6          1.8308    1.7515    2.1240 C.ar      1 <0>        -0.1100
      7 C7          3.7112   -0.7071   -0.0376 C.3       1 <0>         0.3108
      8 C8          4.1045   -0.2308   -1.4122 C.ar      1 <0>        -0.1114
      9 C9          4.1390   -1.1216   -2.4687 C.ar      1 <0>        -0.1224
     10 C10         4.4997   -0.6846   -3.7296 C.ar      1 <0>        -0.1050
     11 C11         4.8255    0.6431   -3.9340 C.ar      1 <0>        -0.0966
     12 C12         4.7901    1.5341   -2.8777 C.ar      1 <0>        -0.1040
     13 C13         4.4252    1.0980   -1.6177 C.ar      1 <0>        -0.0870
     14 C14         4.9061   -0.6400    0.8783 C.ar      1 <0>        -0.1243
     15 C15         6.0946   -0.0984    0.4255 C.ar      1 <0>        -0.0806
     16 C16         7.1906   -0.0368    1.2654 C.ar      1 <0>        -0.1064
     17 C17         7.0990   -0.5167    2.5588 C.ar      1 <0>        -0.0779
     18 C18         5.9114   -1.0584    3.0126 C.ar      1 <0>        -0.1060
     19 C19         4.8121   -1.1151    2.1740 C.ar      1 <0>        -0.0235
     20 Cl1         3.3179   -1.7894    2.7455 Cl        1 <0>        -0.0546
     21 N1          3.2345   -2.0901   -0.1178 N.pl3     1 <0>        -0.3928
     22 C20         1.9543   -2.5219    0.1018 C.2       1 <0>         0.0325
     23 C21         1.9573   -3.8567   -0.0767 C.2       1 <0>         0.0033
     24 N2          3.2053   -4.2297   -0.3965 N.pl3     1 <0>        -0.4715
     25 C22         3.9747   -3.1761   -0.4280 C.cat     1 <0>         0.2859
     26 H1         -0.1868    2.4161    1.8838 H         1 <0>         0.1340
     27 H2         -0.5889    1.0335   -0.1137 H         1 <0>         0.1343
     28 H3          1.2053   -0.4020   -0.9989 H         1 <0>         0.1246
     29 H4          3.8010    0.9218    2.1154 H         1 <0>         0.1290
     30 H5          2.0066    2.3566    3.0012 H         1 <0>         0.1338
     31 H6          3.8845   -2.1589   -2.3090 H         1 <0>         0.1110
     32 H7          4.5274   -1.3807   -4.5549 H         1 <0>         0.1325
     33 H8          5.1080    0.9843   -4.9190 H         1 <0>         0.1349
     34 H9          5.0450    2.5713   -3.0374 H         1 <0>         0.1371
     35 H10         4.3939    1.7949   -0.7931 H         1 <0>         0.1317
     36 H11         6.1669    0.2763   -0.5848 H         1 <0>         0.1476
     37 H12         8.1191    0.3861    0.9110 H         1 <0>         0.1431
     38 H13         7.9558   -0.4686    3.2145 H         1 <0>         0.1451
     39 H14         5.8400   -1.4335    4.0228 H         1 <0>         0.1446
     40 H15         1.1050   -1.9099    0.3675 H         1 <0>         0.2211
     41 H16         1.1044   -4.5120    0.0207 H         1 <0>         0.2258
     42 H17         5.0293   -3.1735   -0.6609 H         1 <0>         0.2540
     43 H18         3.4903   -5.1387   -0.5793 H         1 <0>         0.4647
@<TRIPOS>BOND
     1    1    6 ar
     2    1    2 ar
     3    1   26 1
     4    2    3 ar
     5    2   27 1
     6    3    4 ar
     7    3   28 1
     8    4    5 ar
     9    4    7 1
    10    5    6 ar
    11    5   29 1
    12    6   30 1
    13    7    8 1
    14    7   14 1
    15    7   21 1
    16    8   13 ar
    17    8    9 ar
    18    9   10 ar
    19    9   31 1
    20   10   11 ar
    21   10   32 1
    22   11   12 ar
    23   11   33 1
    24   12   13 ar
    25   12   34 1
    26   13   35 1
    27   14   19 ar
    28   14   15 ar
    29   15   16 ar
    30   15   36 1
    31   16   17 ar
    32   16   37 1
    33   17   18 ar
    34   17   38 1
    35   18   19 ar
    36   18   39 1
    37   19   20 1
    38   21   25 1
    39   21   22 1
    40   22   23 2
    41   22   40 1
    42   23   24 1
    43   23   41 1
    44   24   25 2
    45   24   43 1
    46   25   42 1
@<TRIPOS>MOLECULE
ZINC00601250
   40    42     0     0     0
SMALL
USER_CHARGES

@<TRIPOS>ATOM
      1 C1         -0.4073    1.5296    0.9456 C.ar      1 <0>        -0.0811
      2 C2          0.7167    2.2933    1.1979 C.ar      1 <0>        -0.1042
      3 C3          1.9504    1.6828    1.3381 C.ar      1 <0>        -0.0221
      4 C4          2.0581    0.3081    1.2256 C.ar      1 <0>        -0.1090
      5 C5          0.9333   -0.4546    0.9733 C.ar      1 <0>        -0.0937
      6 C6         -0.2990    0.1560    0.8333 C.ar      1 <0>        -0.0852
      7 C7         -1.5250   -0.6762    0.5586 C.3       1 <0>        -0.0602
      8 S1         -1.7479   -0.8514   -1.2331 S.3       1 <0>        -0.2030
      9 C8         -3.1837   -1.9487   -1.3914 C.3       1 <0>        -0.0569
     10 H1         -4.0115   -1.5509   -0.8044 H         1 <0>         0.1420
     11 C9         -2.8188   -3.3433   -0.8788 C.3       1 <0>         0.1024
     12 N1         -1.7553   -3.9076   -1.7135 N.pl3     1 <0>        -0.4022
     13 C10        -1.9218   -4.7267   -2.7974 C.2       1 <0>         0.0291
     14 C11        -0.6909   -5.0074   -3.2664 C.2       1 <0>         0.0054
     15 N2          0.2027   -4.3768   -2.4899 N.pl3     1 <0>        -0.4748
     16 C12        -0.4279   -3.7120   -1.5607 C.cat     1 <0>         0.3015
     17 C13        -3.5915   -2.0366   -2.8396 C.ar      1 <0>        -0.0824
     18 C14        -2.6610   -1.8031   -3.8349 C.ar      1 <0>        -0.0821
     19 C15        -3.0342   -1.8835   -5.1631 C.ar      1 <0>        -0.0975
     20 C16        -4.3396   -2.1983   -5.4975 C.ar      1 <0>        -0.0115
     21 C17        -5.2709   -2.4324   -4.5021 C.ar      1 <0>        -0.0938
     22 C18        -4.8955   -2.3565   -3.1726 C.ar      1 <0>        -0.0135
     23 Cl1        -6.0623   -2.6561   -1.9226 Cl        1 <0>        -0.0388
     24 Cl2        -4.8083   -2.2987   -7.1660 Cl        1 <0>        -0.0325
     25 Cl3         3.3627    2.6415    1.6545 Cl        1 <0>        -0.0521
     26 H2         -1.3710    2.0056    0.8406 H         1 <0>         0.1374
     27 H3          0.6321    3.3664    1.2853 H         1 <0>         0.1415
     28 H4          3.0208   -0.1689    1.3346 H         1 <0>         0.1395
     29 H5          1.0173   -1.5277    0.8851 H         1 <0>         0.1273
     30 H6         -1.4032   -1.6619    1.0077 H         1 <0>         0.0941
     31 H7         -2.3997   -0.1872    0.9875 H         1 <0>         0.1062
     32 H8         -2.4725   -3.2723    0.1523 H         1 <0>         0.1285
     33 H9         -3.6966   -3.9880   -0.9236 H         1 <0>         0.1367
     34 H10        -2.8598   -5.0803   -3.1991 H         1 <0>         0.2174
     35 H11        -0.4633   -5.6309   -4.1183 H         1 <0>         0.2240
     36 H12         0.0353   -3.1076   -0.7948 H         1 <0>         0.2531
     37 H13        -1.6421   -1.5574   -3.5744 H         1 <0>         0.1428
     38 H14        -2.3070   -1.7003   -5.9403 H         1 <0>         0.1475
     39 H15        -6.2898   -2.6781   -4.7626 H         1 <0>         0.1549
     40 H16         1.1655   -4.4071   -2.6035 H         1 <0>         0.4653
@<TRIPOS>BOND
     1    1    6 ar
     2    1    2 ar
     3    1   26 1
     4    2    3 ar
     5    2   27 1
     6    3    4 ar
     7    3   25 1
     8    4    5 ar
     9    4   28 1
    10    5    6 ar
    11    5   29 1
    12    6    7 1
    13    7    8 1
    14    7   30 1
    15    7   31 1
    16    8    9 1
    17    9   10 1
    18    9   11 1
    19    9   17 1
    20   11   12 1
    21   11   32 1
    22   11   33 1
    23   12   16 1
    24   12   13 1
    25   13   14 2
    26   13   34 1
    27   14   15 1
    28   14   35 1
    29   15   16 2
    30   15   40 1
    31   16   36 1
    32   17   22 ar
    33   17   18 ar
    34   18   19 ar
    35   18   37 1
    36   19   20 ar
    37   19   38 1
    38   20   21 ar
    39   20   24 1
    40   21   22 ar
    41   21   39 1
    42   22   23 1
@<TRIPOS>MOLECULE
ZINC00601250
   39    41     0     0     0
SMALL
USER_CHARGES

@<TRIPOS>ATOM
      1 C1         -0.4069    1.5303    0.9434 C.ar      1 <0>        -0.0866
      2 C2          0.7172    2.2941    1.1950 C.ar      1 <0>        -0.1093
      3 C3          1.9509    1.6839    1.3346 C.ar      1 <0>        -0.0268
      4 C4          2.0587    0.3091    1.2222 C.ar      1 <0>        -0.1078
      5 C5          0.9340   -0.4537    0.9706 C.ar      1 <0>        -0.0864
      6 C6         -0.2985    0.1567    0.8312 C.ar      1 <0>        -0.0737
      7 C7         -1.5246   -0.6757    0.5573 C.3       1 <0>        -0.0608
      8 S1         -1.7485   -0.8511   -1.2343 S.3       1 <0>        -0.1992
      9 C8         -3.1843   -1.9485   -1.3918 C.3       1 <0>        -0.0490
     10 H1         -4.0118   -1.5507   -0.8043 H         1 <0>         0.1218
     11 C9         -2.8190   -3.3430   -0.8792 C.3       1 <0>         0.1140
     12 N1         -1.7559   -3.9073   -1.7144 N.pl3     1 <0>        -0.4529
     13 C10        -1.9229   -4.7267   -2.7980 C.2       1 <0>        -0.0530
     14 C11        -0.6924   -5.0073   -3.2677 C.2       1 <0>        -0.0253
     15 N2          0.2017   -4.3765   -2.4920 N.2       1 <0>        -0.4928
     16 C12        -0.4284   -3.7115   -1.5625 C.2       1 <0>         0.2020
     17 C13        -3.5928   -2.0366   -2.8397 C.ar      1 <0>        -0.0602
     18 C14        -2.6628   -1.8032   -3.8355 C.ar      1 <0>        -0.0642
     19 C15        -3.0367   -1.8838   -5.1635 C.ar      1 <0>        -0.0970
     20 C16        -4.3422   -2.1987   -5.4972 C.ar      1 <0>        -0.0168
     21 C17        -5.2730   -2.4327   -4.5013 C.ar      1 <0>        -0.1013
     22 C18        -4.8970   -2.3566   -3.1720 C.ar      1 <0>        -0.0158
     23 Cl1        -6.0631   -2.6562   -1.9213 Cl        1 <0>        -0.0518
     24 Cl2        -4.8118   -2.2993   -7.1654 Cl        1 <0>        -0.0495
     25 Cl3         3.3633    2.6427    1.6501 Cl        1 <0>        -0.0642
     26 H2         -1.3707    2.0061    0.8389 H         1 <0>         0.1345
     27 H3          0.6325    3.3673    1.2823 H         1 <0>         0.1369
     28 H4          3.0216   -0.1678    1.3307 H         1 <0>         0.1380
     29 H5          1.0180   -1.5268    0.8825 H         1 <0>         0.1339
     30 H6         -1.4024   -1.6613    1.0064 H         1 <0>         0.0931
     31 H7         -2.3991   -0.1867    0.9866 H         1 <0>         0.0972
     32 H8         -2.4720   -3.2718    0.1517 H         1 <0>         0.1000
     33 H9         -3.6967   -3.9878   -0.9234 H         1 <0>         0.1052
     34 H10        -2.8612   -5.0805   -3.1991 H         1 <0>         0.1655
     35 H11        -0.4652   -5.6310   -4.1196 H         1 <0>         0.1661
     36 H12         0.0352   -3.1069   -0.7970 H         1 <0>         0.1971
     37 H13        -1.6438   -1.5574   -3.5756 H         1 <0>         0.1473
     38 H14        -2.3099   -1.7007   -5.9411 H         1 <0>         0.1438
     39 H15        -6.2921   -2.6785   -4.7612 H         1 <0>         0.1480
@<TRIPOS>BOND
     1    1    6 ar
     2    1    2 ar
     3    1   26 1
     4    2    3 ar
     5    2   27 1
     6    3    4 ar
     7    3   25 1
     8    4    5 ar
     9    4   28 1
    10    5    6 ar
    11    5   29 1
    12    6    7 1
    13    7    8 1
    14    7   30 1
    15    7   31 1
    16    8    9 1
    17    9   10 1
    18    9   11 1
    19    9   17 1
    20   11   12 1
    21   11   32 1
    22   11   33 1
    23   12   16 1
    24   12   13 1
    25   13   14 2
    26   13   34 1
    27   14   15 1
    28   14   35 1
    29   15   16 2
    30   16   36 1
    31   17   22 ar
    32   17   18 ar
    33   18   19 ar
    34   18   37 1
    35   19   20 ar
    36   19   38 1
    37   20   21 ar
    38   20   24 1
    39   21   22 ar
    40   21   39 1
    41   22   23 1
@<TRIPOS>MOLECULE
ZINC03873371
   40    42     0     0     0
SMALL
USER_CHARGES

@<TRIPOS>ATOM
      1 C1         -0.6138    2.1727   -0.0898 C.ar      1 <0>        -0.0895
      2 C2          0.4408    3.0660   -0.1020 C.ar      1 <0>        -0.1092
      3 C3          1.7388    2.6053    0.0283 C.ar      1 <0>        -0.0220
      4 C4          1.9804    1.2505    0.1707 C.ar      1 <0>        -0.1063
      5 C5          0.9250    0.3581    0.1827 C.ar      1 <0>        -0.0820
      6 C6         -0.3718    0.8191    0.0525 C.ar      1 <0>        -0.0857
      7 C7         -1.5221   -0.1544    0.0661 C.3       1 <0>        -0.0581
      8 S1         -1.8699   -0.7032   -1.6275 S.3       1 <0>        -0.1959
      9 C8         -3.1556   -1.9667   -1.4241 C.3       1 <0>        -0.0584
     10 H1         -2.8223   -2.7111   -0.7010 H         1 <0>         0.1410
     11 C9         -4.4424   -1.3086   -0.9223 C.3       1 <0>         0.1024
     12 N1         -4.9123   -0.3367   -1.9127 N.pl3     1 <0>        -0.4005
     13 C10        -4.5123    0.9676   -2.0240 C.2       1 <0>         0.0448
     14 C11        -5.1891    1.4955   -3.0617 C.2       1 <0>         0.0000
     15 N2         -5.9808    0.5396   -3.5701 N.pl3     1 <0>        -0.4710
     16 C12        -5.8165   -0.5620   -2.8901 C.cat     1 <0>         0.2864
     17 C13        -3.4169   -2.6353   -2.7491 C.ar      1 <0>        -0.0851
     18 C14        -3.1376   -1.9678   -3.9270 C.ar      1 <0>        -0.0860
     19 C15        -3.3770   -2.5803   -5.1425 C.ar      1 <0>        -0.1004
     20 C16        -3.8961   -3.8624   -5.1812 C.ar      1 <0>        -0.0128
     21 C17        -4.1754   -4.5310   -4.0030 C.ar      1 <0>        -0.0945
     22 C18        -3.9310   -3.9191   -2.7864 C.ar      1 <0>        -0.0146
     23 Cl1        -4.2755   -4.7597   -1.3071 Cl        1 <0>        -0.0366
     24 Cl2        -4.1973   -4.6314   -6.7081 Cl        1 <0>        -0.0315
     25 Cl3         3.0639    3.7267    0.0125 Cl        1 <0>        -0.0537
     26 H2         -1.6274    2.5326   -0.1869 H         1 <0>         0.1306
     27 H3          0.2516    4.1235   -0.2135 H         1 <0>         0.1395
     28 H4          2.9935    0.8903    0.2720 H         1 <0>         0.1406
     29 H5          1.1135   -0.6995    0.2935 H         1 <0>         0.1359
     30 H6         -1.2617   -1.0159    0.6810 H         1 <0>         0.1030
     31 H7         -2.4055    0.3328    0.4788 H         1 <0>         0.0940
     32 H8         -5.2059   -2.0718   -0.7715 H         1 <0>         0.1322
     33 H9         -4.2462   -0.7997    0.0214 H         1 <0>         0.1318
     34 H10        -3.7924    1.4757   -1.3995 H         1 <0>         0.2190
     35 H11        -5.1086    2.5106   -3.4214 H         1 <0>         0.2242
     36 H12        -6.3220   -1.4981   -3.0764 H         1 <0>         0.2522
     37 H13        -2.7324   -0.9671   -3.8973 H         1 <0>         0.1475
     38 H14        -3.1593   -2.0580   -6.0624 H         1 <0>         0.1481
     39 H15        -4.5805   -5.5316   -4.0327 H         1 <0>         0.1556
     40 H16        -6.5784    0.6489   -4.3263 H         1 <0>         0.4650
@<TRIPOS>BOND
     1    1    6 ar
     2    1    2 ar
     3    1   26 1
     4    2    3 ar
     5    2   27 1
     6    3    4 ar
     7    3   25 1
     8    4    5 ar
     9    4   28 1
    10    5    6 ar
    11    5   29 1
    12    6    7 1
    13    7    8 1
    14    7   30 1
    15    7   31 1
    16    8    9 1
    17    9   10 1
    18    9   11 1
    19    9   17 1
    20   11   12 1
    21   11   32 1
    22   11   33 1
    23   12   16 1
    24   12   13 1
    25   13   14 2
    26   13   34 1
    27   14   15 1
    28   14   35 1
    29   15   16 2
    30   15   40 1
    31   16   36 1
    32   17   22 ar
    33   17   18 ar
    34   18   19 ar
    35   18   37 1
    36   19   20 ar
    37   19   38 1
    38   20   21 ar
    39   20   24 1
    40   21   22 ar
    41   21   39 1
    42   22   23 1
@<TRIPOS>MOLECULE
ZINC03873371
   39    41     0     0     0
SMALL
USER_CHARGES

@<TRIPOS>ATOM
      1 C1         -0.6153    2.1739   -0.0883 C.ar      1 <0>        -0.0870
      2 C2          0.4390    3.0676   -0.1001 C.ar      1 <0>        -0.1087
      3 C3          1.7371    2.6074    0.0304 C.ar      1 <0>        -0.0271
      4 C4          1.9792    1.2527    0.1728 C.ar      1 <0>        -0.1092
      5 C5          0.9241    0.3599    0.1844 C.ar      1 <0>        -0.0863
      6 C6         -0.3728    0.8203    0.0539 C.ar      1 <0>        -0.0729
      7 C7         -1.5228   -0.1535    0.0671 C.3       1 <0>        -0.0605
      8 S1         -1.8699   -0.7023   -1.6267 S.3       1 <0>        -0.1967
      9 C8         -3.1552   -1.9662   -1.4238 C.3       1 <0>        -0.0482
     10 H1         -2.8219   -2.7106   -0.7006 H         1 <0>         0.1214
     11 C9         -4.4424   -1.3086   -0.9223 C.3       1 <0>         0.1140
     12 N1         -4.9123   -0.3367   -1.9127 N.pl3     1 <0>        -0.4522
     13 C10        -4.5126    0.9677   -2.0237 C.2       1 <0>        -0.0317
     14 C11        -5.1893    1.4956   -3.0615 C.2       1 <0>        -0.0345
     15 N2         -5.9806    0.5395   -3.5703 N.2       1 <0>        -0.4874
     16 C12        -5.8162   -0.5622   -2.8904 C.2       1 <0>         0.1836
     17 C13        -3.4160   -2.6348   -2.7490 C.ar      1 <0>        -0.0631
     18 C14        -3.1365   -1.9670   -3.9267 C.ar      1 <0>        -0.0657
     19 C15        -3.3754   -2.5795   -5.1423 C.ar      1 <0>        -0.0956
     20 C16        -3.8941   -3.8618   -5.1813 C.ar      1 <0>        -0.0162
     21 C17        -4.1735   -4.5305   -4.0033 C.ar      1 <0>        -0.1007
     22 C18        -3.9296   -3.9187   -2.7866 C.ar      1 <0>        -0.0163
     23 Cl1        -4.2743   -4.7596   -1.3074 Cl        1 <0>        -0.0514
     24 Cl2        -4.1946   -4.6307   -6.7084 Cl        1 <0>        -0.0487
     25 Cl3         3.0618    3.7293    0.0151 Cl        1 <0>        -0.0642
     26 H2         -1.6290    2.5334   -0.1858 H         1 <0>         0.1340
     27 H3          0.2494    4.1250   -0.2116 H         1 <0>         0.1375
     28 H4          2.9924    0.8928    0.2744 H         1 <0>         0.1370
     29 H5          1.1130   -0.6977    0.2952 H         1 <0>         0.1344
     30 H6         -1.2622   -1.0150    0.6819 H         1 <0>         0.0957
     31 H7         -2.4065    0.3333    0.4796 H         1 <0>         0.0927
     32 H8         -5.2057   -2.0720   -0.7719 H         1 <0>         0.1063
     33 H9         -4.2466   -0.7997    0.0216 H         1 <0>         0.0986
     34 H10        -3.7931    1.4760   -1.3989 H         1 <0>         0.1690
     35 H11        -5.1090    2.5108   -3.4211 H         1 <0>         0.1666
     36 H12        -6.3213   -1.4983   -3.0770 H         1 <0>         0.1935
     37 H13        -2.7317   -0.9662   -3.8968 H         1 <0>         0.1474
     38 H14        -3.1576   -2.0570   -6.0621 H         1 <0>         0.1438
     39 H15        -4.5783   -5.5313   -4.0332 H         1 <0>         0.1486
@<TRIPOS>BOND
     1    1    6 ar
     2    1    2 ar
     3    1   26 1
     4    2    3 ar
     5    2   27 1
     6    3    4 ar
     7    3   25 1
     8    4    5 ar
     9    4   28 1
    10    5    6 ar
    11    5   29 1
    12    6    7 1
    13    7    8 1
    14    7   30 1
    15    7   31 1
    16    8    9 1
    17    9   10 1
    18    9   11 1
    19    9   17 1
    20   11   12 1
    21   11   32 1
    22   11   33 1
    23   12   16 1
    24   12   13 1
    25   13   14 2
    26   13   34 1
    27   14   15 1
    28   14   35 1
    29   15   16 2
    30   16   36 1
    31   17   22 ar
    32   17   18 ar
    33   18   19 ar
    34   18   37 1
    35   19   20 ar
    36   19   38 1
    37   20   21 ar
    38   20   24 1
    39   21   22 ar
    40   21   39 1
    41   22   23 1
@<TRIPOS>MOLECULE
ZINC02560264
   37    42     0     0     0
SMALL
USER_CHARGES

@<TRIPOS>ATOM
      1 C1         -0.0166    1.3740    0.0096 C.ar      1 <0>        -0.1440
      2 C2          1.1716    2.0886    0.0021 C.ar      1 <0>        -0.0817
      3 C3          2.3839    1.4333   -0.0130 C.ar      1 <0>        -0.1381
      4 C4          2.4234    0.0421   -0.0208 C.ar      1 <0>         0.1368
      5 C5          1.2204   -0.6789   -0.0132 C.ar      1 <0>        -0.0962
      6 C6          0.0021   -0.0041    0.0020 C.ar      1 <0>        -0.0609
      7 C7          1.5891   -2.1077   -0.0244 C.ar      1 <0>        -0.0649
      8 C8          0.8454   -3.2819   -0.0236 C.ar      1 <0>        -0.0450
      9 C9          1.4816   -4.5185   -0.0365 C.ar      1 <0>        -0.1358
     10 C10         2.8940   -4.5714   -0.0501 C.ar      1 <0>        -0.0059
     11 C11         3.8569   -5.6841   -0.0662 C.ar      1 <0>        -0.1090
     12 C12         3.7202   -7.0720   -0.0736 C.ar      1 <0>        -0.0448
     13 C13         4.8431   -7.8694   -0.0897 C.ar      1 <0>        -0.1554
     14 C14         6.1070   -7.2977   -0.0979 C.ar      1 <0>        -0.0739
     15 C15         6.2575   -5.9282   -0.0907 C.ar      1 <0>        -0.1504
     16 C16         5.1356   -5.1043   -0.0750 C.ar      1 <0>         0.1441
     17 N1          4.9880   -3.7311   -0.0653 N.pl3     1 <0>        -0.6105
     18 H1          5.7195   -3.0941   -0.0687 H         1 <0>         0.4165
     19 C17         3.6443   -3.3949   -0.0504 C.ar      1 <0>         0.1138
     20 C18         2.9910   -2.1538   -0.0381 C.ar      1 <0>         0.1603
     21 N2          3.4713   -0.8601   -0.0356 N.pl3     1 <0>        -0.6071
     22 H2          4.4105   -0.6179   -0.0435 H         1 <0>         0.4182
     23 C19         0.4534   -5.5701   -0.0322 C.2       1 <0>         0.5671
     24 O1          0.6821   -6.7645   -0.0405 O.2       1 <0>        -0.5235
     25 N3         -0.7748   -5.0244   -0.0172 N.am      1 <0>        -0.7239
     26 C20        -0.6370   -3.5635   -0.0107 C.3       1 <0>         0.1438
     27 H3         -0.9602    1.8992    0.0259 H         1 <0>         0.1299
     28 H4          1.1469    3.1683    0.0077 H         1 <0>         0.1312
     29 H5          3.3035    1.9995   -0.0190 H         1 <0>         0.1253
     30 H6         -0.9246   -0.5587    0.0075 H         1 <0>         0.1280
     31 H7          2.7375   -7.5198   -0.0665 H         1 <0>         0.1456
     32 H8          4.7391   -8.9443   -0.0955 H         1 <0>         0.1286
     33 H9          6.9811   -7.9319   -0.1098 H         1 <0>         0.1300
     34 H10         7.2462   -5.4938   -0.0972 H         1 <0>         0.1240
     35 H11        -1.6120   -5.5143   -0.0117 H         1 <0>         0.4271
     36 H12        -1.0897   -3.1483    0.8897 H         1 <0>         0.1004
     37 H13        -1.1071   -3.1386   -0.8976 H         1 <0>         0.1004
@<TRIPOS>BOND
     1    1    6 ar
     2    1    2 ar
     3    1   27 1
     4    2    3 ar
     5    2   28 1
     6    3    4 ar
     7    3   29 1
     8    4   21 1
     9    4    5 ar
    10    5    6 ar
    11    5    7 1
    12    6   30 1
    13    7   20 ar
    14    7    8 ar
    15    8   26 1
    16    8    9 ar
    17    9   10 ar
    18    9   23 1
    19   10   19 ar
    20   10   11 1
    21   11   16 ar
    22   11   12 ar
    23   12   13 ar
    24   12   31 1
    25   13   14 ar
    26   13   32 1
    27   14   15 ar
    28   14   33 1
    29   15   16 ar
    30   15   34 1
    31   16   17 1
    32   17   18 1
    33   17   19 1
    34   19   20 ar
    35   20   21 1
    36   21   22 1
    37   23   24 2
    38   23   25 am
    39   25   26 1
    40   25   35 1
    41   26   36 1
    42   26   37 1
@<TRIPOS>MOLECULE
ZINC27196434
   31    34     0     0     0
SMALL
USER_CHARGES
(5R,6Z)-6-(6,8-dihydro-5H-imidazo[2,3-c][1,4]oxazin-3-ylmethylene)-7-oxo-4-thia-1-azabicyclo[3.2.0]hept-2-ene-2-carboxylic acid
@<TRIPOS>ATOM
      1 C1         -2.2593    7.0250    2.6426 C.2       1 <0>         0.0400
      2 C2         -1.9687    5.9297    1.8494 C.2       1 <0>        -0.0090
      3 N1         -1.4721    6.4366    0.6747 N.pl3     1 <0>        -0.4444
      4 C3         -1.4813    7.7865    0.7790 C.2       1 <0>         0.1841
      5 N2         -1.9465    8.1224    1.9483 N.2       1 <0>        -0.4728
      6 C4         -1.0037    8.6963   -0.3295 C.3       1 <0>         0.1451
      7 O1         -0.2729    7.8969   -1.2695 O.3       1 <0>        -0.3690
      8 C5         -0.9582    6.7119   -1.6845 C.3       1 <0>         0.0464
      9 C6         -1.0184    5.7165   -0.5179 C.3       1 <0>         0.0620
     10 C7         -2.1426    4.5626    2.1839 C.2       1 <0>         0.0456
     11 C8         -2.7534    4.2214    3.3445 C.2       1 <0>        -0.2202
     12 C9         -3.3056    4.9467    4.5469 C.3       1 <0>         0.1269
     13 H1         -2.5463    5.5577    5.0569 H         1 <0>         0.1672
     14 N3         -3.7643    3.6288    5.0470 N.am      1 <0>        -0.4532
     15 C10        -3.1648    3.0170    3.9807 C.2       1 <0>         0.5432
     16 O2         -3.0281    1.8444    3.6801 O.2       1 <0>        -0.4308
     17 C11        -5.1392    3.4948    5.1936 C.2       1 <0>         0.0044
     18 C12        -5.9876    4.4794    4.8209 C.2       1 <0>        -0.1147
     19 S1         -4.9093    5.7747    4.2348 S.3       1 <0>        -0.1635
     20 C13        -5.6629    2.3041    5.7505 C.2       1 <0>         0.4976
     21 O3         -4.9111    1.4093    6.0910 O.co2     1 <0>        -0.6038
     22 O4         -6.9965    2.1604    5.9043 O.co2     1 <0>        -0.7480
     23 H2         -2.6655    6.9977    3.6429 H         1 <0>         0.1784
     24 H3         -1.8706    9.1638   -0.8192 H         1 <0>         0.0901
     25 H4         -0.3548    9.4782    0.0918 H         1 <0>         0.1321
     26 H5         -1.9806    6.9702   -1.9976 H         1 <0>         0.0706
     27 H6         -0.4210    6.2541   -2.5282 H         1 <0>         0.1251
     28 H7         -0.0212    5.2909   -0.3320 H         1 <0>         0.1006
     29 H8         -1.7258    4.9062   -0.7482 H         1 <0>         0.1067
     30 H9         -1.7817    3.7791    1.5013 H         1 <0>         0.1476
     31 H10        -7.0735    4.3391    4.9267 H         1 <0>         0.2157
@<TRIPOS>BOND
     1    1    5 1
     2    1    2 2
     3    1   23 1
     4    2    3 1
     5    2   10 1
     6    3    9 1
     7    3    4 1
     8    4    5 2
     9    4    6 1
    10    6    7 1
    11    6   24 1
    12    6   25 1
    13    7    8 1
    14    8    9 1
    15    8   26 1
    16    8   27 1
    17    9   28 1
    18    9   29 1
    19   10   11 2
    20   10   30 1
    21   11   15 1
    22   11   12 1
    23   12   13 1
    24   12   19 1
    25   12   14 1
    26   14   15 am
    27   14   17 1
    28   15   16 2
    29   17   18 2
    30   17   20 1
    31   18   19 1
    32   18   31 1
    33   20   21 2
    34   20   22 1
@<TRIPOS>MOLECULE
ZINC00021786
   36    38     0     0     0
SMALL
USER_CHARGES

@<TRIPOS>ATOM
      1 C1         -0.9487    1.5026   -0.1190 C.3       1 <0>         0.0869
      2 N1         -0.4109    0.1400   -0.1001 N.pl3     1 <0>        -0.6295
      3 C2          0.0213   -0.4594    1.1649 C.3       1 <0>         0.0904
      4 C3         -0.3108   -0.5843   -1.2825 C.ar      1 <0>         0.2363
      5 C4          0.1956   -1.8819   -1.2610 C.ar      1 <0>        -0.2037
      6 C5          0.2960   -2.5974   -2.4197 C.ar      1 <0>        -0.0344
      7 C6         -0.1118   -2.0238   -3.6326 C.ar      1 <0>        -0.1588
      8 C7         -0.6209   -0.7172   -3.6489 C.ar      1 <0>        -0.0296
      9 C8         -0.7225   -0.0120   -2.4840 C.ar      1 <0>        -0.2096
     10 C9         -0.0058   -2.7867   -4.8786 C.2       1 <0>         0.0512
     11 C10         0.4804   -2.1889   -6.0061 C.2       1 <0>        -0.1794
     12 C11         1.1420   -0.8685   -6.1122 C.ar      1 <0>        -0.0991
     13 C12         1.4600    0.1156   -5.1824 C.ar      1 <0>        -0.0707
     14 C13         2.0940    1.2695   -5.5967 C.ar      1 <0>        -0.1427
     15 C14         2.4114    1.4457   -6.9333 C.ar      1 <0>        -0.0842
     16 C15         2.0997    0.4753   -7.8637 C.ar      1 <0>        -0.1392
     17 C16         1.4617   -0.6945   -7.4652 C.ar      1 <0>         0.1411
     18 N2          1.0429   -1.8094   -8.1815 N.am      1 <0>        -0.6551
     19 C17         0.4663   -2.7200   -7.3789 C.2       1 <0>         0.5605
     20 O1          0.0103   -3.7943   -7.7264 O.2       1 <0>        -0.5069
     21 H1         -0.1353    2.2121   -0.2712 H         1 <0>         0.0528
     22 H2         -1.6700    1.5973   -0.9307 H         1 <0>         0.0718
     23 H3         -1.4408    1.7122    0.8307 H         1 <0>         0.0697
     24 H4         -0.1320    0.2529    1.9756 H         1 <0>         0.0758
     25 H5         -0.5611   -1.3604    1.3578 H         1 <0>         0.0577
     26 H6          1.0786   -0.7168    1.1024 H         1 <0>         0.0580
     27 H7          0.5097   -2.3226   -0.3263 H         1 <0>         0.1259
     28 H8          0.6890   -3.6031   -2.4020 H         1 <0>         0.1279
     29 H9         -0.9359   -0.2710   -4.5806 H         1 <0>         0.1271
     30 H10        -1.1189    0.9926   -2.4948 H         1 <0>         0.1281
     31 H11        -0.3122   -3.8220   -4.9056 H         1 <0>         0.1415
     32 H12         1.2115   -0.0223   -4.1404 H         1 <0>         0.1390
     33 H13         2.3427    2.0362   -4.8778 H         1 <0>         0.1274
     34 H14         2.9072    2.3512   -7.2505 H         1 <0>         0.1300
     35 H15         2.3516    0.6245   -8.9032 H         1 <0>         0.1266
     36 H16         1.1561   -1.9182   -9.1388 H         1 <0>         0.4173
@<TRIPOS>BOND
     1    1    2 1
     2    1   21 1
     3    1   22 1
     4    1   23 1
     5    2    3 1
     6    2    4 1
     7    3   24 1
     8    3   25 1
     9    3   26 1
    10    4    9 ar
    11    4    5 ar
    12    5    6 ar
    13    5   27 1
    14    6    7 ar
    15    6   28 1
    16    7    8 ar
    17    7   10 1
    18    8    9 ar
    19    8   29 1
    20    9   30 1
    21   10   11 2
    22   10   31 1
    23   11   19 1
    24   11   12 1
    25   12   17 ar
    26   12   13 ar
    27   13   14 ar
    28   13   32 1
    29   14   15 ar
    30   14   33 1
    31   15   16 ar
    32   15   34 1
    33   16   17 ar
    34   16   35 1
    35   17   18 1
    36   18   19 am
    37   18   36 1
    38   19   20 2
@<TRIPOS>MOLECULE
ZINC02512068
   32    34     0     0     0
SMALL
USER_CHARGES
4-[2-[(2,4-difluorophenyl)amino]thiazol-4-yl]benzene-1,2-diol
@<TRIPOS>ATOM
      1 C1          2.3987    0.0945   -0.7504 C.ar      1 <0>        -0.0939
      2 C2          1.2171   -0.5798   -0.9859 C.ar      1 <0>        -0.1305
      3 C3          0.0342    0.1246   -1.1459 C.ar      1 <0>         0.0888
      4 C4          0.0334    1.5152   -1.0700 C.ar      1 <0>         0.0789
      5 C5          1.2146    2.1952   -0.8343 C.ar      1 <0>        -0.0959
      6 C6          2.4039    1.4858   -0.6731 C.ar      1 <0>        -0.0198
      7 C7          3.6730    2.2110   -0.4201 C.2       1 <0>         0.1339
      8 C8          4.8562    1.5304   -0.3632 C.2       1 <0>        -0.2265
      9 S1          5.9955    2.8713   -0.0450 S.3       1 <0>         0.0269
     10 C9          4.7883    4.1892   -0.0208 C.2       1 <0>         0.3610
     11 N1          3.6698    3.5257   -0.2526 N.2       1 <0>        -0.5477
     12 N2          4.9764    5.5473    0.1817 N.pl3     1 <0>        -0.6063
     13 C10         6.2730    6.0704    0.2605 C.ar      1 <0>         0.1232
     14 C11         7.3098    5.4671   -0.4382 C.ar      1 <0>        -0.1067
     15 C12         8.5873    5.9875   -0.3632 C.ar      1 <0>        -0.1205
     16 C13         8.8373    7.1044    0.4163 C.ar      1 <0>         0.1147
     17 C14         7.8068    7.7059    1.1189 C.ar      1 <0>        -0.1565
     18 C15         6.5253    7.1918    1.0433 C.ar      1 <0>         0.1060
     19 F1          5.5198    7.7778    1.7294 F         1 <0>        -0.1231
     20 F2         10.0887    7.6078    0.4917 F         1 <0>        -0.1254
     21 O1         -1.1273    2.2047   -1.2333 O.3       1 <0>        -0.4912
     22 O2         -1.1276   -0.5434   -1.3777 O.3       1 <0>        -0.4927
     23 H1          3.3193   -0.4565   -0.6265 H         1 <0>         0.1344
     24 H2          1.2146   -1.6581   -1.0452 H         1 <0>         0.1389
     25 H3          1.2156    3.2736   -0.7756 H         1 <0>         0.1431
     26 H4          5.0498    0.4742   -0.4783 H         1 <0>         0.2017
     27 H5          4.2100    6.1354    0.2689 H         1 <0>         0.4320
     28 H6          7.1170    4.5935   -1.0433 H         1 <0>         0.1519
     29 H7          9.3931    5.5199   -0.9096 H         1 <0>         0.1539
     30 H8          8.0041    8.5767    1.7265 H         1 <0>         0.1591
     31 H9         -1.6135    2.3566   -0.4113 H         1 <0>         0.3937
     32 H10        -1.3174   -0.6890   -2.3146 H         1 <0>         0.3946
@<TRIPOS>BOND
     1    1    6 ar
     2    1    2 ar
     3    1   23 1
     4    2    3 ar
     5    2   24 1
     6    3    4 ar
     7    3   22 1
     8    4    5 ar
     9    4   21 1
    10    5    6 ar
    11    5   25 1
    12    6    7 1
    13    7   11 1
    14    7    8 2
    15    8    9 1
    16    8   26 1
    17    9   10 1
    18   10   11 2
    19   10   12 1
    20   12   13 1
    21   12   27 1
    22   13   18 ar
    23   13   14 ar
    24   14   15 ar
    25   14   28 1
    26   15   16 ar
    27   15   29 1
    28   16   17 ar
    29   16   20 1
    30   17   18 ar
    31   17   30 1
    32   18   19 1
    33   21   31 1
    34   22   32 1
@<TRIPOS>MOLECULE
ZINC03874886
   66    69     0     0     0
SMALL
USER_CHARGES

@<TRIPOS>ATOM
      1 C1         -3.2064   -6.8800   -3.8436 C.3       1 <0>        -0.1078
      2 C2         -2.7956   -5.4579   -4.1263 C.ar      1 <0>        -0.1483
      3 C3         -1.9349   -4.7996   -3.2563 C.ar      1 <0>         0.1478
      4 C4         -1.5490   -3.4887   -3.5059 C.ar      1 <0>        -0.1300
      5 C5         -2.0187   -2.8262   -4.6244 C.ar      1 <0>         0.1751
      6 C6         -2.8904   -3.4844   -5.5119 C.ar      1 <0>        -0.2165
      7 C7         -3.2715   -4.8146   -5.2529 C.ar      1 <0>         0.1656
      8 O1         -4.1072   -5.4608   -6.1032 O.3       1 <0>        -0.4840
      9 C8         -3.3932   -2.7929   -6.6971 C.2       1 <0>         0.4171
     10 O2         -2.8274   -2.9253   -7.7627 O.2       1 <0>        -0.4425
     11 C9         -4.6142   -1.9153   -6.5962 C.3       1 <0>        -0.1955
     12 O3         -1.6412   -1.5462   -4.8655 O.3       1 <0>        -0.4743
     13 C10        -0.6154   -2.7864   -2.5539 C.3       1 <0>        -0.0211
     14 C11         0.7897   -2.8416   -3.0958 C.ar      1 <0>        -0.1509
     15 C12         1.2888   -1.7736   -3.8292 C.ar      1 <0>         0.1811
     16 C13         2.5918   -1.8227   -4.3324 C.ar      1 <0>        -0.1634
     17 C14         3.3948   -2.9442   -4.0996 C.ar      1 <0>         0.1953
     18 C15         2.8878   -4.0178   -3.3597 C.ar      1 <0>        -0.2048
     19 C16         1.5764   -3.9538   -2.8546 C.ar      1 <0>         0.1880
     20 O4          1.0796   -4.9888   -2.1324 O.3       1 <0>        -0.4722
     21 C17         3.7220   -5.2034   -3.1074 C.2       1 <0>         0.4520
     22 O5          3.7768   -6.0966   -3.9339 O.2       1 <0>        -0.4460
     23 C18         4.4863   -5.3095   -1.8628 C.2       1 <0>        -0.2247
     24 C19         5.3294   -6.3459   -1.6753 C.2       1 <0>        -0.0105
     25 C20         6.0975   -6.4526   -0.4245 C.ar      1 <0>        -0.0826
     26 C21         5.9518   -5.4847    0.5746 C.ar      1 <0>        -0.0966
     27 C22         6.6746   -5.5919    1.7438 C.ar      1 <0>        -0.1228
     28 C23         7.5425   -6.6539    1.9303 C.ar      1 <0>        -0.1050
     29 C24         7.6926   -7.6155    0.9462 C.ar      1 <0>        -0.1234
     30 C25         6.9726   -7.5255   -0.2263 C.ar      1 <0>        -0.0928
     31 O6          4.6537   -2.9651   -4.6000 O.3       1 <0>        -0.2967
     32 C26         4.8680   -2.3104   -5.8511 C.3       1 <0>         0.1466
     33 C27         4.2506   -0.9368   -5.8407 C.2       1 <0>        -0.1789
     34 C28         3.1562   -0.7047   -5.1177 C.2       1 <0>        -0.0892
     35 C29         6.3717   -2.1862   -6.1050 C.3       1 <0>        -0.1381
     36 C30         4.2348   -3.1400   -6.9700 C.3       1 <0>        -0.1736
     37 O7          0.5129   -0.6846   -4.0574 O.3       1 <0>        -0.4789
     38 O8         -1.4689   -5.4413   -2.1555 O.3       1 <0>        -0.4726
     39 H1         -2.4969   -7.5628   -4.3111 H         1 <0>         0.0729
     40 H2         -3.2166   -7.0479   -2.7667 H         1 <0>         0.0768
     41 H3         -4.2026   -7.0578   -4.2485 H         1 <0>         0.0719
     42 H4         -5.0444   -5.3557   -5.8893 H         1 <0>         0.3949
     43 H5         -4.3192   -0.9186   -6.2681 H         1 <0>         0.1038
     44 H6         -5.0956   -1.8491   -7.5718 H         1 <0>         0.0884
     45 H7         -5.3109   -2.3436   -5.8756 H         1 <0>         0.0842
     46 H8         -0.8388   -1.4667   -5.3993 H         1 <0>         0.3987
     47 H9         -0.9223   -1.7461   -2.4452 H         1 <0>         0.0963
     48 H10        -0.6496   -3.2787   -1.5820 H         1 <0>         0.1017
     49 H11         0.7349   -5.7144   -2.6706 H         1 <0>         0.3839
     50 H12         4.3750   -4.5582   -1.0950 H         1 <0>         0.1341
     51 H13         5.4407   -7.0973   -2.4430 H         1 <0>         0.1344
     52 H14         5.2753   -4.6553    0.4304 H         1 <0>         0.1280
     53 H15         6.5635   -4.8452    2.5161 H         1 <0>         0.1269
     54 H16         8.1059   -6.7323    2.8483 H         1 <0>         0.1255
     55 H17         8.3720   -8.4410    1.0989 H         1 <0>         0.1273
     56 H18         7.0873   -8.2790   -0.9914 H         1 <0>         0.1283
     57 H19         4.6952   -0.1402   -6.4187 H         1 <0>         0.1375
     58 H20         2.6948    0.2717   -5.1056 H         1 <0>         0.1397
     59 H21         6.8190   -3.1799   -6.1314 H         1 <0>         0.0717
     60 H22         6.5390   -1.6869   -7.0593 H         1 <0>         0.0840
     61 H23         6.8283   -1.6035   -5.3050 H         1 <0>         0.0696
     62 H24         3.1646   -3.2386   -6.7880 H         1 <0>         0.0601
     63 H25         4.3964   -2.6432   -7.9266 H         1 <0>         0.0786
     64 H26         4.6922   -4.1291   -6.9924 H         1 <0>         0.0726
     65 H27         0.6450    0.0325   -3.4222 H         1 <0>         0.4011
     66 H28        -0.7068   -6.0116   -2.3259 H         1 <0>         0.3825
@<TRIPOS>BOND
     1    1    2 1
     2    1   39 1
     3    1   40 1
     4    1   41 1
     5    2    7 ar
     6    2    3 ar
     7    3    4 ar
     8    3   38 1
     9    4    5 ar
    10    4   13 1
    11    5    6 ar
    12    5   12 1
    13    6    7 ar
    14    6    9 1
    15    7    8 1
    16    8   42 1
    17    9   10 2
    18    9   11 1
    19   11   43 1
    20   11   44 1
    21   11   45 1
    22   12   46 1
    23   13   14 1
    24   13   47 1
    25   13   48 1
    26   14   19 ar
    27   14   15 ar
    28   15   16 ar
    29   15   37 1
    30   16   34 1
    31   16   17 ar
    32   17   18 ar
    33   17   31 1
    34   18   19 ar
    35   18   21 1
    36   19   20 1
    37   20   49 1
    38   21   22 2
    39   21   23 1
    40   23   24 2
    41   23   50 1
    42   24   25 1
    43   24   51 1
    44   25   30 ar
    45   25   26 ar
    46   26   27 ar
    47   26   52 1
    48   27   28 ar
    49   27   53 1
    50   28   29 ar
    51   28   54 1
    52   29   30 ar
    53   29   55 1
    54   30   56 1
    55   31   32 1
    56   32   33 1
    57   32   35 1
    58   32   36 1
    59   33   34 2
    60   33   57 1
    61   34   58 1
    62   35   59 1
    63   35   60 1
    64   35   61 1
    65   36   62 1
    66   36   63 1
    67   36   64 1
    68   37   65 1
    69   38   66 1
@<TRIPOS>MOLECULE
ZINC03874886
   65    68     0     0     0
SMALL
USER_CHARGES

@<TRIPOS>ATOM
      1 C1         -0.0864    1.5060    0.0434 C.3       1 <0>        -0.0970
      2 C2         -0.0725   -0.0009    0.0305 C.ar      1 <0>        -0.1650
      3 C3         -0.0639   -0.6830   -1.1802 C.ar      1 <0>         0.1792
      4 C4         -0.0511   -2.0719   -1.2053 C.ar      1 <0>        -0.1185
      5 C5         -0.0468   -2.7890   -0.0237 C.ar      1 <0>         0.1741
      6 C6         -0.0550   -2.1073    1.2076 C.ar      1 <0>        -0.2369
      7 C7         -0.0627   -0.6997    1.2225 C.ar      1 <0>         0.1503
      8 O1         -0.0659   -0.0317    2.4027 O.3       1 <0>        -0.4883
      9 C8         -0.0511   -2.8560    2.4627 C.2       1 <0>         0.4256
     10 O2          0.9991   -3.2291    2.9434 O.2       1 <0>        -0.4527
     11 C9         -1.3509   -3.1648    3.1599 C.3       1 <0>        -0.1939
     12 O3         -0.0352   -4.1448   -0.0507 O.3       1 <0>        -0.4876
     13 C10        -0.0424   -2.7991   -2.5252 C.3       1 <0>         0.0030
     14 C11         1.3813   -3.0285   -2.9629 C.ar      1 <0>        -0.2590
     15 C12         2.0262   -2.0757   -3.7399 C.ar      1 <0>         0.3377
     16 C13         3.3467   -2.2863   -4.1467 C.ar      1 <0>        -0.2992
     17 C14         4.0208   -3.4539   -3.7735 C.ar      1 <0>         0.2289
     18 C15         3.3671   -4.4109   -2.9901 C.ar      1 <0>        -0.3307
     19 C16         2.0396   -4.1846   -2.5832 C.ar      1 <0>         0.2078
     20 O4          1.4009   -5.1058   -1.8196 O.3       1 <0>        -0.5022
     21 C17         4.0647   -5.6434   -2.5904 C.2       1 <0>         0.4724
     22 O5          4.0785   -6.6052   -3.3379 O.2       1 <0>        -0.4699
     23 C18         4.7423   -5.7137   -1.2942 C.2       1 <0>        -0.1932
     24 C19         5.2903   -6.8754   -0.8816 C.2       1 <0>        -0.0510
     25 C20         5.9713   -6.9460    0.4211 C.ar      1 <0>        -0.0644
     26 C21         6.0475   -5.8125    1.2368 C.ar      1 <0>        -0.1010
     27 C22         6.6869   -5.8869    2.4562 C.ar      1 <0>        -0.1197
     28 C23         7.2523   -7.0792    2.8736 C.ar      1 <0>        -0.1169
     29 C24         7.1815   -8.2053    2.0719 C.ar      1 <0>        -0.1249
     30 C25         6.5405   -8.1486    0.8524 C.ar      1 <0>        -0.1026
     31 O6          5.3000   -3.6323   -4.1827 O.3       1 <0>        -0.3163
     32 C26         5.6535   -3.1063   -5.4627 C.3       1 <0>         0.1640
     33 C27         5.1735   -1.6854   -5.6004 C.2       1 <0>        -0.2753
     34 C28         4.0645   -1.2942   -4.9747 C.2       1 <0>        -0.0093
     35 C29         7.1749   -3.1428   -5.6208 C.3       1 <0>        -0.1320
     36 C30         5.0124   -3.9640   -6.5555 C.3       1 <0>        -0.1670
     37 O7          1.3756   -0.9425   -4.1042 O.3       1 <0>        -0.6788
     38 O8         -0.0685    0.0121   -2.3453 O.3       1 <0>        -0.4813
     39 H1          0.9379    1.8788    0.0436 H         1 <0>         0.0654
     40 H2         -0.6062    1.8722   -0.8420 H         1 <0>         0.0726
     41 H3         -0.6009    1.8570    0.9379 H         1 <0>         0.0615
     42 H4         -0.9501    0.1536    2.7474 H         1 <0>         0.3845
     43 H5         -1.6916   -4.1587    2.8699 H         1 <0>         0.0991
     44 H6         -1.2009   -3.1327    4.2391 H         1 <0>         0.0848
     45 H7         -2.1003   -2.4264    2.8752 H         1 <0>         0.0798
     46 H8          0.8515   -4.5305   -0.0572 H         1 <0>         0.4006
     47 H9         -0.5476   -3.7586   -2.4147 H         1 <0>         0.0667
     48 H10        -0.5606   -2.1997   -3.2737 H         1 <0>         0.0871
     49 H11         0.9263   -5.7775   -2.3282 H         1 <0>         0.3886
     50 H12         4.8035   -4.8355   -0.6685 H         1 <0>         0.1286
     51 H13         5.2291   -7.7536   -1.5073 H         1 <0>         0.1304
     52 H14         5.6071   -4.8813    0.9123 H         1 <0>         0.1293
     53 H15         6.7469   -5.0123    3.0871 H         1 <0>         0.1243
     54 H16         7.7518   -7.1312    3.8297 H         1 <0>         0.1208
     55 H17         7.6254   -9.1320    2.4044 H         1 <0>         0.1224
     56 H18         6.4822   -9.0292    0.2299 H         1 <0>         0.1252
     57 H19         5.7283   -0.9840   -6.2059 H         1 <0>         0.1127
     58 H20         3.7006   -0.2818   -5.0695 H         1 <0>         0.1205
     59 H21         7.5240   -4.1722   -5.5399 H         1 <0>         0.0603
     60 H22         7.4484   -2.7420   -6.5968 H         1 <0>         0.0722
     61 H23         7.6361   -2.5402   -4.8383 H         1 <0>         0.0620
     62 H24         3.9286   -3.9481   -6.4408 H         1 <0>         0.0618
     63 H25         5.2801   -3.5654   -7.5340 H         1 <0>         0.0645
     64 H26         5.3718   -4.9895   -6.4702 H         1 <0>         0.0584
     65 H27         0.8136    0.2220   -2.6816 H         1 <0>         0.4076
@<TRIPOS>BOND
     1    1    2 1
     2    1   39 1
     3    1   40 1
     4    1   41 1
     5    2    7 ar
     6    2    3 ar
     7    3    4 ar
     8    3   38 1
     9    4    5 ar
    10    4   13 1
    11    5    6 ar
    12    5   12 1
    13    6    7 ar
    14    6    9 1
    15    7    8 1
    16    8   42 1
    17    9   10 2
    18    9   11 1
    19   11   43 1
    20   11   44 1
    21   11   45 1
    22   12   46 1
    23   13   14 1
    24   13   47 1
    25   13   48 1
    26   14   19 ar
    27   14   15 ar
    28   15   16 ar
    29   15   37 1
    30   16   34 1
    31   16   17 ar
    32   17   18 ar
    33   17   31 1
    34   18   19 ar
    35   18   21 1
    36   19   20 1
    37   20   49 1
    38   21   22 2
    39   21   23 1
    40   23   24 2
    41   23   50 1
    42   24   25 1
    43   24   51 1
    44   25   30 ar
    45   25   26 ar
    46   26   27 ar
    47   26   52 1
    48   27   28 ar
    49   27   53 1
    50   28   29 ar
    51   28   54 1
    52   29   30 ar
    53   29   55 1
    54   30   56 1
    55   31   32 1
    56   32   33 1
    57   32   35 1
    58   32   36 1
    59   33   34 2
    60   33   57 1
    61   34   58 1
    62   35   59 1
    63   35   60 1
    64   35   61 1
    65   36   62 1
    66   36   63 1
    67   36   64 1
    68   38   65 1
@<TRIPOS>MOLECULE
ZINC13473130
   25    26     0     0     0
SMALL
USER_CHARGES

@<TRIPOS>ATOM
      1 C1         -0.0169    1.3944    0.0097 C.ar      1 <0>        -0.0334
      2 C2          1.1676    2.0970    0.0022 C.ar      1 <0>        -0.1528
      3 C3          2.3804    1.4185   -0.0131 C.ar      1 <0>         0.1430
      4 C4          2.4044    0.0290   -0.0207 C.ar      1 <0>        -0.1534
      5 C5          1.2252   -0.6824   -0.0133 C.ar      1 <0>        -0.0734
      6 C6          0.0021   -0.0041    0.0020 C.ar      1 <0>         0.0278
      7 N1         -1.1695   -0.7048    0.0094 N.2       1 <0>        -0.1987
      8 N2         -1.1497   -1.9946    0.0023 N.2       1 <0>        -0.2189
      9 C7         -2.3227   -2.6963    0.0098 C.ar      1 <0>         0.0614
     10 C8         -3.5455   -2.0194    0.0193 C.ar      1 <0>        -0.0940
     11 C9         -4.7249   -2.7334    0.0268 C.ar      1 <0>        -0.0947
     12 C10        -4.6999   -4.1181    0.0249 C.ar      1 <0>        -0.0686
     13 C11        -3.4918   -4.7952    0.0159 C.ar      1 <0>        -0.0948
     14 C12        -2.3048   -4.0938    0.0021 C.ar      1 <0>        -0.0530
     15 Br1        -6.3227   -5.0888    0.0353 Br        1 <0>        -0.0389
     16 O1          3.5457    2.1155   -0.0209 O.3       1 <0>        -0.4969
     17 H1         -0.9588    1.9225    0.0260 H         1 <0>         0.1425
     18 H2          1.1540    3.1769    0.0077 H         1 <0>         0.1420
     19 H3          3.3493   -0.4939   -0.0329 H         1 <0>         0.1370
     20 H4          1.2448   -1.7622   -0.0196 H         1 <0>         0.1433
     21 H5         -3.5664   -0.9396    0.0211 H         1 <0>         0.1463
     22 H6         -5.6705   -2.2117    0.0345 H         1 <0>         0.1396
     23 H7         -3.4794   -5.8752    0.0152 H         1 <0>         0.1445
     24 H8         -1.3634   -4.6230   -0.0098 H         1 <0>         0.1458
     25 H9          3.8918    2.3129    0.8602 H         1 <0>         0.3983
@<TRIPOS>BOND
     1    1    6 ar
     2    1    2 ar
     3    1   17 1
     4    2    3 ar
     5    2   18 1
     6    3    4 ar
     7    3   16 1
     8    4    5 ar
     9    4   19 1
    10    5    6 ar
    11    5   20 1
    12    6    7 1
    13    7    8 2
    14    8    9 1
    15    9   14 ar
    16    9   10 ar
    17   10   11 ar
    18   10   21 1
    19   11   12 ar
    20   11   22 1
    21   12   13 ar
    22   12   15 1
    23   13   14 ar
    24   13   23 1
    25   14   24 1
    26   16   25 1
@<TRIPOS>MOLECULE
ZINC03787060
   31    33     0     0     0
SMALL
USER_CHARGES

@<TRIPOS>ATOM
      1 C1         -0.0187    1.5258    0.0104 C.3       1 <0>        -0.1186
      2 C2          0.0021   -0.0041    0.0020 C.3       1 <0>        -0.4655
      3 C3         -1.4146   -0.5970    0.2500 C.3       1 <0>         0.0201
      4 H1         -1.4407   -1.6244   -0.1133 H         1 <0>         0.0879
      5 N1         -1.7530   -0.5827    1.6766 N.am      1 <0>        -0.4910
      6 C4         -0.6219   -0.6803    2.6091 C.3       1 <0>        -0.3851
      7 H2         -0.5972    0.0495    3.4183 H         1 <0>         0.1818
      8 S1          0.8474   -0.6813    1.5011 S.o2      1 <0>         2.3298
      9 O1          1.7963    0.2643    1.9751 O.2       1 <0>        -0.9090
     10 O2          1.2489   -2.0213    1.2512 O.2       1 <0>        -0.9212
     11 C5         -1.1211   -2.0644    2.9842 C.3       1 <0>        -0.1786
     12 C6         -2.3389   -1.6771    2.1994 C.2       1 <0>         0.5126
     13 O3         -3.4416   -2.1674    2.0796 O.2       1 <0>        -0.4399
     14 C7         -2.4313    0.2197   -0.5052 C.2       1 <0>         0.5224
     15 O4         -2.7256   -0.0801   -1.6498 O.co2     1 <0>        -0.6803
     16 O5         -2.9595    1.1804    0.0283 O.co2     1 <0>        -0.6470
     17 C8          0.6227   -0.5460   -1.2872 C.3       1 <0>         0.1439
     18 N2          1.9493    0.0459   -1.4769 N.pl3     1 <0>        -0.3012
     19 C9          3.1037   -0.6368   -1.6565 C.2       1 <0>        -0.0548
     20 C10         4.0762    0.2952   -1.7894 C.2       1 <0>        -0.0512
     21 N3          3.4770    1.4867   -1.6860 N.2       1 <0>        -0.2713
     22 N4          2.2163    1.3047   -1.5068 N.2       1 <0>        -0.0636
     23 H3          1.0039    1.9031    0.0027 H         1 <0>         0.0884
     24 H4         -0.5459    1.8868   -0.8726 H         1 <0>         0.0922
     25 H5         -0.5289    1.8773    0.9072 H         1 <0>         0.0792
     26 H6         -0.5476   -2.8786    2.5411 H         1 <0>         0.1407
     27 H7         -1.3036   -2.1968    4.0507 H         1 <0>         0.1268
     28 H8          0.7149   -1.6299   -1.2184 H         1 <0>         0.1253
     29 H9         -0.0144   -0.2885   -2.1333 H         1 <0>         0.1421
     30 H10         3.2248   -1.7096   -1.6872 H         1 <0>         0.1939
     31 H11         5.1289    0.1127   -1.9476 H         1 <0>         0.1909
@<TRIPOS>BOND
     1    1    2 1
     2    1   23 1
     3    1   24 1
     4    1   25 1
     5    2    8 1
     6    2    3 1
     7    2   17 1
     8    3    4 1
     9    3    5 1
    10    3   14 1
    11    5   12 am
    12    5    6 1
    13    6    7 1
    14    6    8 1
    15    6   11 1
    16    8    9 2
    17    8   10 2
    18   11   12 1
    19   11   26 1
    20   11   27 1
    21   12   13 2
    22   14   15 2
    23   14   16 1
    24   17   18 1
    25   17   28 1
    26   17   29 1
    27   18   22 1
    28   18   19 1
    29   19   20 2
    30   19   30 1
    31   20   21 1
    32   20   31 1
    33   21   22 2
@<TRIPOS>MOLECULE
ZINC04521479
   41    44     0     0     0
SMALL
USER_CHARGES
3-hydroxy-4-[(1-hydroxy-2-naphthyl)azo]naphthalene-1-sulfonic acid
@<TRIPOS>ATOM
      1 C1         -1.0017   -4.8858   -0.5953 C.ar      1 <0>        -0.1054
      2 C2         -2.2015   -4.2246   -0.8484 C.ar      1 <0>        -0.1243
      3 C3         -2.2660   -2.8645   -0.8404 C.ar      1 <0>        -0.0868
      4 C4         -1.1083   -2.1147   -0.5727 C.ar      1 <0>        -0.0812
      5 C5          0.1125   -2.7872   -0.3146 C.ar      1 <0>        -0.0250
      6 C6          0.1399   -4.1913   -0.3320 C.ar      1 <0>        -0.1124
      7 C7          1.2771   -2.0429   -0.0459 C.ar      1 <0>        -0.1193
      8 C8          1.2342   -0.6870   -0.0388 C.ar      1 <0>        -0.0956
      9 C9          0.0307   -0.0007   -0.2873 C.ar      1 <0>         0.0300
     10 C10        -1.1409   -0.7072   -0.5569 C.ar      1 <0>         0.1853
     11 O1         -2.2993   -0.0457   -0.8009 O.3       1 <0>        -0.4750
     12 N1          0.0116    1.3621   -0.2698 N.2       1 <0>        -0.2040
     13 N2          1.0934    2.0192   -0.0207 N.2       1 <0>        -0.2049
     14 C11         1.0743    3.3787   -0.0033 C.ar      1 <0>         0.0372
     15 C12         2.2900    4.1396    0.2833 C.ar      1 <0>        -0.0067
     16 C13         3.5091    3.5002    0.5359 C.ar      1 <0>        -0.1126
     17 C14         4.6209    4.2464    0.7939 C.ar      1 <0>        -0.1067
     18 C15         4.5615    5.6376    0.8038 C.ar      1 <0>        -0.1262
     19 C16         3.3926    6.2914    0.5568 C.ar      1 <0>        -0.1003
     20 C17         2.2273    5.5541    0.2871 C.ar      1 <0>        -0.0053
     21 C18         1.0023    6.1949    0.0276 C.ar      1 <0>        -0.5895
     22 C19        -0.1196    5.4732   -0.2322 C.ar      1 <0>        -0.0719
     23 C20        -0.1079    4.0792   -0.2528 C.ar      1 <0>         0.1456
     24 O2         -1.2521    3.3989   -0.5165 O.3       1 <0>        -0.4693
     25 S1          0.9213    7.9550    0.0402 S.o2      1 <0>         2.6903
     26 O3          2.1856    8.4230   -0.4090 O.2       1 <0>        -1.0410
     27 O4         -0.2950    8.3102   -0.6030 O.2       1 <0>        -1.0458
     28 H1         -0.9765   -5.9655   -0.6077 H         1 <0>         0.1245
     29 H2         -3.0928   -4.7987   -1.0541 H         1 <0>         0.1254
     30 H3         -3.2026   -2.3645   -1.0383 H         1 <0>         0.1336
     31 H4          1.0624   -4.7181   -0.1376 H         1 <0>         0.1301
     32 H5          2.2085   -2.5529    0.1510 H         1 <0>         0.1322
     33 H6          2.1348   -0.1267    0.1642 H         1 <0>         0.1402
     34 H7         -2.4454    0.1605   -1.7343 H         1 <0>         0.3973
     35 H8          3.5678    2.4218    0.5314 H         1 <0>         0.1290
     36 H9          5.5599    3.7518    0.9937 H         1 <0>         0.1225
     37 H10         5.4558    6.2066    1.0108 H         1 <0>         0.1267
     38 H11         3.3616    7.3709    0.5678 H         1 <0>         0.1783
     39 H12        -1.0455    5.9937   -0.4278 H         1 <0>         0.1508
     40 H13        -1.7741    3.1877    0.2696 H         1 <0>         0.3931
     41 O5          0.7879    8.3890    1.4930 O.3       1 <0>        -1.0628
@<TRIPOS>BOND
     1    1    6 ar
     2    1    2 ar
     3    1   28 1
     4    2    3 ar
     5    2   29 1
     6    3    4 ar
     7    3   30 1
     8    4   10 ar
     9    4    5 ar
    10    5    6 ar
    11    5    7 ar
    12    6   31 1
    13    7    8 ar
    14    7   32 1
    15    8    9 ar
    16    8   33 1
    17    9   10 ar
    18    9   12 1
    19   10   11 1
    20   11   34 1
    21   12   13 2
    22   13   14 1
    23   14   23 ar
    24   14   15 ar
    25   15   20 ar
    26   15   16 ar
    27   16   17 ar
    28   16   35 1
    29   17   18 ar
    30   17   36 1
    31   18   19 ar
    32   18   37 1
    33   19   20 ar
    34   19   38 1
    35   20   21 ar
    36   21   22 ar
    37   21   25 1
    38   22   23 ar
    39   22   39 1
    40   23   24 1
    41   24   40 1
    42   25   26 2
    43   25   27 2
    44   25   41 1
@<TRIPOS>MOLECULE
ZINC34801951
   68    73     0     0     0
SMALL
USER_CHARGES

@<TRIPOS>ATOM
      1 C1          1.4421    1.4789   -3.9746 C.ar      1 <0>        -0.0951
      2 C2          2.5867    2.1911   -3.7784 C.ar      1 <0>        -0.1246
      3 C3          3.8019    1.5159   -3.5816 C.ar      1 <0>         0.0823
      4 C4          5.0009    2.2267   -3.3757 C.ar      1 <0>        -0.7057
      5 C5          6.1668    1.5609   -3.1867 C.ar      1 <0>         0.0451
      6 C6          6.2055    0.1534   -3.1922 C.ar      1 <0>        -0.0711
      7 C7          5.0352   -0.5836   -3.3934 C.ar      1 <0>         0.3364
      8 C8          3.8164    0.0992   -3.5907 C.ar      1 <0>        -0.1308
      9 C9          2.6177   -0.6019   -3.7958 C.ar      1 <0>        -0.0928
     10 C10         1.4571    0.0865   -3.9835 C.ar      1 <0>        -0.1372
     11 N1          5.0714   -1.9683   -3.3987 N.pl3     1 <0>        -0.8336
     12 N2          7.3881   -0.4923   -3.0011 N.2       1 <0>        -0.1932
     13 N3          8.4701    0.1850   -2.8155 N.2       1 <0>        -0.2574
     14 C11         9.6564   -0.4627   -2.6238 C.ar      1 <0>         0.0738
     15 C12         9.7004   -1.8611   -2.6343 C.ar      1 <0>        -0.1157
     16 C13        10.8925   -2.5102   -2.4416 C.ar      1 <0>        -0.1091
     17 C14        12.0624   -1.7765   -2.2350 C.ar      1 <0>        -0.0369
     18 C15        12.0201   -0.3808   -2.2244 C.ar      1 <0>        -0.1081
     19 C16        10.8304    0.2712   -2.4225 C.ar      1 <0>        -0.0695
     20 C17        13.3492   -2.4791   -2.0266 C.ar      1 <0>        -0.0369
     21 C18        13.3923   -3.8747   -2.0425 C.ar      1 <0>        -0.1080
     22 C19        14.5829   -4.5266   -1.8501 C.ar      1 <0>        -0.0695
     23 C20        15.7551   -3.7928   -1.6377 C.ar      1 <0>         0.0738
     24 C21        15.7102   -2.3946   -1.6220 C.ar      1 <0>        -0.1157
     25 C22        14.5191   -1.7454   -1.8200 C.ar      1 <0>        -0.1091
     26 N4         16.9413   -4.4406   -1.4456 N.2       1 <0>        -0.2575
     27 N5         18.0217   -3.7634   -1.2498 N.2       1 <0>        -0.1932
     28 C23        19.2041   -4.4091   -1.0582 C.ar      1 <0>        -0.0711
     29 C24        20.3717   -3.6723   -0.8407 C.ar      1 <0>         0.3365
     30 C25        21.5905   -4.3552   -0.6436 C.ar      1 <0>        -0.1308
     31 C26        21.6079   -5.7717   -0.6698 C.ar      1 <0>         0.0823
     32 C27        20.4116   -6.4822   -0.8918 C.ar      1 <0>        -0.7057
     33 C28        19.2446   -5.8165   -1.0744 C.ar      1 <0>         0.0452
     34 S1         20.4311   -8.2438   -0.9254 S.o2      1 <0>         2.6986
     35 O1         20.3700   -8.6934    0.4567 O.2       1 <0>        -1.0620
     36 O2         19.2645   -8.6647   -1.6856 O.2       1 <0>        -1.0608
     37 O3         21.6726   -8.6403   -1.5714 O.3       1 <0>        -1.0606
     38 C29        22.8230   -6.4469   -0.4727 C.ar      1 <0>        -0.1245
     39 C30        23.9648   -5.7349   -0.2597 C.ar      1 <0>        -0.0951
     40 C31        23.9469   -4.3428   -0.2341 C.ar      1 <0>        -0.1372
     41 C32        22.7863   -3.6543   -0.4215 C.ar      1 <0>        -0.0928
     42 N6         20.3328   -2.2879   -0.8194 N.pl3     1 <0>        -0.8335
     43 S2          4.9852    3.9886   -3.3646 S.o2      1 <0>         2.6986
     44 O4          4.5839    4.3990   -2.0280 O.2       1 <0>        -1.0620
     45 O5          6.3355    4.4251   -3.6844 O.2       1 <0>        -1.0608
     46 O6          4.0251    4.4089   -4.3733 O.3       1 <0>        -1.0606
     47 H1          0.5085    2.0018   -4.1212 H         1 <0>         0.1260
     48 H2          2.5596    3.2708   -3.7745 H         1 <0>         0.1674
     49 H3          7.0787    2.1180   -3.0300 H         1 <0>         0.1511
     50 H4          2.6155   -1.6819   -3.8049 H         1 <0>         0.1184
     51 H5          0.5361   -0.4551   -4.1412 H         1 <0>         0.1214
     52 H6          5.9123   -2.4320   -3.2622 H         1 <0>         0.4127
     53 H7          4.2557   -2.4743   -3.5389 H         1 <0>         0.4017
     54 H8          8.7956   -2.4289   -2.7936 H         1 <0>         0.1314
     55 H9         10.9266   -3.5896   -2.4492 H         1 <0>         0.1275
     56 H10        12.9257    0.1854   -2.0641 H         1 <0>         0.1323
     57 H11        10.7988    1.3507   -2.4190 H         1 <0>         0.1380
     58 H12        12.4873   -4.4409   -2.2061 H         1 <0>         0.1323
     59 H13        14.6160   -5.6060   -1.8622 H         1 <0>         0.1380
     60 H14        16.6142   -1.8268   -1.4581 H         1 <0>         0.1314
     61 H15        14.4848   -0.6659   -1.8120 H         1 <0>         0.1275
     62 H16        18.3341   -6.3735   -1.2391 H         1 <0>         0.1510
     63 H17        22.8523   -7.5264   -0.4895 H         1 <0>         0.1674
     64 H18        24.8975   -6.2579   -0.1081 H         1 <0>         0.1260
     65 H19        24.8656   -3.8014   -0.0630 H         1 <0>         0.1214
     66 H20        22.7862   -2.5745   -0.3989 H         1 <0>         0.1184
     67 H21        19.4918   -1.8242   -0.9559 H         1 <0>         0.4128
     68 H22        21.1465   -1.7821   -0.6679 H         1 <0>         0.4017
@<TRIPOS>BOND
     1    1   10 ar
     2    1    2 ar
     3    1   47 1
     4    2    3 ar
     5    2   48 1
     6    3    8 ar
     7    3    4 ar
     8    4    5 ar
     9    4   43 1
    10    5    6 ar
    11    5   49 1
    12    6    7 ar
    13    6   12 1
    14    7    8 ar
    15    7   11 1
    16    8    9 ar
    17    9   10 ar
    18    9   50 1
    19   10   51 1
    20   11   52 1
    21   11   53 1
    22   12   13 2
    23   13   14 1
    24   14   19 ar
    25   14   15 ar
    26   15   16 ar
    27   15   54 1
    28   16   17 ar
    29   16   55 1
    30   17   18 ar
    31   17   20 1
    32   18   19 ar
    33   18   56 1
    34   19   57 1
    35   20   25 ar
    36   20   21 ar
    37   21   22 ar
    38   21   58 1
    39   22   23 ar
    40   22   59 1
    41   23   24 ar
    42   23   26 1
    43   24   25 ar
    44   24   60 1
    45   25   61 1
    46   26   27 2
    47   27   28 1
    48   28   33 ar
    49   28   29 ar
    50   29   30 ar
    51   29   42 1
    52   30   41 ar
    53   30   31 ar
    54   31   32 ar
    55   31   38 ar
    56   32   33 ar
    57   32   34 1
    58   33   62 1
    59   34   35 2
    60   34   36 2
    61   34   37 1
    62   38   39 ar
    63   38   63 1
    64   39   40 ar
    65   39   64 1
    66   40   41 ar
    67   40   65 1
    68   41   66 1
    69   42   67 1
    70   42   68 1
    71   43   44 2
    72   43   45 2
    73   43   46 1
@<TRIPOS>MOLECULE
ZINC13494220
   40    43     0     0     0
SMALL
NO_CHARGES

@<TRIPOS>ATOM
      1 C1          3.3353    1.3633    3.5661 C.ar      1 <0>        -0.1517
      2 C2          3.4179   -0.0168    3.5458 C.ar      1 <0>        -0.0816
      3 C3          3.5017   -0.6873    2.3410 C.ar      1 <0>        -0.1943
      4 C4          3.5028    0.0255    1.1504 C.ar      1 <0>         0.1197
      5 C5          3.4197    1.4104    1.1736 C.ar      1 <0>        -0.1456
      6 C6          3.3361    2.0759    2.3812 C.ar      1 <0>        -0.0823
      7 O1          3.5855   -0.6316   -0.0361 O.3       1 <0>        -0.2591
      8 C7          3.6573   -1.9880   -0.0103 C.ar      1 <0>         0.0820
      9 C8          2.4929   -2.7441   -0.0459 C.ar      1 <0>        -0.1107
     10 C9          2.5619   -4.1208   -0.0195 C.ar      1 <0>        -0.0831
     11 C10         3.8036   -4.7544    0.0426 C.ar      1 <0>         0.0759
     12 C11         4.9714   -3.9915    0.0777 C.ar      1 <0>        -0.1319
     13 C12         4.8950   -2.6153    0.0458 C.ar      1 <0>        -0.1090
     14 N1          3.8761   -6.1249    0.0695 N.2       1 <0>        -0.4451
     15 C13         4.7314   -6.7409   -0.6759 C.2       1 <0>         0.1459
     16 C14         4.8110   -8.2455   -0.6464 C.3       1 <0>         0.1587
     17 C15         4.4990   -8.8053   -2.0109 C.ar      1 <0>        -0.0998
     18 C16         5.0807   -8.6639   -3.2489 C.ar      1 <0>        -0.0911
     19 C17         4.5471   -9.3249   -4.3428 C.ar      1 <0>        -0.0788
     20 C18         3.4297  -10.1279   -4.1952 C.ar      1 <0>        -0.1188
     21 C19         2.8379  -10.2770   -2.9578 C.ar      1 <0>        -0.0340
     22 C20         3.3701   -9.6141   -1.8514 C.ar      1 <0>        -0.1863
     23 C21         2.9830   -9.5650   -0.4296 C.2       1 <0>         0.5220
     24 O2          2.0400  -10.1564    0.0566 O.2       1 <0>        -0.4421
     25 O3          3.8269   -8.7699    0.2491 O.3       1 <0>        -0.2889
     26 H1          3.2654    1.8853    4.5090 H         1 <0>         0.1262
     27 H2          3.4174   -0.5710    4.4728 H         1 <0>         0.1265
     28 H3          3.5666   -1.7652    2.3257 H         1 <0>         0.1269
     29 H4          3.4207    1.9675    0.2484 H         1 <0>         0.1329
     30 H5          3.2711    3.1538    2.3998 H         1 <0>         0.1322
     31 H6          1.5322   -2.2531   -0.0940 H         1 <0>         0.1395
     32 H7          1.6560   -4.7081   -0.0465 H         1 <0>         0.1391
     33 H8          5.9342   -4.4785    0.1258 H         1 <0>         0.1339
     34 H9          5.7986   -2.0242    0.0689 H         1 <0>         0.1368
     35 H10         5.8062   -8.5599   -0.3323 H         1 <0>         0.1484
     36 H11         5.3899   -6.1779   -1.3207 H         1 <0>         0.1283
     37 H12         5.9531   -8.0384   -3.3680 H         1 <0>         0.1391
     38 H13         5.0045   -9.2129   -5.3147 H         1 <0>         0.1404
     39 H14         3.0188  -10.6401   -5.0527 H         1 <0>         0.1402
     40 H15         1.9659  -10.9044   -2.8460 H         1 <0>         0.1395
@<TRIPOS>BOND
     1    1    6 ar
     2    1    2 ar
     3    1   26 1
     4    2    3 ar
     5    2   27 1
     6    3    4 ar
     7    3   28 1
     8    4    5 ar
     9    4    7 1
    10    5    6 ar
    11    5   29 1
    12    6   30 1
    13    7    8 1
    14    8   13 ar
    15    8    9 ar
    16    9   10 ar
    17    9   31 1
    18   10   11 ar
    19   10   32 1
    20   11   12 ar
    21   11   14 1
    22   12   13 ar
    23   12   33 1
    24   13   34 1
    25   14   15 2
    26   15   36 1
    27   15   16 1
    28   16   25 1
    29   16   17 1
    30   16   35 1
    31   17   22 ar
    32   17   18 ar
    33   18   19 ar
    34   18   37 1
    35   19   20 ar
    36   19   38 1
    37   20   21 ar
    38   20   39 1
    39   21   22 ar
    40   21   40 1
    41   22   23 1
    42   23   24 2
    43   23   25 1
@<TRIPOS>MOLECULE
ZINC13494220
   40    43     0     0     0
SMALL
NO_CHARGES

@<TRIPOS>ATOM
      1 C1          3.6675    1.0363    4.3632 C.ar      1 <0>        -0.1512
      2 C2          3.6463   -0.3381    4.2127 C.ar      1 <0>        -0.0816
      3 C3          3.8387   -0.9006    2.9658 C.ar      1 <0>        -0.1942
      4 C4          4.0535   -0.0852    1.8638 C.ar      1 <0>         0.1195
      5 C5          4.0744    1.2937    2.0176 C.ar      1 <0>        -0.1451
      6 C6          3.8813    1.8511    3.2667 C.ar      1 <0>        -0.0822
      7 O1          4.2436   -0.6360    0.6363 O.3       1 <0>        -0.2589
      8 C7          4.1818   -1.9888    0.5277 C.ar      1 <0>         0.0836
      9 C8          2.9714   -2.6062    0.2406 C.ar      1 <0>        -0.1095
     10 C9          2.9050   -3.9788    0.1301 C.ar      1 <0>        -0.0895
     11 C10         4.0558   -4.7478    0.3068 C.ar      1 <0>         0.0623
     12 C11         5.2704   -4.1240    0.5948 C.ar      1 <0>        -0.1305
     13 C12         5.3304   -2.7506    0.6986 C.ar      1 <0>        -0.1088
     14 N1          3.9933   -6.1148    0.1981 N.2       1 <0>        -0.4391
     15 C13         4.7942   -6.7361   -0.6015 C.2       1 <0>         0.1745
     16 C14         5.7153   -5.9547   -1.5026 C.3       1 <0>         0.0897
     17 C15         5.4524   -6.3119   -2.9434 C.ar      1 <0>        -0.0951
     18 C16         4.3495   -6.2116   -3.7586 C.ar      1 <0>        -0.0905
     19 C17         4.4218   -6.6374   -5.0745 C.ar      1 <0>        -0.0748
     20 C18         5.6005   -7.1639   -5.5733 C.ar      1 <0>        -0.1188
     21 C19         6.7133   -7.2692   -4.7643 C.ar      1 <0>        -0.0312
     22 C20         6.6477   -6.8422   -3.4376 C.ar      1 <0>        -0.1888
     23 C21         7.6331   -6.8196   -2.3412 C.2       1 <0>         0.5218
     24 O2          8.7802   -7.2099   -2.4272 O.2       1 <0>        -0.4383
     25 O3          7.0757   -6.3039   -1.2330 O.3       1 <0>        -0.3019
     26 H1          3.5124    1.4742    5.3381 H         1 <0>         0.1263
     27 H2          3.4794   -0.9723    5.0708 H         1 <0>         0.1266
     28 H3          3.8224   -1.9741    2.8488 H         1 <0>         0.1270
     29 H4          4.2417    1.9306    1.1616 H         1 <0>         0.1330
     30 H5          3.8971    2.9243    3.3869 H         1 <0>         0.1323
     31 H6          2.0811   -2.0104    0.1040 H         1 <0>         0.1403
     32 H7          1.9632   -4.4583   -0.0925 H         1 <0>         0.1407
     33 H8          6.1631   -4.7162    0.7322 H         1 <0>         0.1395
     34 H9          6.2708   -2.2668    0.9175 H         1 <0>         0.1391
     35 H10         5.5674   -4.8856   -1.3498 H         1 <0>         0.1375
     36 H11         4.8041   -7.8158   -0.6245 H         1 <0>         0.1783
     37 H12         3.4280   -5.8010   -3.3731 H         1 <0>         0.1350
     38 H13         3.5549   -6.5586   -5.7138 H         1 <0>         0.1410
     39 H14         5.6494   -7.4942   -6.6003 H         1 <0>         0.1415
     40 H15         7.6316   -7.6805   -5.1566 H         1 <0>         0.1408
@<TRIPOS>BOND
     1    1    6 ar
     2    1    2 ar
     3    1   26 1
     4    2    3 ar
     5    2   27 1
     6    3    4 ar
     7    3   28 1
     8    4    5 ar
     9    4    7 1
    10    5    6 ar
    11    5   29 1
    12    6   30 1
    13    7    8 1
    14    8   13 ar
    15    8    9 ar
    16    9   10 ar
    17    9   31 1
    18   10   11 ar
    19   10   32 1
    20   11   12 ar
    21   11   14 1
    22   12   13 ar
    23   12   33 1
    24   13   34 1
    25   14   15 2
    26   15   36 1
    27   15   16 1
    28   16   25 1
    29   16   17 1
    30   16   35 1
    31   17   22 ar
    32   17   18 ar
    33   18   19 ar
    34   18   37 1
    35   19   20 ar
    36   19   38 1
    37   20   21 ar
    38   20   39 1
    39   21   22 ar
    40   21   40 1
    41   22   23 1
    42   23   24 2
    43   23   25 1
@<TRIPOS>MOLECULE
ZINC04529848
   34    37     0     0     0
SMALL
USER_CHARGES
6-chloro-2-(6-chloro-4-methyl-3-oxo-benzothiophen-2-ylidene)-4-methyl-benzothiophen-3-one
@<TRIPOS>ATOM
      1 C1          5.8813    9.8786   -0.0009 C.3       1 <0>        -0.1356
      2 C2          4.5509   10.5864    0.0159 C.ar      1 <0>         0.0291
      3 C3          4.5130   11.9569    0.0238 C.ar      1 <0>        -0.1271
      4 C4          3.3052   12.6402    0.0397 C.ar      1 <0>         0.0248
      5 C5          2.1194   11.9261    0.0476 C.ar      1 <0>        -0.0862
      6 C6          2.1472   10.5468    0.0398 C.ar      1 <0>        -0.0637
      7 C7          3.3558    9.8285    0.0237 C.ar      1 <0>        -0.2006
      8 C8          3.2287    8.3688    0.0230 C.2       1 <0>         0.4192
      9 O1          4.2001    7.6357    0.0156 O.2       1 <0>        -0.3936
     10 C9          1.8511    7.8427    0.0270 C.2       1 <0>        -0.1103
     11 C10         1.4326    6.5293    0.0236 C.2       1 <0>        -0.1103
     12 C11         0.0551    6.0032    0.0331 C.2       1 <0>         0.4191
     13 O2         -0.9164    6.7363    0.0456 O.2       1 <0>        -0.3936
     14 C12        -0.0721    4.5435    0.0262 C.ar      1 <0>        -0.2005
     15 C13        -1.2672    3.7856    0.0332 C.ar      1 <0>         0.0291
     16 C14        -1.2292    2.4151    0.0210 C.ar      1 <0>        -0.1271
     17 C15        -0.0215    1.7317    0.0116 C.ar      1 <0>         0.0248
     18 C16         1.1643    2.4459    0.0041 C.ar      1 <0>        -0.0862
     19 C17         1.1365    3.8253    0.0113 C.ar      1 <0>        -0.0637
     20 S1          2.4222    5.0484    0.0064 S.3       1 <0>         0.1204
     21 Cl1         0.0021   -0.0041    0.0020 Cl        1 <0>        -0.0364
     22 C18        -2.5976    4.4934    0.0497 C.3       1 <0>        -0.1354
     23 S2          0.8616    9.3236    0.0454 S.3       1 <0>         0.1205
     24 Cl2         3.2817   14.3761    0.0489 Cl        1 <0>        -0.0365
     25 H1          6.1919    9.7133   -1.0325 H         1 <0>         0.0869
     26 H2          6.6251   10.4910    0.5088 H         1 <0>         0.0784
     27 H3          5.7890    8.9196    0.5089 H         1 <0>         0.0917
     28 H4          5.4383   12.5139    0.0180 H         1 <0>         0.1502
     29 H5          1.1739   12.4479    0.0597 H         1 <0>         0.1527
     30 H6         -2.1546    1.8581    0.0223 H         1 <0>         0.1502
     31 H7          2.1098    1.9241   -0.0070 H         1 <0>         0.1527
     32 H8         -2.9280    4.6697   -0.9739 H         1 <0>         0.0869
     33 H9         -3.3315    3.8755    0.5671 H         1 <0>         0.0784
     34 H10        -2.4954    5.4469    0.5679 H         1 <0>         0.0915
@<TRIPOS>BOND
     1    1    2 1
     2    1   25 1
     3    1   26 1
     4    1   27 1
     5    2    7 ar
     6    2    3 ar
     7    3    4 ar
     8    3   28 1
     9    4    5 ar
    10    4   24 1
    11    5    6 ar
    12    5   29 1
    13    6   23 1
    14    6    7 ar
    15    7    8 1
    16    8    9 2
    17    8   10 1
    18   10   11 2
    19   10   23 1
    20   11   20 1
    21   11   12 1
    22   12   13 2
    23   12   14 1
    24   14   19 ar
    25   14   15 ar
    26   15   16 ar
    27   15   22 1
    28   16   17 ar
    29   16   30 1
    30   17   18 ar
    31   17   21 1
    32   18   19 ar
    33   18   31 1
    34   19   20 1
    35   22   32 1
    36   22   33 1
    37   22   34 1
@<TRIPOS>MOLECULE
ZINC04712894
   34    37     0     0     0
SMALL
USER_CHARGES
6-chloro-2-(6-chloro-4-methyl-3-oxo-benzothiophen-2-ylidene)-4-methyl-benzothiophen-3-one
@<TRIPOS>ATOM
      1 C1         -2.8007   -0.0333    0.0291 C.3       1 <0>        -0.1354
      2 C2         -2.5845    1.4582    0.0346 C.ar      1 <0>         0.0266
      3 C3         -3.6671    2.2994    0.0495 C.ar      1 <0>        -0.1245
      4 C4         -3.5038    3.6774    0.0554 C.ar      1 <0>         0.0220
      5 C5         -2.2266    4.2113    0.0461 C.ar      1 <0>        -0.0855
      6 C6         -1.1309    3.3730    0.0311 C.ar      1 <0>        -0.0563
      7 C7         -1.2666    1.9737    0.0185 C.ar      1 <0>        -0.1942
      8 C8         -0.0144    1.2129    0.0087 C.2       1 <0>         0.4118
      9 O1          0.0021   -0.0041    0.0020 O.2       1 <0>        -0.3678
     10 C9          1.2245    2.0125    0.0012 C.2       1 <0>        -0.1050
     11 C10         2.5309    1.5732   -0.0137 C.2       1 <0>        -0.1049
     12 C11         3.0350    0.1875   -0.0260 C.2       1 <0>         0.4118
     13 O2          2.2865   -0.7722   -0.0240 O.2       1 <0>        -0.3678
     14 C12         4.4924    0.0371   -0.0413 C.ar      1 <0>        -0.1942
     15 C13         5.2311   -1.1700   -0.0554 C.ar      1 <0>         0.0266
     16 C14         6.6020   -1.1537   -0.0693 C.ar      1 <0>        -0.1245
     17 C15         7.3045    0.0430   -0.0699 C.ar      1 <0>         0.0221
     18 C16         6.6094    1.2400   -0.0563 C.ar      1 <0>        -0.0855
     19 C17         5.2299    1.2341   -0.0423 C.ar      1 <0>        -0.0563
     20 S1          4.0274    2.5392   -0.0307 S.3       1 <0>         0.0855
     21 Cl1         9.0404    0.0390   -0.0871 Cl        1 <0>        -0.0367
     22 C18         4.5021   -2.4889   -0.0552 C.3       1 <0>        -0.1354
     23 S2          0.6157    3.6864    0.0161 S.3       1 <0>         0.0856
     24 Cl2        -4.8894    4.7230    0.0737 Cl        1 <0>        -0.0367
     25 H1         -2.8628   -0.3876   -0.9998 H         1 <0>         0.0866
     26 H2         -1.9670   -0.5231    0.5323 H         1 <0>         0.0918
     27 H3         -3.7285   -0.2679    0.5509 H         1 <0>         0.0781
     28 H4         -4.6634    1.8826    0.0564 H         1 <0>         0.1501
     29 H5         -2.0881    5.2823    0.0502 H         1 <0>         0.1527
     30 H6          7.1440   -2.0878   -0.0795 H         1 <0>         0.1501
     31 H7          7.1463    2.1772   -0.0563 H         1 <0>         0.1527
     32 H8          4.3159   -2.8013   -1.0827 H         1 <0>         0.0866
     33 H9          5.1105   -3.2402    0.4484 H         1 <0>         0.0781
     34 H10         3.5528   -2.3793    0.4690 H         1 <0>         0.0918
@<TRIPOS>BOND
     1    1    2 1
     2    1   25 1
     3    1   26 1
     4    1   27 1
     5    2    7 ar
     6    2    3 ar
     7    3    4 ar
     8    3   28 1
     9    4    5 ar
    10    4   24 1
    11    5    6 ar
    12    5   29 1
    13    6   23 1
    14    6    7 ar
    15    7    8 1
    16    8    9 2
    17    8   10 1
    18   10   11 2
    19   10   23 1
    20   11   20 1
    21   11   12 1
    22   12   13 2
    23   12   14 1
    24   14   19 ar
    25   14   15 ar
    26   15   16 ar
    27   15   22 1
    28   16   17 ar
    29   16   30 1
    30   17   18 ar
    31   17   21 1
    32   18   19 ar
    33   18   31 1
    34   19   20 1
    35   22   32 1
    36   22   33 1
    37   22   34 1
@<TRIPOS>MOLECULE
ZINC01684448
   38    39     0     0     0
SMALL
USER_CHARGES

@<TRIPOS>ATOM
      1 C1         -0.0167    1.3801    0.0096 C.ar      1 <0>        -0.1352
      2 C2          1.1646    2.0918    0.0022 C.ar      1 <0>        -0.0709
      3 C3          2.3858    1.4137   -0.0131 C.ar      1 <0>        -0.0920
      4 C4          2.3998    0.0113   -0.0207 C.ar      1 <0>         0.1495
      5 C5          1.2038   -0.6872   -0.0130 C.ar      1 <0>        -0.1541
      6 C6          0.0021   -0.0041    0.0020 C.ar      1 <0>        -0.0828
      7 O1          3.5807   -0.6588   -0.0360 O.3       1 <0>        -0.4740
      8 C7          3.6514    2.1671   -0.0216 C.2       1 <0>         0.1181
      9 N1          4.7851    1.5325   -0.0358 N.2       1 <0>        -0.2084
     10 N2          5.9890    2.2492   -0.0439 N.am      1 <0>        -0.5595
     11 C8          7.1650    1.5910   -0.0586 C.2       1 <0>         0.5351
     12 O2          7.1811    0.3763   -0.0649 O.2       1 <0>        -0.4751
     13 C9          8.4446    2.3528   -0.0672 C.2       1 <0>         0.5351
     14 O3          8.4285    3.5674   -0.0610 O.2       1 <0>        -0.4749
     15 N3          9.6206    1.6946   -0.0820 N.am      1 <0>        -0.5595
     16 N4         10.8245    2.4112   -0.0901 N.2       1 <0>        -0.2083
     17 C10        11.9582    1.7766   -0.1042 C.2       1 <0>         0.1180
     18 C11        13.2238    2.5301   -0.1128 C.ar      1 <0>        -0.0919
     19 C12        13.2099    3.9324   -0.0998 C.ar      1 <0>         0.1495
     20 C13        14.4058    4.6309   -0.1080 C.ar      1 <0>        -0.1541
     21 C14        15.6075    3.9478   -0.1294 C.ar      1 <0>        -0.0828
     22 C15        15.6262    2.5637   -0.1422 C.ar      1 <0>        -0.1351
     23 C16        14.4450    1.8520   -0.1280 C.ar      1 <0>        -0.0709
     24 O4         12.0290    4.6024   -0.0798 O.3       1 <0>        -0.4740
     25 H1         -0.9605    1.9049    0.0260 H         1 <0>         0.1317
     26 H2          1.1456    3.1716    0.0078 H         1 <0>         0.1339
     27 H3          1.2101   -1.7671   -0.0192 H         1 <0>         0.1337
     28 H4         -0.9277   -0.5536    0.0083 H         1 <0>         0.1305
     29 H5          3.9315   -0.8576    0.8429 H         1 <0>         0.3933
     30 H6          3.6370    3.2470   -0.0161 H         1 <0>         0.1269
     31 H7          5.9760    3.2191   -0.0389 H         1 <0>         0.3991
     32 H8          9.6336    0.7247   -0.0869 H         1 <0>         0.3990
     33 H9         11.9726    0.6968   -0.1098 H         1 <0>         0.1268
     34 H10        14.3995    5.7108   -0.0981 H         1 <0>         0.1337
     35 H11        16.5372    4.4973   -0.1364 H         1 <0>         0.1305
     36 H12        16.5700    2.0389   -0.1593 H         1 <0>         0.1317
     37 H13        14.4640    0.7721   -0.1336 H         1 <0>         0.1339
     38 H14        11.6974    4.7885    0.8094 H         1 <0>         0.3933
@<TRIPOS>BOND
     1    1    6 ar
     2    1    2 ar
     3    1   25 1
     4    2    3 ar
     5    2   26 1
     6    3    4 ar
     7    3    8 1
     8    4    5 ar
     9    4    7 1
    10    5    6 ar
    11    5   27 1
    12    6   28 1
    13    7   29 1
    14    8    9 2
    15    8   30 1
    16    9   10 1
    17   10   11 am
    18   10   31 1
    19   11   12 2
    20   11   13 1
    21   13   14 2
    22   13   15 am
    23   15   16 1
    24   15   32 1
    25   16   17 2
    26   17   18 1
    27   17   33 1
    28   18   23 ar
    29   18   19 ar
    30   19   20 ar
    31   19   24 1
    32   20   21 ar
    33   20   34 1
    34   21   22 ar
    35   21   35 1
    36   22   23 ar
    37   22   36 1
    38   23   37 1
    39   24   38 1
@<TRIPOS>MOLECULE
ZINC00110550
   32    35     0     0     0
SMALL
USER_CHARGES
(3Z)-3-[[5-(2-thienyl)-2-thienyl]methylene]indolin-2-one
@<TRIPOS>ATOM
      1 C1         -4.3691   -0.4811    0.2901 C.ar      1 <0>        -0.1407
      2 C2         -5.2851    0.5565    0.2289 C.ar      1 <0>        -0.0820
      3 C3         -4.8593    1.8640    0.1068 C.ar      1 <0>        -0.1360
      4 C4         -3.5019    2.1490    0.0323 C.ar      1 <0>         0.1416
      5 C5         -2.5766    1.0965    0.0918 C.ar      1 <0>        -0.1033
      6 C6         -3.0163   -0.2168    0.2223 C.ar      1 <0>        -0.0629
      7 C7         -1.2403    1.7201   -0.0078 C.2       1 <0>        -0.1891
      8 C8         -0.0126    1.0758    0.0080 C.2       1 <0>         0.0955
      9 C9          1.1596    1.7917   -0.2825 C.2       1 <0>        -0.2113
     10 C10         2.4464    1.6147    0.2319 C.2       1 <0>        -0.0933
     11 C11         3.4401    2.4369   -0.2016 C.2       1 <0>        -0.1662
     12 C12         3.1347    3.4204   -1.1395 C.2       1 <0>        -0.0916
     13 S1          1.3899    3.1568   -1.4099 S.3       1 <0>         0.2537
     14 C13         4.0221    4.4153   -1.7534 C.2       1 <0>        -0.0833
     15 C14         3.7244    5.3910   -2.6901 C.2       1 <0>        -0.1384
     16 C15         4.7363    6.2182   -3.1157 C.2       1 <0>        -0.1537
     17 C16         5.9897    6.0472   -2.6176 C.2       1 <0>        -0.1715
     18 S2          5.7688    4.6783   -1.4935 S.3       1 <0>         0.0868
     19 C17        -1.4751    3.1169   -0.1293 C.2       1 <0>         0.5527
     20 O1         -0.6146    3.9731   -0.2389 O.2       1 <0>        -0.4949
     21 N1         -2.7998    3.3398   -0.1032 N.am      1 <0>        -0.6537
     22 H1         -4.7146   -1.4993    0.3914 H         1 <0>         0.1308
     23 H2         -6.3420    0.3409    0.2830 H         1 <0>         0.1321
     24 H3         -5.5823    2.6648    0.0583 H         1 <0>         0.1282
     25 H4         -2.3024   -1.0258    0.2700 H         1 <0>         0.1292
     26 H5          0.0415    0.0223    0.2393 H         1 <0>         0.1567
     27 H6          2.6480    0.8417    0.9588 H         1 <0>         0.1428
     28 H7          4.4467    2.3291    0.1747 H         1 <0>         0.1369
     29 H8          2.7210    5.5017   -3.0739 H         1 <0>         0.1365
     30 H9          4.5388    6.9929   -3.8419 H         1 <0>         0.1398
     31 H10         6.8899    6.5990   -2.8446 H         1 <0>         0.1908
     32 H11        -3.2111    4.2157   -0.1703 H         1 <0>         0.4179
@<TRIPOS>BOND
     1    1    6 ar
     2    1    2 ar
     3    1   22 1
     4    2    3 ar
     5    2   23 1
     6    3    4 ar
     7    3   24 1
     8    4   21 1
     9    4    5 ar
    10    5    6 ar
    11    5    7 1
    12    6   25 1
    13    7    8 2
    14    7   19 1
    15    8    9 1
    16    8   26 1
    17    9   13 1
    18    9   10 2
    19   10   11 1
    20   10   27 1
    21   11   12 2
    22   11   28 1
    23   12   13 1
    24   12   14 1
    25   14   18 1
    26   14   15 2
    27   15   16 1
    28   15   29 1
    29   16   17 2
    30   16   30 1
    31   17   18 1
    32   17   31 1
    33   19   20 2
    34   19   21 am
    35   21   32 1
@<TRIPOS>MOLECULE
ZINC00537805
   60    62     0     0     0
SMALL
USER_CHARGES

@<TRIPOS>ATOM
      1 C1         -0.0173    1.4248    0.0099 C.3       1 <0>         0.0182
      2 O1          0.0021   -0.0041    0.0020 O.3       1 <0>        -0.2748
      3 C2          0.6248   -0.6173    1.0397 C.ar      1 <0>         0.1920
      4 C3          1.2017    0.1376    2.0502 C.ar      1 <0>        -0.2078
      5 C4          1.8351   -0.4872    3.1057 C.ar      1 <0>        -0.0422
      6 C5          1.9003   -1.8709    3.1645 C.ar      1 <0>        -0.0840
      7 C6          1.3321   -2.6365    2.1684 C.ar      1 <0>        -0.0380
      8 C7          0.6827   -2.0162    1.0981 C.ar      1 <0>        -0.1597
      9 C8          0.0667   -2.8292    0.0322 C.2       1 <0>         0.5595
     10 O2         -0.4933   -2.2858   -0.9002 O.2       1 <0>        -0.5093
     11 N1          0.1246   -4.1744    0.0921 N.am      1 <0>        -0.7295
     12 C9         -0.4871   -4.9818   -0.9663 C.3       1 <0>         0.1248
     13 C10        -0.2807   -6.4663   -0.6591 C.3       1 <0>        -0.0921
     14 C11        -0.9099   -7.2969   -1.7479 C.ar      1 <0>        -0.0513
     15 C12        -2.2308   -7.6903   -1.6410 C.ar      1 <0>        -0.1388
     16 C13        -2.8080   -8.4521   -2.6397 C.ar      1 <0>        -0.0201
     17 C14        -2.0644   -8.8201   -3.7454 C.ar      1 <0>        -0.6264
     18 C15        -0.7438   -8.4259   -3.8527 C.ar      1 <0>        -0.0200
     19 C16        -0.1679   -7.6605   -2.8560 C.ar      1 <0>        -0.1388
     20 S1         -2.7998   -9.7921   -5.0179 S.o2      1 <0>         2.6734
     21 O3         -1.7374  -10.4617   -5.6828 O.2       1 <0>        -1.0097
     22 O4         -3.8845  -10.4894   -4.4207 O.2       1 <0>        -1.0098
     23 N2         -3.4590   -8.7429   -6.1164 N.2       1 <0>        -1.1046
     24 C17        -4.0714   -9.2023   -7.1683 C.2       1 <0>         0.6850
     25 O5         -4.1695  -10.5353   -7.3644 O.3       1 <0>        -0.7480
     26 N3         -4.6181   -8.3321   -8.0794 N.pl3     1 <0>        -0.7202
     27 C18        -5.3077   -8.8494   -9.2639 C.3       1 <0>         0.1652
     28 C19        -4.2854   -9.1312  -10.3668 C.3       1 <0>        -0.1304
     29 C20        -5.0055   -9.6715  -11.6039 C.3       1 <0>        -0.1163
     30 C21        -6.0168   -8.6353  -12.0985 C.3       1 <0>        -0.1184
     31 C22        -7.0391   -8.3536  -10.9956 C.3       1 <0>        -0.1141
     32 C23        -6.3189   -7.8133   -9.7585 C.3       1 <0>        -0.1258
     33 Cl1         2.7012   -2.6426    4.4974 Cl        1 <0>        -0.0634
     34 H1          1.0053    1.8021    0.0021 H         1 <0>         0.0584
     35 H2         -0.5445    1.7859   -0.8732 H         1 <0>         0.1066
     36 H3         -0.5275    1.7763    0.9067 H         1 <0>         0.0584
     37 H4          1.1556    1.2159    2.0109 H         1 <0>         0.1455
     38 H5          2.2828    0.1052    3.8899 H         1 <0>         0.1414
     39 H6          1.3849   -3.7141    2.2178 H         1 <0>         0.1433
     40 H7          0.5714   -4.6080    0.8360 H         1 <0>         0.3973
     41 H8         -1.5543   -4.7662   -1.0169 H         1 <0>         0.0750
     42 H9         -0.0220   -4.7405   -1.9221 H         1 <0>         0.0750
     43 H10         0.7866   -6.6820   -0.6085 H         1 <0>         0.0813
     44 H11        -0.7458   -6.7077    0.2967 H         1 <0>         0.0814
     45 H12        -2.8117   -7.4028   -0.7772 H         1 <0>         0.1262
     46 H13        -3.8397   -8.7601   -2.5559 H         1 <0>         0.1378
     47 H14        -0.1628   -8.7137   -4.7164 H         1 <0>         0.1377
     48 H15         0.8628   -7.3493   -2.9416 H         1 <0>         0.1261
     49 H16        -4.5477   -7.3750   -7.9386 H         1 <0>         0.3913
     50 H17        -5.8287   -9.7718   -9.0072 H         1 <0>         0.0815
     51 H18        -3.7644   -8.2088  -10.6236 H         1 <0>         0.0553
     52 H19        -3.5649   -9.8694  -10.0144 H         1 <0>         0.0710
     53 H20        -4.2772   -9.8722  -12.3896 H         1 <0>         0.0572
     54 H21        -5.5265  -10.5939  -11.3471 H         1 <0>         0.0624
     55 H22        -5.4958   -7.7129  -12.3552 H         1 <0>         0.0590
     56 H23        -6.5298   -9.0202  -12.9798 H         1 <0>         0.0564
     57 H24        -7.7595   -7.6154  -11.3480 H         1 <0>         0.0595
     58 H25        -7.5601   -9.2759  -10.7388 H         1 <0>         0.0632
     59 H26        -7.0473   -7.6126   -8.9728 H         1 <0>         0.0650
     60 H27        -5.7980   -6.8909  -10.0153 H         1 <0>         0.0622
@<TRIPOS>BOND
     1    1    2 1
     2    1   34 1
     3    1   35 1
     4    1   36 1
     5    2    3 1
     6    3    8 ar
     7    3    4 ar
     8    4    5 ar
     9    4   37 1
    10    5    6 ar
    11    5   38 1
    12    6    7 ar
    13    6   33 1
    14    7    8 ar
    15    7   39 1
    16    8    9 1
    17    9   10 2
    18    9   11 am
    19   11   12 1
    20   11   40 1
    21   12   13 1
    22   12   41 1
    23   12   42 1
    24   13   14 1
    25   13   43 1
    26   13   44 1
    27   14   19 ar
    28   14   15 ar
    29   15   16 ar
    30   15   45 1
    31   16   17 ar
    32   16   46 1
    33   17   18 ar
    34   17   20 1
    35   18   19 ar
    36   18   47 1
    37   19   48 1
    38   20   21 2
    39   20   22 2
    40   20   23 1
    41   23   24 2
    42   24   25 1
    43   24   26 1
    44   26   27 1
    45   26   49 1
    46   27   32 1
    47   27   28 1
    48   27   50 1
    49   28   29 1
    50   28   51 1
    51   28   52 1
    52   29   30 1
    53   29   53 1
    54   29   54 1
    55   30   31 1
    56   30   55 1
    57   30   56 1
    58   31   32 1
    59   31   57 1
    60   31   58 1
    61   32   59 1
    62   32   60 1
@<TRIPOS>MOLECULE
ZINC01468126
   37    39     0     0     0
SMALL
USER_CHARGES
(3E)-3-[(4-isopropylphenyl)methylene]indolin-2-one
@<TRIPOS>ATOM
      1 C1          3.1160    3.1355   -2.6209 C.3       1 <0>        -0.1470
      2 C2          3.1715    2.7123   -1.1516 C.3       1 <0>        -0.0613
      3 C3          3.0941    3.9534   -0.2602 C.3       1 <0>        -0.1468
      4 C4          2.0101    1.8017   -0.8470 C.ar      1 <0>        -0.0572
      5 C5          0.7143    2.2584   -1.0172 C.ar      1 <0>        -0.1233
      6 C6         -0.3538    1.4322   -0.7409 C.ar      1 <0>        -0.0818
      7 C7         -0.1253    0.1275   -0.2868 C.ar      1 <0>        -0.0919
      8 C8          1.1885   -0.3263   -0.1174 C.ar      1 <0>        -0.0862
      9 C9          2.2450    0.5133   -0.3984 C.ar      1 <0>        -0.1227
     10 C10        -1.2568   -0.7595    0.0105 C.2       1 <0>         0.0245
     11 C11        -2.3320   -0.2847    0.7008 C.2       1 <0>        -0.1592
     12 C12        -2.4462    1.0083    1.4136 C.ar      1 <0>        -0.1116
     13 C13        -1.5723    2.0741    1.5996 C.ar      1 <0>        -0.0679
     14 C14        -1.9770    3.1712    2.3332 C.ar      1 <0>        -0.1451
     15 C15        -3.2485    3.2094    2.8807 C.ar      1 <0>        -0.0803
     16 C16        -4.1256    2.1599    2.6956 C.ar      1 <0>        -0.1414
     17 C17        -3.7343    1.0441    1.9635 C.ar      1 <0>         0.1430
     18 N1         -4.4024   -0.1323    1.6438 N.am      1 <0>        -0.6671
     19 C18        -3.6319   -0.9494    0.9058 C.2       1 <0>         0.5669
     20 O1         -3.9509   -2.0448    0.4815 O.2       1 <0>        -0.5048
     21 H1          3.1716    2.2432   -3.2618 H         1 <0>         0.0571
     22 H2          3.9638    3.8002   -2.8433 H         1 <0>         0.0607
     23 H3          2.1727    3.6673   -2.8139 H         1 <0>         0.0583
     24 H4          4.1066    2.1677   -0.9541 H         1 <0>         0.0799
     25 H5          3.1340    3.6492    0.7961 H         1 <0>         0.0573
     26 H6          2.1508    4.4852   -0.4533 H         1 <0>         0.0585
     27 H7          3.9419    4.6180   -0.4827 H         1 <0>         0.0607
     28 H8          0.5399    3.2649   -1.3679 H         1 <0>         0.1272
     29 H9         -1.3640    1.7886   -0.8785 H         1 <0>         0.1278
     30 H10         1.3734   -1.3311    0.2328 H         1 <0>         0.1289
     31 H11         3.2589    0.1650   -0.2680 H         1 <0>         0.1267
     32 H12        -1.2369   -1.8073   -0.3238 H         1 <0>         0.1495
     33 H13        -0.5810    2.0433    1.1722 H         1 <0>         0.1375
     34 H14        -1.3014    4.0009    2.4799 H         1 <0>         0.1284
     35 H15        -3.5588    4.0712    3.4529 H         1 <0>         0.1307
     36 H16        -5.1138    2.2005    3.1293 H         1 <0>         0.1277
     37 H17        -5.4331   -0.2919    1.9933 H         1 <0>         0.4441
@<TRIPOS>BOND
     1    1    2 1
     2    1   21 1
     3    1   22 1
     4    1   23 1
     5    2    3 1
     6    2    4 1
     7    2   24 1
     8    3   25 1
     9    3   26 1
    10    3   27 1
    11    4    9 ar
    12    4    5 ar
    13    5    6 ar
    14    5   28 1
    15    6    7 ar
    16    6   29 1
    17    7    8 ar
    18    7   10 1
    19    8    9 ar
    20    8   30 1
    21    9   31 1
    22   10   11 2
    23   10   32 1
    24   11   19 1
    25   11   12 1
    26   12   17 ar
    27   12   13 ar
    28   13   14 ar
    29   13   33 1
    30   14   15 ar
    31   14   34 1
    32   15   16 ar
    33   15   35 1
    34   16   17 ar
    35   16   36 1
    36   17   18 1
    37   18   19 am
    38   18   37 1
    39   19   20 2
@<TRIPOS>MOLECULE
ZINC02146508
   34    37     0     0     0
SMALL
USER_CHARGES
3,4-dichloro-N-[5-(5-chlorobenzothiazol-2-yl)sulfanyl-1,3,4-thiadiazol-2-yl]-benzamide
@<TRIPOS>ATOM
      1 C1        -10.4814    8.3217    0.0903 C.ar      1 <0>        -0.0692
      2 C2        -11.4133    9.3384    0.1051 C.ar      1 <0>        -0.1012
      3 C3        -11.0005   10.6601    0.1085 C.ar      1 <0>        -0.0023
      4 C4         -9.6491   10.9699    0.1033 C.ar      1 <0>        -0.0390
      5 C5         -8.7077    9.9612    0.0943 C.ar      1 <0>        -0.0314
      6 C6         -9.1190    8.6266    0.0904 C.ar      1 <0>        -0.1202
      7 C7         -8.1162    7.5417    0.0802 C.2       1 <0>         0.5610
      8 O1         -6.9304    7.8099    0.0752 O.2       1 <0>        -0.4482
      9 N1         -8.5160    6.2546    0.0764 N.am      1 <0>        -0.6067
     10 C8         -7.5717    5.2329    0.0668 C.2       1 <0>         0.2932
     11 N2         -6.2496    5.2964    0.0598 N.2       1 <0>        -0.2633
     12 N3         -5.5311    4.2598    0.0510 N.2       1 <0>        -0.2314
     13 C9         -6.0557    3.0435    0.0482 C.2       1 <0>        -0.0536
     14 S1         -7.7979    3.4568    0.0519 S.3       1 <0>         0.0923
     15 S2         -5.2651    1.4689    0.0366 S.3       1 <0>         0.3574
     16 C10        -3.5771    1.9741    0.0302 C.2       1 <0>         0.0511
     17 N4         -2.4939    1.2298    0.0210 N.2       1 <0>        -0.4684
     18 C11        -1.2511    1.7585    0.0176 C.ar      1 <0>         0.0885
     19 C12        -0.0126    1.0758    0.0080 C.ar      1 <0>        -0.0486
     20 C13         1.1701    1.7703    0.0004 C.ar      1 <0>        -0.0286
     21 C14         1.1955    3.1584    0.0067 C.ar      1 <0>        -0.0825
     22 C15         0.0022    3.8573    0.0214 C.ar      1 <0>        -0.0513
     23 C16        -1.1857    3.1703    0.0295 C.ar      1 <0>        -0.1711
     24 S3         -2.9021    3.6289    0.0480 S.3       1 <0>         0.1512
     25 Cl1         2.6687    0.8941   -0.0180 Cl        1 <0>        -0.0549
     26 Cl2        -9.1406   12.6298    0.1088 Cl        1 <0>        -0.0280
     27 Cl3       -12.1797   11.9341    0.1199 Cl        1 <0>        -0.0290
     28 H1        -10.8051    7.2913    0.0832 H         1 <0>         0.1434
     29 H2        -12.4673    9.1031    0.1096 H         1 <0>         0.1561
     30 H3         -7.6552   10.2032    0.0899 H         1 <0>         0.1615
     31 H4         -9.4621    6.0406    0.0804 H         1 <0>         0.4307
     32 H5          0.0021   -0.0041    0.0020 H         1 <0>         0.1456
     33 H6          2.1374    3.6869    0.0006 H         1 <0>         0.1511
     34 H7          0.0052    4.9373    0.0268 H         1 <0>         0.1459
@<TRIPOS>BOND
     1    1    6 ar
     2    1    2 ar
     3    1   28 1
     4    2    3 ar
     5    2   29 1
     6    3    4 ar
     7    3   27 1
     8    4    5 ar
     9    4   26 1
    10    5    6 ar
    11    5   30 1
    12    6    7 1
    13    7    8 2
    14    7    9 am
    15    9   10 1
    16    9   31 1
    17   10   14 1
    18   10   11 2
    19   11   12 1
    20   12   13 2
    21   13   14 1
    22   13   15 1
    23   15   16 1
    24   16   24 1
    25   16   17 2
    26   17   18 1
    27   18   23 ar
    28   18   19 ar
    29   19   20 ar
    30   19   32 1
    31   20   21 ar
    32   20   25 1
    33   21   22 ar
    34   21   33 1
    35   22   23 ar
    36   22   34 1
    37   23   24 1
@<TRIPOS>MOLECULE
ZINC03869685
   32    34     0     0     0
SMALL
USER_CHARGES

@<TRIPOS>ATOM
      1 C1          0.9741   -0.2755   -0.9644 C.ar      1 <0>        -0.0748
      2 C2          2.1569    0.4329   -0.9701 C.ar      1 <0>        -0.1346
      3 C3          2.3856    1.4156   -0.0177 C.ar      1 <0>         0.1032
      4 C4          1.4203    1.6918    0.9495 C.ar      1 <0>         0.0788
      5 C5          0.2328    0.9863    0.9617 C.ar      1 <0>        -0.0762
      6 C6          0.0021   -0.0041    0.0020 C.ar      1 <0>        -0.0447
      7 C7         -1.2637   -0.7605    0.0100 C.2       1 <0>         0.1350
      8 C8         -2.4363   -0.0759    0.1235 C.2       1 <0>        -0.0429
      9 C9         -3.6628   -0.7894    0.1327 C.2       1 <0>         0.4011
     10 O1         -4.7327   -0.2102    0.2323 O.2       1 <0>        -0.4484
     11 C10        -3.5946   -2.2549    0.0170 C.ar      1 <0>        -0.2690
     12 C11        -4.7561   -3.0387    0.0170 C.ar      1 <0>         0.2244
     13 C12        -4.6504   -4.4123   -0.0941 C.ar      1 <0>        -0.2081
     14 C13        -3.3994   -5.0103   -0.2044 C.ar      1 <0>         0.2000
     15 C14        -2.2463   -4.2416   -0.2047 C.ar      1 <0>        -0.1854
     16 C15        -2.3316   -2.8618   -0.0952 C.ar      1 <0>         0.1876
     17 O2         -1.2182   -2.0992   -0.1003 O.3       1 <0>        -0.1970
     18 O3         -3.3070   -6.3605   -0.3125 O.3       1 <0>        -0.4866
     19 O4         -5.9758   -2.4535    0.1257 O.3       1 <0>        -0.4726
     20 O5         -2.4312    1.2810    0.2275 O.3       1 <0>        -0.4502
     21 O6          1.6480    2.6557    1.8815 O.3       1 <0>        -0.4836
     22 O7          3.5534    2.1101   -0.0273 O.3       1 <0>        -0.4861
     23 H1          0.7971   -1.0371   -1.7094 H         1 <0>         0.1379
     24 H2          2.9075    0.2221   -1.7176 H         1 <0>         0.1421
     25 H3         -0.5155    1.1988    1.7108 H         1 <0>         0.1429
     26 H4         -5.5413   -5.0229   -0.0948 H         1 <0>         0.1515
     27 H5         -1.2805   -4.7174   -0.2903 H         1 <0>         0.1559
     28 H6         -3.3257   -6.6843   -1.2235 H         1 <0>         0.4050
     29 H7         -6.3751   -2.2160   -0.7224 H         1 <0>         0.4036
     30 H8         -3.3120    1.6729    0.3033 H         1 <0>         0.4079
     31 H9          1.3508    3.5370    1.6166 H         1 <0>         0.3905
     32 H10         3.5287    2.9137   -0.5647 H         1 <0>         0.3924
@<TRIPOS>BOND
     1    1    6 ar
     2    1    2 ar
     3    1   23 1
     4    2    3 ar
     5    2   24 1
     6    3    4 ar
     7    3   22 1
     8    4    5 ar
     9    4   21 1
    10    5    6 ar
    11    5   25 1
    12    6    7 1
    13    7   17 1
    14    7    8 2
    15    8    9 1
    16    8   20 1
    17    9   10 2
    18    9   11 1
    19   11   16 ar
    20   11   12 ar
    21   12   13 ar
    22   12   19 1
    23   13   14 ar
    24   13   26 1
    25   14   15 ar
    26   14   18 1
    27   15   16 ar
    28   15   27 1
    29   16   17 1
    30   18   28 1
    31   19   29 1
    32   20   30 1
    33   21   31 1
    34   22   32 1
@<TRIPOS>MOLECULE
ZINC03869685
   31    33     0     0     0
SMALL
USER_CHARGES

@<TRIPOS>ATOM
      1 C1          0.1390    1.1246   -0.8120 C.ar      1 <0>        -0.0626
      2 C2          1.3229    1.8301   -0.8179 C.ar      1 <0>        -0.1333
      3 C3          2.3812    1.4233   -0.0172 C.ar      1 <0>         0.0878
      4 C4          2.2522    0.2984    0.7970 C.ar      1 <0>         0.0757
      5 C5          1.0694   -0.4139    0.8086 C.ar      1 <0>        -0.0997
      6 C6          0.0021   -0.0041    0.0020 C.ar      1 <0>        -0.0194
      7 C7         -1.2620   -0.7597    0.0100 C.2       1 <0>         0.1007
      8 C8         -2.4587   -0.0763    0.1245 C.2       1 <0>        -0.0038
      9 C9         -3.6655   -0.7872    0.1324 C.2       1 <0>         0.3349
     10 C10        -3.6167   -2.1939    0.0219 C.2       1 <0>        -0.3331
     11 C11        -4.8018   -2.9593    0.0240 C.2       1 <0>         0.2664
     12 C12        -4.7326   -4.3182   -0.0844 C.2       1 <0>        -0.3749
     13 C13        -3.4871   -4.9570   -0.1979 C.2       1 <0>         0.3648
     14 O1         -3.4307   -6.2860   -0.3033 O.2       1 <0>        -0.6598
     15 C14        -2.3054   -4.2086   -0.2016 C.2       1 <0>        -0.3143
     16 C15        -2.3616   -2.8325   -0.0921 C.2       1 <0>         0.2118
     17 O2         -1.2290   -2.0988   -0.0996 O.3       1 <0>        -0.2018
     18 O3         -6.0073   -2.3463    0.1339 O.3       1 <0>        -0.4482
     19 O4         -4.8484   -0.1420    0.2437 O.3       1 <0>        -0.5747
     20 O5         -2.4638    1.2803    0.2294 O.3       1 <0>        -0.4649
     21 O6          3.2919   -0.0973    1.5794 O.3       1 <0>        -0.4856
     22 O7          3.5458    2.1225   -0.0269 O.3       1 <0>        -0.4881
     23 H1         -0.6843    1.4460   -1.4327 H         1 <0>         0.1397
     24 H2          1.4276    2.7014   -1.4473 H         1 <0>         0.1381
     25 H3          0.9685   -1.2854    1.4384 H         1 <0>         0.1410
     26 H4         -5.6395   -4.9047   -0.0825 H         1 <0>         0.1180
     27 H5         -1.3506   -4.7057   -0.2895 H         1 <0>         0.1230
     28 H6         -6.7597   -2.9537    0.1258 H         1 <0>         0.3847
     29 H7         -3.3475    1.6656    0.3047 H         1 <0>         0.4058
     30 H8          3.2925    0.2977    2.4620 H         1 <0>         0.3855
     31 H9          3.5825    2.8346    0.6263 H         1 <0>         0.3863
@<TRIPOS>BOND
     1    1    6 ar
     2    1    2 ar
     3    1   23 1
     4    2    3 ar
     5    2   24 1
     6    3    4 ar
     7    3   22 1
     8    4    5 ar
     9    4   21 1
    10    5    6 ar
    11    5   25 1
    12    6    7 1
    13    7   17 1
    14    7    8 2
    15    8    9 1
    16    8   20 1
    17    9   10 2
    18    9   19 1
    19   10   16 1
    20   10   11 1
    21   11   12 2
    22   11   18 1
    23   12   13 1
    24   12   26 1
    25   13   14 2
    26   13   15 1
    27   15   16 2
    28   15   27 1
    29   16   17 1
    30   18   28 1
    31   20   29 1
    32   21   30 1
    33   22   31 1
@<TRIPOS>MOLECULE
ZINC03797930
   57    61     0     0     0
SMALL
USER_CHARGES

@<TRIPOS>ATOM
      1 C1         -0.0178    1.4608    0.0101 C.3       1 <0>         0.0756
      2 N1          0.0021   -0.0041    0.0020 N.pl3     1 <0>        -0.4779
      3 C2          0.0079   -0.7756   -1.1193 C.2       1 <0>         0.1034
      4 C3          0.0281   -2.0937   -0.7697 C.2       1 <0>        -0.1402
      5 C4          0.0354   -2.1368    0.7032 C.ar      1 <0>        -0.0754
      6 C5          0.0236   -0.7983    1.1297 C.ar      1 <0>         0.0946
      7 C6          0.0313   -0.5163    2.4916 C.ar      1 <0>        -0.1255
      8 C7          0.0535   -1.5463    3.4071 C.ar      1 <0>        -0.0992
      9 C8          0.0683   -2.8675    2.9845 C.ar      1 <0>        -0.1386
     10 C9          0.0542   -3.1677    1.6397 C.ar      1 <0>        -0.0735
     11 C10         0.0398   -3.2475   -1.6846 C.2       1 <0>        -0.0198
     12 C11         1.1172   -3.7122   -2.4298 C.2       1 <0>        -0.0395
     13 C12         0.6208   -4.8840   -3.1806 C.2       1 <0>         0.5564
     14 O1          1.2746   -5.5640   -3.9461 O.2       1 <0>        -0.4464
     15 N2         -0.6740   -5.0726   -2.8749 N.am      1 <0>        -0.6902
     16 C13        -1.0897   -4.1493   -1.9915 C.2       1 <0>         0.5532
     17 O2         -2.2087   -4.0674   -1.5257 O.2       1 <0>        -0.4418
     18 C14         2.4779   -3.1502   -2.4643 C.2       1 <0>        -0.1185
     19 C15         3.4364   -3.2746   -1.5022 C.2       1 <0>         0.0933
     20 N3          4.5640   -2.6188   -1.8910 N.pl3     1 <0>        -0.4798
     21 C16         4.3781   -2.0398   -3.1293 C.ar      1 <0>         0.0962
     22 C17         3.0730   -2.3483   -3.5479 C.ar      1 <0>        -0.0752
     23 C18         2.6089   -1.8925   -4.7796 C.ar      1 <0>        -0.0686
     24 C19         3.4370   -1.1416   -5.5852 C.ar      1 <0>        -0.1351
     25 C20         4.7273   -0.8397   -5.1749 C.ar      1 <0>        -0.0935
     26 C21         5.1968   -1.2769   -3.9550 C.ar      1 <0>        -0.1304
     27 C22         5.7987   -2.5392   -1.1066 C.3       1 <0>         0.1213
     28 C23         5.8024   -1.2444   -0.2914 C.3       1 <0>        -0.1304
     29 C24         7.0919   -1.1612    0.5278 C.3       1 <0>        -0.1323
     30 S1          7.0963    0.3739    1.4943 S.3       1 <0>         0.0637
     31 C25         8.6242    0.3216    2.3704 C.cat     1 <0>         0.4855
     32 N4          9.2482    1.4553    2.6902 N.pl3     1 <0>        -0.7357
     33 N5          9.1561   -0.8516    2.7133 N.pl3     1 <0>        -0.7643
     34 H1          1.0048    1.8381    0.0023 H         1 <0>         0.0705
     35 H2         -0.5450    1.8219   -0.8730 H         1 <0>         0.0878
     36 H3         -0.5280    1.8123    0.9069 H         1 <0>         0.0849
     37 H4         -0.0026   -0.4009   -2.1322 H         1 <0>         0.1741
     38 H5          0.0202    0.5088    2.8315 H         1 <0>         0.1196
     39 H6          0.0598   -1.3227    4.4637 H         1 <0>         0.1265
     40 H7          0.0861   -3.6646    3.7130 H         1 <0>         0.1250
     41 H8          0.0669   -4.1972    1.3134 H         1 <0>         0.1196
     42 H9         -1.2301   -5.7795   -3.2382 H         1 <0>         0.4308
     43 H10         3.3186   -3.8118   -0.5727 H         1 <0>         0.1746
     44 H11         1.6050   -2.1267   -5.1017 H         1 <0>         0.1223
     45 H12         3.0800   -0.7868   -6.5407 H         1 <0>         0.1277
     46 H13         5.3679   -0.2507   -5.8146 H         1 <0>         0.1281
     47 H14         6.2036   -1.0375   -3.6461 H         1 <0>         0.1168
     48 H15         5.8563   -3.3934   -0.4320 H         1 <0>         0.1002
     49 H16         6.6571   -2.5481   -1.7783 H         1 <0>         0.0963
     50 H17         5.7448   -0.3902   -0.9660 H         1 <0>         0.0946
     51 H18         4.9440   -1.2354    0.3802 H         1 <0>         0.0946
     52 H19         7.1495   -2.0155    1.2024 H         1 <0>         0.1123
     53 H20         7.9503   -1.1702   -0.1438 H         1 <0>         0.1212
     54 H21         8.8612    2.3090    2.4406 H         1 <0>         0.4515
     55 H22         8.7020   -1.6765    2.4806 H         1 <0>         0.4429
     56 H23         9.9972   -0.8803    3.1956 H         1 <0>         0.4324
     57 H24        10.0893    1.4265    3.1725 H         1 <0>         0.4339
@<TRIPOS>BOND
     1    1    2 1
     2    1   34 1
     3    1   35 1
     4    1   36 1
     5    2    6 1
     6    2    3 1
     7    3    4 2
     8    3   37 1
     9    4    5 1
    10    4   11 1
    11    5   10 ar
    12    5    6 ar
    13    6    7 ar
    14    7    8 ar
    15    7   38 1
    16    8    9 ar
    17    8   39 1
    18    9   10 ar
    19    9   40 1
    20   10   41 1
    21   11   16 1
    22   11   12 2
    23   12   13 1
    24   12   18 1
    25   13   14 2
    26   13   15 am
    27   15   16 am
    28   15   42 1
    29   16   17 2
    30   18   22 1
    31   18   19 2
    32   19   20 1
    33   19   43 1
    34   20   21 1
    35   20   27 1
    36   21   26 ar
    37   21   22 ar
    38   22   23 ar
    39   23   24 ar
    40   23   44 1
    41   24   25 ar
    42   24   45 1
    43   25   26 ar
    44   25   46 1
    45   26   47 1
    46   27   28 1
    47   27   48 1
    48   27   49 1
    49   28   29 1
    50   28   50 1
    51   28   51 1
    52   29   30 1
    53   29   52 1
    54   29   53 1
    55   30   31 1
    56   31   32 2
    57   31   33 1
    58   32   54 1
    59   32   57 1
    60   33   55 1
    61   33   56 1
@<TRIPOS>MOLECULE
ZINC00020241
   32    33     0     0     0
SMALL
USER_CHARGES

@<TRIPOS>ATOM
      1 C1         -0.1270    1.4527   -0.1407 C.3       1 <0>        -0.1086
      2 C2         -0.1213   -0.0541   -0.1173 C.ar      1 <0>        -0.0512
      3 C3         -0.1891   -0.7637   -1.3027 C.ar      1 <0>        -0.1894
      4 C4         -0.1846   -2.1462   -1.2858 C.ar      1 <0>        -0.0787
      5 C5         -0.1123   -2.8235   -0.0842 C.ar      1 <0>        -0.1800
      6 C6         -0.0436   -2.1141    1.1080 C.ar      1 <0>         0.2711
      7 C7         -0.0427   -0.7248    1.0870 C.ar      1 <0>        -0.1638
      8 C8          0.0374    0.0491    2.3776 C.3       1 <0>        -0.0992
      9 N1          0.0291   -2.7961    2.3254 N.pl3     1 <0>        -0.6700
     10 C9         -0.0480   -4.1815    2.3504 C.ar      1 <0>         0.1665
     11 C10        -1.2336   -4.8092    2.7139 C.ar      1 <0>        -0.1405
     12 C11        -1.3074   -6.1862    2.7384 C.ar      1 <0>        -0.1235
     13 C12        -0.2039   -6.9555    2.4014 C.ar      1 <0>        -0.1393
     14 C13         0.9797   -6.3537    2.0380 C.ar      1 <0>        -0.0835
     15 C14         1.0707   -4.9579    2.0026 C.ar      1 <0>        -0.1368
     16 C15         2.3298   -4.3079    1.6101 C.2       1 <0>         0.5183
     17 O1          3.2619   -4.9816    1.1924 O.co2     1 <0>        -0.6938
     18 O2          2.4455   -3.0931    1.7012 O.co2     1 <0>        -0.6645
     19 H1          0.8972    1.8188   -0.2117 H         1 <0>         0.0651
     20 H2         -0.6976    1.8005   -1.0018 H         1 <0>         0.0591
     21 H3         -0.5846    1.8285    0.7744 H         1 <0>         0.0624
     22 H4         -0.2460   -0.2365   -2.2436 H         1 <0>         0.1082
     23 H5         -0.2380   -2.6972   -2.2132 H         1 <0>         0.1108
     24 H6         -0.1095   -3.9034   -0.0717 H         1 <0>         0.1109
     25 H7         -0.9689    0.2328    2.7541 H         1 <0>         0.0555
     26 H8          0.6006   -0.5266    3.1121 H         1 <0>         0.0596
     27 H9          0.5383    1.0007    2.2002 H         1 <0>         0.0621
     28 H10         0.1334   -2.3012    3.1531 H         1 <0>         0.4004
     29 H11        -2.0980   -4.2179    2.9779 H         1 <0>         0.1160
     30 H12        -2.2310   -6.6687    3.0223 H         1 <0>         0.1150
     31 H13        -0.2734   -8.0331    2.4245 H         1 <0>         0.1149
     32 H14         1.8358   -6.9582    1.7769 H         1 <0>         0.1270
@<TRIPOS>BOND
     1    1    2 1
     2    1   19 1
     3    1   20 1
     4    1   21 1
     5    2    7 ar
     6    2    3 ar
     7    3    4 ar
     8    3   22 1
     9    4    5 ar
    10    4   23 1
    11    5    6 ar
    12    5   24 1
    13    6    7 ar
    14    6    9 1
    15    7    8 1
    16    8   25 1
    17    8   26 1
    18    8   27 1
    19    9   10 1
    20    9   28 1
    21   10   15 ar
    22   10   11 ar
    23   11   12 ar
    24   11   29 1
    25   12   13 ar
    26   12   30 1
    27   13   14 ar
    28   13   31 1
    29   14   15 ar
    30   14   32 1
    31   15   16 1
    32   16   17 2
    33   16   18 1
@<TRIPOS>MOLECULE
ZINC03830569
   22    23     0     0     0
SMALL
USER_CHARGES

@<TRIPOS>ATOM
      1 C1         -0.0184    1.5046    0.0103 C.3       1 <0>        -0.2401
      2 C2          1.5102    1.5017   -0.0043 C.3       1 <0>         0.2457
      3 H1          1.9714    1.8821   -0.9158 H         1 <0>         0.1677
      4 N1          1.3538    0.0351    0.0781 N.am      1 <0>        -0.5228
      5 C3          0.0021   -0.0041    0.0020 C.2       1 <0>         0.5093
      6 O1         -0.8356   -0.8795   -0.0500 O.2       1 <0>        -0.4571
      7 C4          1.9721   -0.3241    1.3791 C.3       1 <0>         0.0278
      8 H2          1.4071   -1.1156    1.8714 H         1 <0>         0.1025
      9 C5          1.8699    0.9816    2.1603 C.2       1 <0>         0.0499
     10 C6          1.6006    1.1484    3.4386 C.2       1 <0>        -0.1753
     11 C7          1.5456    2.5367    4.0222 C.3       1 <0>         0.1205
     12 O2          0.3937    2.6563    4.8593 O.3       1 <0>        -0.5722
     13 O3          2.1252    1.9564    1.2083 O.3       1 <0>        -0.2947
     14 C8          3.4112   -0.7316    1.1941 C.2       1 <0>         0.5203
     15 O4          4.0686   -0.2522    0.2861 O.co2     1 <0>        -0.6613
     16 O5          3.9179   -1.5407    1.9525 O.co2     1 <0>        -0.6816
     17 H3         -0.4393    1.9244    0.9240 H         1 <0>         0.1193
     18 H4         -0.4566    1.9341   -0.8906 H         1 <0>         0.1107
     19 H5          1.4192    0.2902    4.0687 H         1 <0>         0.1430
     20 H6          2.4439    2.7187    4.6122 H         1 <0>         0.0571
     21 H7          1.4862    3.2677    3.2159 H         1 <0>         0.0547
     22 H8          0.2942    3.5262    5.2696 H         1 <0>         0.3766
@<TRIPOS>BOND
     1    1    5 1
     2    1    2 1
     3    1   17 1
     4    1   18 1
     5    2    3 1
     6    2   13 1
     7    2    4 1
     8    4    5 am
     9    4    7 1
    10    5    6 2
    11    7    8 1
    12    7    9 1
    13    7   14 1
    14    9   10 2
    15    9   13 1
    16   10   11 1
    17   10   19 1
    18   11   12 1
    19   11   20 1
    20   11   21 1
    21   12   22 1
    22   14   15 2
    23   14   16 1
@<TRIPOS>MOLECULE
ZINC00596881
   40    42     0     0     0
SMALL
USER_CHARGES

@<TRIPOS>ATOM
      1 C1         -0.0167    1.3782    0.0096 C.ar      1 <0>        -0.0794
      2 C2          1.1706    2.0858    0.0021 C.ar      1 <0>        -0.1068
      3 C3          2.3780    1.4104   -0.0130 C.ar      1 <0>        -0.0208
      4 C4          2.3961    0.0270   -0.0206 C.ar      1 <0>        -0.1105
      5 C5          1.2082   -0.6795   -0.0130 C.ar      1 <0>        -0.0901
      6 C6          0.0021   -0.0041    0.0020 C.ar      1 <0>        -0.1009
      7 C7         -1.2928   -0.7750    0.0107 C.3       1 <0>         0.0968
      8 O1         -1.7154   -1.0114   -1.3338 O.3       1 <0>        -0.3551
      9 C8         -2.9406   -1.7395   -1.4384 C.3       1 <0>         0.1197
     10 H1         -3.5665   -1.5238   -0.5725 H         1 <0>         0.0940
     11 C9         -2.6400   -3.2388   -1.4897 C.3       1 <0>         0.0710
     12 N1         -2.0453   -3.6614   -0.2192 N.pl3     1 <0>        -0.4099
     13 C10        -0.7116   -3.6750    0.0885 C.2       1 <0>         0.0266
     14 C11        -0.6078   -4.1306    1.3515 C.2       1 <0>         0.0046
     15 N2         -1.8444   -4.3881    1.8027 N.pl3     1 <0>        -0.4724
     16 C12        -2.7109   -4.1046    0.8690 C.cat     1 <0>         0.2872
     17 C13        -3.6632   -1.3287   -2.6954 C.ar      1 <0>        -0.1001
     18 C14        -2.9524   -0.8197   -3.7662 C.ar      1 <0>        -0.0568
     19 C15        -3.6144   -0.4428   -4.9193 C.ar      1 <0>        -0.1022
     20 C16        -4.9894   -0.5752   -5.0028 C.ar      1 <0>        -0.0091
     21 C17        -5.7010   -1.0849   -3.9319 C.ar      1 <0>        -0.0991
     22 C18        -5.0372   -1.4665   -2.7796 C.ar      1 <0>        -0.0136
     23 Cl1        -5.9289   -2.1120   -1.4372 Cl        1 <0>        -0.0556
     24 Cl2        -5.8209   -0.1012   -6.4511 Cl        1 <0>        -0.0353
     25 Cl3         3.8696    2.2984   -0.0231 Cl        1 <0>        -0.0518
     26 H2         -0.9592    1.9053    0.0259 H         1 <0>         0.1348
     27 H3          1.1558    3.1656    0.0076 H         1 <0>         0.1411
     28 H4          3.3383   -0.5007   -0.0327 H         1 <0>         0.1400
     29 H5          1.2222   -1.7594   -0.0193 H         1 <0>         0.1247
     30 H6         -1.1447   -1.7283    0.5180 H         1 <0>         0.0524
     31 H7         -2.0551   -0.1989    0.5352 H         1 <0>         0.0693
     32 H8         -3.5655   -3.7893   -1.6585 H         1 <0>         0.1334
     33 H9         -1.9429   -3.4420   -2.3026 H         1 <0>         0.1396
     34 H10         0.1013   -3.3779   -0.5575 H         1 <0>         0.2229
     35 H11         0.3102   -4.2651    1.9043 H         1 <0>         0.2272
     36 H12        -3.7826   -4.2096    0.9518 H         1 <0>         0.2600
     37 H13        -1.8793   -0.7161   -3.7015 H         1 <0>         0.1537
     38 H14        -3.0587   -0.0445   -5.7553 H         1 <0>         0.1497
     39 H15        -6.7741   -1.1884   -3.9966 H         1 <0>         0.1535
     40 H16        -2.0608   -4.7279    2.6851 H         1 <0>         0.4672
@<TRIPOS>BOND
     1    1    6 ar
     2    1    2 ar
     3    1   26 1
     4    2    3 ar
     5    2   27 1
     6    3    4 ar
     7    3   25 1
     8    4    5 ar
     9    4   28 1
    10    5    6 ar
    11    5   29 1
    12    6    7 1
    13    7    8 1
    14    7   30 1
    15    7   31 1
    16    8    9 1
    17    9   10 1
    18    9   11 1
    19    9   17 1
    20   11   12 1
    21   11   32 1
    22   11   33 1
    23   12   16 1
    24   12   13 1
    25   13   14 2
    26   13   34 1
    27   14   15 1
    28   14   35 1
    29   15   16 2
    30   15   40 1
    31   16   36 1
    32   17   22 ar
    33   17   18 ar
    34   18   19 ar
    35   18   37 1
    36   19   20 ar
    37   19   38 1
    38   20   21 ar
    39   20   24 1
    40   21   22 ar
    41   21   39 1
    42   22   23 1
@<TRIPOS>MOLECULE
ZINC00596881
   39    41     0     0     0
SMALL
USER_CHARGES

@<TRIPOS>ATOM
      1 C1         -0.0167    1.3782    0.0096 C.ar      1 <0>        -0.0853
      2 C2          1.1706    2.0858    0.0021 C.ar      1 <0>        -0.1123
      3 C3          2.3780    1.4104   -0.0130 C.ar      1 <0>        -0.0269
      4 C4          2.3961    0.0270   -0.0206 C.ar      1 <0>        -0.1121
      5 C5          1.2082   -0.6795   -0.0130 C.ar      1 <0>        -0.0843
      6 C6          0.0021   -0.0041    0.0020 C.ar      1 <0>        -0.0843
      7 C7         -1.2928   -0.7750    0.0107 C.3       1 <0>         0.0875
      8 O1         -1.7154   -1.0114   -1.3338 O.3       1 <0>        -0.3630
      9 C8         -2.9406   -1.7395   -1.4384 C.3       1 <0>         0.1181
     10 H1         -3.5665   -1.5238   -0.5725 H         1 <0>         0.0885
     11 C9         -2.6400   -3.2388   -1.4897 C.3       1 <0>         0.0877
     12 N1         -2.0453   -3.6614   -0.2192 N.pl3     1 <0>        -0.4608
     13 C10        -0.7116   -3.6755    0.0884 C.2       1 <0>        -0.0532
     14 C11        -0.6078   -4.1309    1.3514 C.2       1 <0>        -0.0267
     15 N2         -1.8445   -4.3878    1.8028 N.2       1 <0>        -0.4883
     16 C12        -2.7109   -4.1042    0.8691 C.2       1 <0>         0.1826
     17 C13        -3.6632   -1.3287   -2.6954 C.ar      1 <0>        -0.0827
     18 C14        -2.9524   -0.8197   -3.7662 C.ar      1 <0>        -0.0617
     19 C15        -3.6144   -0.4428   -4.9193 C.ar      1 <0>        -0.1051
     20 C16        -4.9894   -0.5752   -5.0028 C.ar      1 <0>        -0.0176
     21 C17        -5.7010   -1.0849   -3.9319 C.ar      1 <0>        -0.1015
     22 C18        -5.0372   -1.4665   -2.7796 C.ar      1 <0>        -0.0168
     23 Cl1        -5.9289   -2.1120   -1.4372 Cl        1 <0>        -0.0503
     24 Cl2        -5.8209   -0.1012   -6.4511 Cl        1 <0>        -0.0495
     25 Cl3         3.8696    2.2984   -0.0231 Cl        1 <0>        -0.0658
     26 H2         -0.9592    1.9053    0.0259 H         1 <0>         0.1320
     27 H3          1.1558    3.1656    0.0076 H         1 <0>         0.1359
     28 H4          3.3383   -0.5007   -0.0327 H         1 <0>         0.1367
     29 H5          1.2222   -1.7594   -0.0193 H         1 <0>         0.1326
     30 H6         -1.1447   -1.7283    0.5180 H         1 <0>         0.0827
     31 H7         -2.0551   -0.1989    0.5352 H         1 <0>         0.0591
     32 H8         -3.5655   -3.7893   -1.6585 H         1 <0>         0.1065
     33 H9         -1.9429   -3.4420   -2.3026 H         1 <0>         0.1060
     34 H10         0.1013   -3.3788   -0.5578 H         1 <0>         0.1732
     35 H11         0.3102   -4.2656    1.9041 H         1 <0>         0.1708
     36 H12        -3.7827   -4.2087    0.9521 H         1 <0>         0.2027
     37 H13        -1.8793   -0.7161   -3.7015 H         1 <0>         0.1518
     38 H14        -3.0587   -0.0445   -5.7553 H         1 <0>         0.1448
     39 H15        -6.7741   -1.1884   -3.9966 H         1 <0>         0.1491
@<TRIPOS>BOND
     1    1    6 ar
     2    1    2 ar
     3    1   26 1
     4    2    3 ar
     5    2   27 1
     6    3    4 ar
     7    3   25 1
     8    4    5 ar
     9    4   28 1
    10    5    6 ar
    11    5   29 1
    12    6    7 1
    13    7    8 1
    14    7   30 1
    15    7   31 1
    16    8    9 1
    17    9   10 1
    18    9   11 1
    19    9   17 1
    20   11   12 1
    21   11   32 1
    22   11   33 1
    23   12   16 1
    24   12   13 1
    25   13   14 2
    26   13   34 1
    27   14   15 1
    28   14   35 1
    29   15   16 2
    30   16   36 1
    31   17   22 ar
    32   17   18 ar
    33   18   19 ar
    34   18   37 1
    35   19   20 ar
    36   19   38 1
    37   20   21 ar
    38   20   24 1
    39   21   22 ar
    40   21   39 1
    41   22   23 1
@<TRIPOS>MOLECULE
ZINC00643055
   40    42     0     0     0
SMALL
USER_CHARGES

@<TRIPOS>ATOM
      1 C1         -0.0167    1.3782    0.0096 C.ar      1 <0>        -0.0949
      2 C2          1.1706    2.0858    0.0021 C.ar      1 <0>        -0.1091
      3 C3          2.3780    1.4104   -0.0130 C.ar      1 <0>        -0.0205
      4 C4          2.3961    0.0270   -0.0206 C.ar      1 <0>        -0.1039
      5 C5          1.2082   -0.6795   -0.0130 C.ar      1 <0>        -0.0770
      6 C6          0.0021   -0.0041    0.0020 C.ar      1 <0>        -0.1018
      7 C7         -1.2928   -0.7750    0.0107 C.3       1 <0>         0.1013
      8 O1         -1.7154   -1.0114   -1.3338 O.3       1 <0>        -0.3567
      9 C8         -2.9406   -1.7395   -1.4384 C.3       1 <0>         0.1188
     10 H1         -3.0408   -2.4068   -0.5824 H         1 <0>         0.0975
     11 C9         -4.1156   -0.7599   -1.4618 C.3       1 <0>         0.0714
     12 N1         -4.1909   -0.0569   -0.1787 N.pl3     1 <0>        -0.4097
     13 C10        -4.8918   -0.4572    0.9269 C.2       1 <0>         0.0247
     14 C11        -4.6864    0.4749    1.8770 C.2       1 <0>         0.0095
     15 N2         -3.8820    1.4185    1.3655 N.pl3     1 <0>        -0.4752
     16 C12        -3.5771    1.1041    0.1362 C.cat     1 <0>         0.2860
     17 C13        -2.9365   -2.5496   -2.7091 C.ar      1 <0>        -0.1006
     18 C14        -2.1520   -2.1559   -3.7771 C.ar      1 <0>        -0.0575
     19 C15        -2.1478   -2.8983   -4.9428 C.ar      1 <0>        -0.1030
     20 C16        -2.9286   -4.0365   -5.0414 C.ar      1 <0>        -0.0088
     21 C17        -3.7134   -4.4311   -3.9731 C.ar      1 <0>        -0.0993
     22 C18        -3.7135   -3.6901   -2.8046 C.ar      1 <0>        -0.0136
     23 Cl1        -4.6936   -4.1880   -1.4610 Cl        1 <0>        -0.0519
     24 Cl2        -2.9236   -4.9686   -6.5059 Cl        1 <0>        -0.0354
     25 Cl3         3.8696    2.2984   -0.0231 Cl        1 <0>        -0.0493
     26 H2         -0.9592    1.9053    0.0259 H         1 <0>         0.1172
     27 H3          1.1558    3.1656    0.0076 H         1 <0>         0.1404
     28 H4          3.3383   -0.5007   -0.0327 H         1 <0>         0.1427
     29 H5          1.2222   -1.7594   -0.0193 H         1 <0>         0.1369
     30 H6         -1.1447   -1.7283    0.5180 H         1 <0>         0.0750
     31 H7         -2.0551   -0.1989    0.5352 H         1 <0>         0.0410
     32 H8         -3.9699   -0.0368   -2.2643 H         1 <0>         0.1365
     33 H9         -5.0424   -1.3082   -1.6306 H         1 <0>         0.1372
     34 H10        -5.4940   -1.3489    1.0193 H         1 <0>         0.2244
     35 H11        -5.0973    0.4644    2.8757 H         1 <0>         0.2275
     36 H12        -2.9414    1.6785   -0.5213 H         1 <0>         0.2571
     37 H13        -1.5424   -1.2677   -3.7007 H         1 <0>         0.1533
     38 H14        -1.5352   -2.5899   -5.7771 H         1 <0>         0.1495
     39 H15        -4.3230   -5.3193   -4.0495 H         1 <0>         0.1536
     40 H16        -3.5728    2.2082    1.8363 H         1 <0>         0.4667
@<TRIPOS>BOND
     1    1    6 ar
     2    1    2 ar
     3    1   26 1
     4    2    3 ar
     5    2   27 1
     6    3    4 ar
     7    3   25 1
     8    4    5 ar
     9    4   28 1
    10    5    6 ar
    11    5   29 1
    12    6    7 1
    13    7    8 1
    14    7   30 1
    15    7   31 1
    16    8    9 1
    17    9   10 1
    18    9   11 1
    19    9   17 1
    20   11   12 1
    21   11   32 1
    22   11   33 1
    23   12   16 1
    24   12   13 1
    25   13   14 2
    26   13   34 1
    27   14   15 1
    28   14   35 1
    29   15   16 2
    30   15   40 1
    31   16   36 1
    32   17   22 ar
    33   17   18 ar
    34   18   19 ar
    35   18   37 1
    36   19   20 ar
    37   19   38 1
    38   20   21 ar
    39   20   24 1
    40   21   22 ar
    41   21   39 1
    42   22   23 1
@<TRIPOS>MOLECULE
ZINC00643055
   39    41     0     0     0
SMALL
USER_CHARGES

@<TRIPOS>ATOM
      1 C1         -0.0167    1.3782    0.0096 C.ar      1 <0>        -0.0821
      2 C2          1.1706    2.0858    0.0021 C.ar      1 <0>        -0.1113
      3 C3          2.3780    1.4104   -0.0130 C.ar      1 <0>        -0.0264
      4 C4          2.3961    0.0270   -0.0206 C.ar      1 <0>        -0.1130
      5 C5          1.2082   -0.6795   -0.0130 C.ar      1 <0>        -0.0851
      6 C6          0.0021   -0.0041    0.0020 C.ar      1 <0>        -0.0860
      7 C7         -1.2928   -0.7750    0.0107 C.3       1 <0>         0.0901
      8 O1         -1.7154   -1.0114   -1.3338 O.3       1 <0>        -0.3634
      9 C8         -2.9406   -1.7395   -1.4384 C.3       1 <0>         0.1180
     10 H1         -3.0408   -2.4068   -0.5824 H         1 <0>         0.0887
     11 C9         -4.1156   -0.7599   -1.4618 C.3       1 <0>         0.0874
     12 N1         -4.1909   -0.0569   -0.1787 N.pl3     1 <0>        -0.4612
     13 C10        -4.8922   -0.4569    0.9267 C.2       1 <0>        -0.0564
     14 C11        -4.6866    0.4750    1.8769 C.2       1 <0>        -0.0247
     15 N2         -3.8818    1.4184    1.3656 N.2       1 <0>        -0.4886
     16 C12        -3.5768    1.1038    0.1364 C.2       1 <0>         0.1834
     17 C13        -2.9365   -2.5496   -2.7091 C.ar      1 <0>        -0.0828
     18 C14        -2.1520   -2.1559   -3.7771 C.ar      1 <0>        -0.0615
     19 C15        -2.1478   -2.8983   -4.9428 C.ar      1 <0>        -0.1050
     20 C16        -2.9286   -4.0365   -5.0414 C.ar      1 <0>        -0.0175
     21 C17        -3.7134   -4.4311   -3.9731 C.ar      1 <0>        -0.1018
     22 C18        -3.7135   -3.6901   -2.8046 C.ar      1 <0>        -0.0167
     23 Cl1        -4.6936   -4.1880   -1.4610 Cl        1 <0>        -0.0510
     24 Cl2        -2.9236   -4.9686   -6.5059 Cl        1 <0>        -0.0496
     25 Cl3         3.8696    2.2984   -0.0231 Cl        1 <0>        -0.0661
     26 H2         -0.9592    1.9053    0.0259 H         1 <0>         0.1332
     27 H3          1.1558    3.1656    0.0076 H         1 <0>         0.1371
     28 H4          3.3383   -0.5007   -0.0327 H         1 <0>         0.1358
     29 H5          1.2222   -1.7594   -0.0193 H         1 <0>         0.1319
     30 H6         -1.1447   -1.7283    0.5180 H         1 <0>         0.0601
     31 H7         -2.0551   -0.1989    0.5352 H         1 <0>         0.0791
     32 H8         -3.9699   -0.0368   -2.2643 H         1 <0>         0.1078
     33 H9         -5.0424   -1.3082   -1.6306 H         1 <0>         0.1051
     34 H10        -5.4948   -1.3484    1.0190 H         1 <0>         0.1736
     35 H11        -5.0977    0.4646    2.8755 H         1 <0>         0.1710
     36 H12        -2.9407    1.6780   -0.5210 H         1 <0>         0.2011
     37 H13        -1.5424   -1.2677   -3.7007 H         1 <0>         0.1526
     38 H14        -1.5352   -2.5899   -5.7771 H         1 <0>         0.1451
     39 H15        -4.3230   -5.3193   -4.0495 H         1 <0>         0.1489
@<TRIPOS>BOND
     1    1    6 ar
     2    1    2 ar
     3    1   26 1
     4    2    3 ar
     5    2   27 1
     6    3    4 ar
     7    3   25 1
     8    4    5 ar
     9    4   28 1
    10    5    6 ar
    11    5   29 1
    12    6    7 1
    13    7    8 1
    14    7   30 1
    15    7   31 1
    16    8    9 1
    17    9   10 1
    18    9   11 1
    19    9   17 1
    20   11   12 1
    21   11   32 1
    22   11   33 1
    23   12   16 1
    24   12   13 1
    25   13   14 2
    26   13   34 1
    27   14   15 1
    28   14   35 1
    29   15   16 2
    30   16   36 1
    31   17   22 ar
    32   17   18 ar
    33   18   19 ar
    34   18   37 1
    35   19   20 ar
    36   19   38 1
    37   20   21 ar
    38   20   24 1
    39   21   22 ar
    40   21   39 1
    41   22   23 1
@<TRIPOS>MOLECULE
ZINC00607971
   40    42     0     0     0
SMALL
USER_CHARGES

@<TRIPOS>ATOM
      1 C1         -0.0167    1.3792    0.0096 C.ar      1 <0>        -0.1007
      2 C2          1.1708    2.0869    0.0021 C.ar      1 <0>        -0.0710
      3 C3          2.3773    1.4131   -0.0135 C.ar      1 <0>        -0.0906
      4 C4          2.3974    0.0294   -0.0212 C.ar      1 <0>        -0.0206
      5 C5          1.2096   -0.6792   -0.0132 C.ar      1 <0>        -0.0973
      6 C6          0.0021   -0.0041    0.0020 C.ar      1 <0>        -0.0177
      7 Cl1        -1.4893   -0.8926    0.0121 Cl        1 <0>        -0.0399
      8 Cl2         3.9130   -0.8168   -0.0414 Cl        1 <0>        -0.0570
      9 C7          3.6714    2.1853   -0.0227 C.3       1 <0>         0.0967
     10 O1          3.3901    3.5863   -0.0128 O.3       1 <0>        -0.3585
     11 C8          4.5556    4.4132   -0.0205 C.3       1 <0>         0.1220
     12 H1          5.3616    3.9002   -0.5451 H         1 <0>         0.0957
     13 C9          4.9861    4.7010    1.4192 C.3       1 <0>         0.0716
     14 N1          5.4009    3.4525    2.0638 N.pl3     1 <0>        -0.4117
     15 C10         4.5959    2.5906    2.7585 C.2       1 <0>         0.0302
     16 C11         5.3789    1.5784    3.1778 C.2       1 <0>         0.0054
     17 N2          6.6280    1.8158    2.7507 N.pl3     1 <0>        -0.4718
     18 C12         6.6478    2.9340    2.0784 C.cat     1 <0>         0.2862
     19 C13         4.2462    5.7110   -0.7212 C.ar      1 <0>        -0.1000
     20 C14         2.9457    6.1775   -0.7692 C.ar      1 <0>        -0.0580
     21 C15         2.6612    7.3675   -1.4116 C.ar      1 <0>        -0.1019
     22 C16         3.6781    8.0931   -2.0070 C.ar      1 <0>        -0.0089
     23 C17         4.9794    7.6271   -1.9589 C.ar      1 <0>        -0.0983
     24 C18         5.2644    6.4381   -1.3114 C.ar      1 <0>        -0.0131
     25 Cl3         6.8983    5.8554   -1.2454 Cl        1 <0>        -0.0545
     26 Cl4         3.3204    9.5877   -2.8144 Cl        1 <0>        -0.0347
     27 H2         -0.9592    1.9062    0.0260 H         1 <0>         0.1470
     28 H3          1.1557    3.1667    0.0080 H         1 <0>         0.1515
     29 H4          1.2248   -1.7590   -0.0191 H         1 <0>         0.1506
     30 H5          4.2557    1.9258    0.8601 H         1 <0>         0.0625
     31 H6          4.2377    1.9347   -0.9198 H         1 <0>         0.0786
     32 H7          5.8203    5.4026    1.4156 H         1 <0>         0.1341
     33 H8          4.1501    5.1334    1.9689 H         1 <0>         0.1404
     34 H9          3.5364    2.7013    2.9365 H         1 <0>         0.2241
     35 H10         5.0575    0.7251    3.7566 H         1 <0>         0.2262
     36 H11         7.5177    3.3735    1.6130 H         1 <0>         0.2599
     37 H12         2.1518    5.6116   -0.3047 H         1 <0>         0.1528
     38 H13         1.6450    7.7312   -1.4494 H         1 <0>         0.1501
     39 H14         5.7734    8.1930   -2.4234 H         1 <0>         0.1537
     40 H15         7.3950    1.2444    2.9128 H         1 <0>         0.4669
@<TRIPOS>BOND
     1    1    6 ar
     2    1    2 ar
     3    1   27 1
     4    2    3 ar
     5    2   28 1
     6    3    4 ar
     7    3    9 1
     8    4    5 ar
     9    4    8 1
    10    5    6 ar
    11    5   29 1
    12    6    7 1
    13    9   10 1
    14    9   30 1
    15    9   31 1
    16   10   11 1
    17   11   12 1
    18   11   13 1
    19   11   19 1
    20   13   14 1
    21   13   32 1
    22   13   33 1
    23   14   18 1
    24   14   15 1
    25   15   16 2
    26   15   34 1
    27   16   17 1
    28   16   35 1
    29   17   18 2
    30   17   40 1
    31   18   36 1
    32   19   24 ar
    33   19   20 ar
    34   20   21 ar
    35   20   37 1
    36   21   22 ar
    37   21   38 1
    38   22   23 ar
    39   22   26 1
    40   23   24 ar
    41   23   39 1
    42   24   25 1
@<TRIPOS>MOLECULE
ZINC00607971
   39    41     0     0     0
SMALL
USER_CHARGES

@<TRIPOS>ATOM
      1 C1         -0.0167    1.3792    0.0096 C.ar      1 <0>        -0.1048
      2 C2          1.1708    2.0869    0.0021 C.ar      1 <0>        -0.0750
      3 C3          2.3773    1.4131   -0.0135 C.ar      1 <0>        -0.0723
      4 C4          2.3974    0.0294   -0.0212 C.ar      1 <0>        -0.0216
      5 C5          1.2096   -0.6792   -0.0132 C.ar      1 <0>        -0.0995
      6 C6          0.0021   -0.0041    0.0020 C.ar      1 <0>        -0.0247
      7 Cl1        -1.4893   -0.8926    0.0121 Cl        1 <0>        -0.0542
      8 Cl2         3.9130   -0.8168   -0.0414 Cl        1 <0>        -0.0471
      9 C7          3.6714    2.1853   -0.0227 C.3       1 <0>         0.0868
     10 O1          3.3901    3.5863   -0.0128 O.3       1 <0>        -0.3671
     11 C8          4.5556    4.4132   -0.0205 C.3       1 <0>         0.1203
     12 H1          5.3616    3.9002   -0.5451 H         1 <0>         0.0900
     13 C9          4.9861    4.7010    1.4192 C.3       1 <0>         0.0882
     14 N1          5.4009    3.4525    2.0638 N.pl3     1 <0>        -0.4624
     15 C10         4.5960    2.5909    2.7589 C.2       1 <0>        -0.0515
     16 C11         5.3790    1.5786    3.1781 C.2       1 <0>        -0.0235
     17 N2          6.6280    1.8156    2.7505 N.2       1 <0>        -0.4865
     18 C12         6.6477    2.9338    2.0780 C.2       1 <0>         0.1814
     19 C13         4.2462    5.7110   -0.7212 C.ar      1 <0>        -0.0826
     20 C14         2.9457    6.1775   -0.7692 C.ar      1 <0>        -0.0629
     21 C15         2.6612    7.3675   -1.4116 C.ar      1 <0>        -0.1048
     22 C16         3.6781    8.0931   -2.0070 C.ar      1 <0>        -0.0174
     23 C17         4.9794    7.6271   -1.9589 C.ar      1 <0>        -0.1007
     24 C18         5.2644    6.4381   -1.3114 C.ar      1 <0>        -0.0164
     25 Cl3         6.8983    5.8554   -1.2454 Cl        1 <0>        -0.0493
     26 Cl4         3.3204    9.5877   -2.8144 Cl        1 <0>        -0.0490
     27 H2         -0.9592    1.9062    0.0260 H         1 <0>         0.1420
     28 H3          1.1557    3.1667    0.0080 H         1 <0>         0.1492
     29 H4          1.2248   -1.7590   -0.0191 H         1 <0>         0.1470
     30 H5          4.2557    1.9258    0.8601 H         1 <0>         0.0957
     31 H6          4.2377    1.9347   -0.9198 H         1 <0>         0.0696
     32 H7          5.8203    5.4026    1.4156 H         1 <0>         0.1070
     33 H8          4.1501    5.1334    1.9689 H         1 <0>         0.1064
     34 H9          3.5366    2.7018    2.9373 H         1 <0>         0.1730
     35 H10         5.0576    0.7254    3.7570 H         1 <0>         0.1693
     36 H11         7.5175    3.3730    1.6123 H         1 <0>         0.2021
     37 H12         2.1518    5.6116   -0.3047 H         1 <0>         0.1508
     38 H13         1.6450    7.7312   -1.4494 H         1 <0>         0.1451
     39 H14         5.7734    8.1930   -2.4234 H         1 <0>         0.1494
@<TRIPOS>BOND
     1    1    6 ar
     2    1    2 ar
     3    1   27 1
     4    2    3 ar
     5    2   28 1
     6    3    4 ar
     7    3    9 1
     8    4    5 ar
     9    4    8 1
    10    5    6 ar
    11    5   29 1
    12    6    7 1
    13    9   10 1
    14    9   30 1
    15    9   31 1
    16   10   11 1
    17   11   12 1
    18   11   13 1
    19   11   19 1
    20   13   14 1
    21   13   32 1
    22   13   33 1
    23   14   18 1
    24   14   15 1
    25   15   16 2
    26   15   34 1
    27   16   17 1
    28   16   35 1
    29   17   18 2
    30   18   36 1
    31   19   24 ar
    32   19   20 ar
    33   20   21 ar
    34   20   37 1
    35   21   22 ar
    36   21   38 1
    37   22   23 ar
    38   22   26 1
    39   23   24 ar
    40   23   39 1
    41   24   25 1
@<TRIPOS>MOLECULE
ZINC00896740
   40    42     0     0     0
SMALL
USER_CHARGES

@<TRIPOS>ATOM
      1 C1         -0.0167    1.3792    0.0096 C.ar      1 <0>        -0.1004
      2 C2          1.1708    2.0869    0.0021 C.ar      1 <0>        -0.0703
      3 C3          2.3773    1.4131   -0.0135 C.ar      1 <0>        -0.0961
      4 C4          2.3974    0.0294   -0.0212 C.ar      1 <0>        -0.0232
      5 C5          1.2096   -0.6792   -0.0132 C.ar      1 <0>        -0.0971
      6 C6          0.0021   -0.0041    0.0020 C.ar      1 <0>        -0.0168
      7 Cl1        -1.4893   -0.8926    0.0121 Cl        1 <0>        -0.0380
      8 Cl2         3.9130   -0.8168   -0.0414 Cl        1 <0>        -0.0546
      9 C7          3.6714    2.1853   -0.0227 C.3       1 <0>         0.1018
     10 O1          3.3901    3.5863   -0.0128 O.3       1 <0>        -0.3602
     11 C8          4.5556    4.4132   -0.0205 C.3       1 <0>         0.1211
     12 H1          5.3720    3.8950    0.4825 H         1 <0>         0.0990
     13 C9          4.9569    4.7156   -1.4656 C.3       1 <0>         0.0723
     14 N1          5.3585    3.4737   -2.1309 N.pl3     1 <0>        -0.4122
     15 C10         6.6206    2.9454   -2.1716 C.2       1 <0>         0.0243
     16 C11         6.5424    1.8038   -2.8816 C.2       1 <0>         0.0093
     17 N2          5.2674    1.6394   -3.2640 N.pl3     1 <0>        -0.4746
     18 C12         4.5515    2.6333   -2.8137 C.cat     1 <0>         0.2904
     19 C13         4.2606    5.7038    0.6995 C.ar      1 <0>        -0.1005
     20 C14         2.9600    6.1639    0.7884 C.ar      1 <0>        -0.0587
     21 C15         2.6886    7.3473    1.4484 C.ar      1 <0>        -0.1027
     22 C16         3.7188    8.0723    2.0212 C.ar      1 <0>        -0.0086
     23 C17         5.0201    7.6123    1.9331 C.ar      1 <0>        -0.0985
     24 C18         5.2906    6.4250    1.2763 C.ar      1 <0>        -0.0132
     25 Cl3         6.9229    5.8437    1.1703 Cl        1 <0>        -0.0508
     26 Cl4         3.3778    9.5592    2.8499 Cl        1 <0>        -0.0349
     27 H2         -0.9592    1.9062    0.0260 H         1 <0>         0.1480
     28 H3          1.1557    3.1667    0.0080 H         1 <0>         0.1529
     29 H4          1.2248   -1.7590   -0.0191 H         1 <0>         0.1512
     30 H5          4.2557    1.9258    0.8601 H         1 <0>         0.0836
     31 H6          4.2377    1.9347   -0.9198 H         1 <0>         0.0506
     32 H7          4.1099    5.1534   -1.9939 H         1 <0>         0.1372
     33 H8          5.7910    5.4172   -1.4718 H         1 <0>         0.1376
     34 H9          7.5085    3.3639   -1.7212 H         1 <0>         0.2241
     35 H10         7.3626    1.1373   -3.1041 H         1 <0>         0.2266
     36 H11         3.4900    2.7635   -2.9643 H         1 <0>         0.2586
     37 H12         2.1557    5.5984    0.3415 H         1 <0>         0.1524
     38 H13         1.6724    7.7066    1.5169 H         1 <0>         0.1499
     39 H14         5.8245    8.1778    2.3799 H         1 <0>         0.1538
     40 H15         4.9299    0.8970   -3.7893 H         1 <0>         0.4666
@<TRIPOS>BOND
     1    1    6 ar
     2    1    2 ar
     3    1   27 1
     4    2    3 ar
     5    2   28 1
     6    3    4 ar
     7    3    9 1
     8    4    5 ar
     9    4    8 1
    10    5    6 ar
    11    5   29 1
    12    6    7 1
    13    9   10 1
    14    9   30 1
    15    9   31 1
    16   10   11 1
    17   11   12 1
    18   11   13 1
    19   11   19 1
    20   13   14 1
    21   13   32 1
    22   13   33 1
    23   14   18 1
    24   14   15 1
    25   15   16 2
    26   15   34 1
    27   16   17 1
    28   16   35 1
    29   17   18 2
    30   17   40 1
    31   18   36 1
    32   19   24 ar
    33   19   20 ar
    34   20   21 ar
    35   20   37 1
    36   21   22 ar
    37   21   38 1
    38   22   23 ar
    39   22   26 1
    40   23   24 ar
    41   23   39 1
    42   24   25 1
@<TRIPOS>MOLECULE
ZINC00896740
   39    41     0     0     0
SMALL
USER_CHARGES

@<TRIPOS>ATOM
      1 C1         -0.0167    1.3792    0.0096 C.ar      1 <0>        -0.1052
      2 C2          1.1708    2.0869    0.0021 C.ar      1 <0>        -0.0748
      3 C3          2.3773    1.4131   -0.0135 C.ar      1 <0>        -0.0741
      4 C4          2.3974    0.0294   -0.0212 C.ar      1 <0>        -0.0187
      5 C5          1.2096   -0.6792   -0.0132 C.ar      1 <0>        -0.0996
      6 C6          0.0021   -0.0041    0.0020 C.ar      1 <0>        -0.0239
      7 Cl1        -1.4893   -0.8926    0.0121 Cl        1 <0>        -0.0543
      8 Cl2         3.9130   -0.8168   -0.0414 Cl        1 <0>        -0.0473
      9 C7          3.6714    2.1853   -0.0227 C.3       1 <0>         0.0894
     10 O1          3.3901    3.5863   -0.0128 O.3       1 <0>        -0.3675
     11 C8          4.5556    4.4132   -0.0205 C.3       1 <0>         0.1203
     12 H1          5.3720    3.8950    0.4825 H         1 <0>         0.0901
     13 C9          4.9569    4.7156   -1.4656 C.3       1 <0>         0.0880
     14 N1          5.3585    3.4737   -2.1309 N.pl3     1 <0>        -0.4630
     15 C10         6.6207    2.9457   -2.1720 C.2       1 <0>        -0.0578
     16 C11         6.5425    1.8039   -2.8819 C.2       1 <0>        -0.0235
     17 N2          5.2673    1.6393   -3.2638 N.2       1 <0>        -0.4848
     18 C12         4.5514    2.6330   -2.8133 C.2       1 <0>         0.1858
     19 C13         4.2606    5.7038    0.6995 C.ar      1 <0>        -0.0827
     20 C14         2.9600    6.1639    0.7884 C.ar      1 <0>        -0.0627
     21 C15         2.6886    7.3473    1.4484 C.ar      1 <0>        -0.1047
     22 C16         3.7188    8.0723    2.0212 C.ar      1 <0>        -0.0173
     23 C17         5.0201    7.6123    1.9331 C.ar      1 <0>        -0.1010
     24 C18         5.2906    6.4250    1.2763 C.ar      1 <0>        -0.0164
     25 Cl3         6.9229    5.8437    1.1703 Cl        1 <0>        -0.0500
     26 Cl4         3.3778    9.5592    2.8499 Cl        1 <0>        -0.0491
     27 H2         -0.9592    1.9062    0.0260 H         1 <0>         0.1422
     28 H3          1.1557    3.1667    0.0080 H         1 <0>         0.1496
     29 H4          1.2248   -1.7590   -0.0191 H         1 <0>         0.1469
     30 H5          4.2557    1.9258    0.8601 H         1 <0>         0.0703
     31 H6          4.2377    1.9347   -0.9198 H         1 <0>         0.0923
     32 H7          4.1099    5.1534   -1.9939 H         1 <0>         0.1081
     33 H8          5.7910    5.4172   -1.4718 H         1 <0>         0.1055
     34 H9          7.5086    3.3644   -1.7220 H         1 <0>         0.1730
     35 H10         7.3627    1.1376   -3.1046 H         1 <0>         0.1698
     36 H11         3.4898    2.7630   -2.9636 H         1 <0>         0.2009
     37 H12         2.1557    5.5984    0.3415 H         1 <0>         0.1516
     38 H13         1.6724    7.7066    1.5169 H         1 <0>         0.1454
     39 H14         5.8245    8.1778    2.3799 H         1 <0>         0.1491
@<TRIPOS>BOND
     1    1    6 ar
     2    1    2 ar
     3    1   27 1
     4    2    3 ar
     5    2   28 1
     6    3    4 ar
     7    3    9 1
     8    4    5 ar
     9    4    8 1
    10    5    6 ar
    11    5   29 1
    12    6    7 1
    13    9   10 1
    14    9   30 1
    15    9   31 1
    16   10   11 1
    17   11   12 1
    18   11   13 1
    19   11   19 1
    20   13   14 1
    21   13   32 1
    22   13   33 1
    23   14   18 1
    24   14   15 1
    25   15   16 2
    26   15   34 1
    27   16   17 1
    28   16   35 1
    29   17   18 2
    30   18   36 1
    31   19   24 ar
    32   19   20 ar
    33   20   21 ar
    34   20   37 1
    35   21   22 ar
    36   21   38 1
    37   22   23 ar
    38   22   26 1
    39   23   24 ar
    40   23   39 1
    41   24   25 1
