@<TRIPOS>MOLECULE
ZINC00007253
   20    22     0     0     0
SMALL
USER_CHARGES

@<TRIPOS>ATOM
      1 C1         -0.0167    1.3790    0.0096 C.ar      1 <0>        -0.0615
      2 C2          1.1659    2.0962    0.0022 C.ar      1 <0>        -0.0991
      3 C3          2.3788    1.4307   -0.0092 C.ar      1 <0>         0.1064
      4 C4          2.3923    0.0302   -0.0032 C.ar      1 <0>         0.0954
      5 C5          1.2108   -0.6810   -0.0053 C.ar      1 <0>        -0.0655
      6 C6          0.0021   -0.0041    0.0020 C.ar      1 <0>        -0.0867
      7 Br1        -1.6228   -0.9713    0.0016 Br        1 <0>        -0.0207
      8 N1          3.6461   -0.5977    0.0286 N.am      1 <0>        -0.5146
      9 C7          4.7745    0.1393    0.3805 C.2       1 <0>         0.2573
     10 N2          5.7958   -0.6233    0.3358 N.2       1 <0>        -0.2533
     11 O1          5.3561   -1.9171   -0.0556 O.3       1 <0>        -0.1241
     12 C8          4.0199   -1.8499   -0.2277 C.2       1 <0>         0.6167
     13 O2          3.2900   -2.7655   -0.5564 O.2       1 <0>        -0.4587
     14 C9          4.6454    1.6038    0.7373 C.3       1 <0>         0.1423
     15 O3          3.5505    2.1248   -0.0398 O.3       1 <0>        -0.2924
     16 H1         -0.9612    1.9024    0.0260 H         1 <0>         0.1534
     17 H2          1.1425    3.1759    0.0049 H         1 <0>         0.1592
     18 H3          1.2277   -1.7608   -0.0131 H         1 <0>         0.1571
     19 H4          4.4322    1.7110    1.8009 H         1 <0>         0.1237
     20 H5          5.5654    2.1314    0.4854 H         1 <0>         0.1651
@<TRIPOS>BOND
     1    1    6 ar
     2    1    2 ar
     3    1   16 1
     4    2    3 ar
     5    2   17 1
     6    3   15 1
     7    3    4 ar
     8    4    5 ar
     9    4    8 1
    10    5    6 ar
    11    5   18 1
    12    6    7 1
    13    8   12 am
    14    8    9 1
    15    9   10 2
    16    9   14 1
    17   10   11 1
    18   11   12 1
    19   12   13 2
    20   14   15 1
    21   14   19 1
    22   14   20 1
