@<TRIPOS>MOLECULE
ZINC19166991
   23    23     0     0     0
SMALL
USER_CHARGES

@<TRIPOS>ATOM
      1 C1         -0.0167    1.3781    0.0096 C.ar      1 <0>        -0.1082
      2 C2          1.1709    2.0855    0.0021 C.ar      1 <0>        -0.1149
      3 C3          2.3773    1.4107   -0.0130 C.ar      1 <0>        -0.1108
      4 C4          2.3960    0.0285   -0.0201 C.ar      1 <0>        -0.1054
      5 C5          1.2084   -0.6789   -0.0117 C.ar      1 <0>        -0.1139
      6 C6          0.0021   -0.0041    0.0020 C.ar      1 <0>        -0.1155
      7 C7          3.7112   -0.7071   -0.0376 C.3       1 <0>        -0.0701
      8 C8          4.1714   -0.9633    1.3989 C.3       1 <0>         0.0158
      9 N1          5.4533   -1.6804    1.3819 N.3       1 <0>        -0.4911
     10 N2          5.9223   -1.9415    2.7332 N.4       1 <0>        -0.4992
     11 H1         -0.9591    1.9053    0.0259 H         1 <0>         0.1285
     12 H2          1.1563    3.1654    0.0076 H         1 <0>         0.1285
     13 H3          3.3051    1.9634   -0.0196 H         1 <0>         0.1246
     14 H4          1.2231   -1.7588   -0.0176 H         1 <0>         0.1216
     15 H5         -0.9258   -0.5567    0.0082 H         1 <0>         0.1278
     16 H6          3.5884   -1.6586   -0.5549 H         1 <0>         0.0857
     17 H7          4.4573   -0.1052   -0.5563 H         1 <0>         0.0967
     18 H8          4.2941   -0.0118    1.9163 H         1 <0>         0.1111
     19 H9          3.4252   -1.5652    1.9176 H         1 <0>         0.0767
     20 H10         5.3819   -2.5362    0.8522 H         1 <0>         0.3977
     21 H11         6.0472   -1.0670    3.2207 H         1 <0>         0.4512
     22 H12         5.2428   -2.5050    3.2220 H         1 <0>         0.4121
     23 H13         6.8022   -2.4338    2.6946 H         1 <0>         0.4510
@<TRIPOS>BOND
     1    1    6 ar
     2    1    2 ar
     3    1   11 1
     4    2    3 ar
     5    2   12 1
     6    3    4 ar
     7    3   13 1
     8    4    5 ar
     9    4    7 1
    10    5    6 ar
    11    5   14 1
    12    6   15 1
    13    7    8 1
    14    7   16 1
    15    7   17 1
    16    8    9 1
    17    8   18 1
    18    8   19 1
    19    9   10 1
    20    9   20 1
    21   10   21 1
    22   10   22 1
    23   10   23 1
@<TRIPOS>MOLECULE
ZINC19166991
   23    23     0     0     0
SMALL
USER_CHARGES

@<TRIPOS>ATOM
      1 C1         -0.0167    1.3781    0.0096 C.ar      1 <0>        -0.1022
      2 C2          1.1709    2.0855    0.0021 C.ar      1 <0>        -0.1138
      3 C3          2.3773    1.4107   -0.0130 C.ar      1 <0>        -0.1080
      4 C4          2.3960    0.0285   -0.0201 C.ar      1 <0>        -0.1109
      5 C5          1.2084   -0.6789   -0.0117 C.ar      1 <0>        -0.1101
      6 C6          0.0021   -0.0041    0.0020 C.ar      1 <0>        -0.1145
      7 C7          3.7112   -0.7071   -0.0376 C.3       1 <0>        -0.0983
      8 C8          4.1714   -0.9633    1.3989 C.3       1 <0>         0.0040
      9 N1          5.4533   -1.6804    1.3819 N.4       1 <0>        -0.3650
     10 N2          5.8907   -1.9238    2.7470 N.3       1 <0>        -0.6467
     11 H1         -0.9591    1.9053    0.0259 H         1 <0>         0.1305
     12 H2          1.1563    3.1654    0.0076 H         1 <0>         0.1306
     13 H3          3.3051    1.9634   -0.0196 H         1 <0>         0.1257
     14 H4          1.2231   -1.7588   -0.0176 H         1 <0>         0.1238
     15 H5         -0.9258   -0.5567    0.0082 H         1 <0>         0.1300
     16 H6          3.5884   -1.6586   -0.5549 H         1 <0>         0.0954
     17 H7          4.4573   -0.1052   -0.5563 H         1 <0>         0.0985
     18 H8          4.2941   -0.0118    1.9163 H         1 <0>         0.1425
     19 H9          3.4252   -1.5652    1.9176 H         1 <0>         0.1307
     20 H10         5.3397   -2.5612    0.9030 H         1 <0>         0.4079
     21 H11         5.1869   -2.4250    3.2682 H         1 <0>         0.4018
     22 H12         6.7712   -2.4163    2.7623 H         1 <0>         0.4020
     23 H13         6.1440   -1.1232    0.9018 H         1 <0>         0.4462
@<TRIPOS>BOND
     1    1    6 ar
     2    1    2 ar
     3    1   11 1
     4    2    3 ar
     5    2   12 1
     6    3    4 ar
     7    3   13 1
     8    4    5 ar
     9    4    7 1
    10    5    6 ar
    11    5   14 1
    12    6   15 1
    13    7    8 1
    14    7   16 1
    15    7   17 1
    16    8    9 1
    17    8   18 1
    18    8   19 1
    19    9   10 1
    20    9   20 1
    21    9   23 1
    22   10   21 1
    23   10   22 1
@<TRIPOS>MOLECULE
ZINC00196663
   34    37     0     0     0
SMALL
USER_CHARGES

@<TRIPOS>ATOM
      1 C1         -0.0173    1.4248    0.0099 C.3       1 <0>         0.0236
      2 O1          0.0021   -0.0041    0.0020 O.3       1 <0>        -0.3129
      3 C2          0.6055   -0.6068   -1.0551 C.ar      1 <0>         0.1517
      4 C3          1.1724    0.1645   -2.0615 C.ar      1 <0>        -0.2136
      5 C4          1.7855   -0.4439   -3.1357 C.ar      1 <0>        -0.0281
      6 C5          1.8362   -1.8361   -3.2114 C.ar      1 <0>        -0.0994
      7 C6          1.2657   -2.6078   -2.1987 C.ar      1 <0>        -0.0519
      8 C7          0.6591   -1.9929   -1.1245 C.ar      1 <0>        -0.1537
      9 C8          2.4938   -2.4934   -4.3645 C.ar      1 <0>         0.1267
     10 C9          2.5407   -3.8949   -4.4452 C.ar      1 <0>        -0.0406
     11 C10         3.1701   -4.4520   -5.5488 C.ar      1 <0>        -0.1689
     12 C11         3.7205   -3.5890   -6.5154 C.ar      1 <0>         0.1260
     13 N1          3.6228   -2.2779   -6.3456 N.ar      1 <0>        -0.2134
     14 N2          3.0363   -1.7612   -5.3284 N.ar      1 <0>        -0.2147
     15 C12         4.3325   -4.4146   -7.5873 C.ar      1 <0>        -0.0182
     16 C13         4.9984   -4.0683   -8.7556 C.ar      1 <0>        -0.0762
     17 C14         5.4798   -5.0571   -9.5990 C.ar      1 <0>        -0.0843
     18 C15         5.3029   -6.3911   -9.2865 C.ar      1 <0>        -0.1110
     19 C16         4.6413   -6.7538   -8.1249 C.ar      1 <0>        -0.0424
     20 C17         4.1530   -5.7722   -7.2703 C.ar      1 <0>        -0.1633
     21 C18         3.4196   -5.8461   -5.9841 C.2       1 <0>         0.4564
     22 O2          3.0869   -6.8562   -5.3990 O.2       1 <0>        -0.4004
     23 H1          1.0053    1.8021    0.0021 H         1 <0>         0.0594
     24 H2         -0.5445    1.7859   -0.8732 H         1 <0>         0.0594
     25 H3         -0.5275    1.7763    0.9067 H         1 <0>         0.1040
     26 H4          1.1325    1.2421   -2.0025 H         1 <0>         0.1369
     27 H5          2.2258    0.1564   -3.9181 H         1 <0>         0.1422
     28 H6          1.3029   -3.6857   -2.2544 H         1 <0>         0.1363
     29 H7          0.2215   -2.5897   -0.3379 H         1 <0>         0.1401
     30 H8          2.1036   -4.5154   -3.6768 H         1 <0>         0.1644
     31 H9          5.1410   -3.0277   -9.0073 H         1 <0>         0.1422
     32 H10         5.9965   -4.7829  -10.5069 H         1 <0>         0.1414
     33 H11         5.6815   -7.1540   -9.9505 H         1 <0>         0.1415
     34 H12         4.5045   -7.7977   -7.8838 H         1 <0>         0.1407
@<TRIPOS>BOND
     1    1    2 1
     2    1   23 1
     3    1   24 1
     4    1   25 1
     5    2    3 1
     6    3    8 ar
     7    3    4 ar
     8    4    5 ar
     9    4   26 1
    10    5    6 ar
    11    5   27 1
    12    6    7 ar
    13    6    9 1
    14    7    8 ar
    15    7   28 1
    16    8   29 1
    17    9   14 ar
    18    9   10 ar
    19   10   11 ar
    20   10   30 1
    21   11   21 1
    22   11   12 ar
    23   12   13 ar
    24   12   15 1
    25   13   14 ar
    26   15   20 ar
    27   15   16 ar
    28   16   17 ar
    29   16   31 1
    30   17   18 ar
    31   17   32 1
    32   18   19 ar
    33   18   33 1
    34   19   20 ar
    35   19   34 1
    36   20   21 1
    37   21   22 2
@<TRIPOS>MOLECULE
ZINC03104594
   30    33     0     0     0
SMALL
USER_CHARGES
(3,4-difluorophenyl)BLAHone
@<TRIPOS>ATOM
      1 C1          8.0097   -2.4386   -0.0855 C.ar      1 <0>        -0.0845
      2 C2          8.9044   -1.3861   -0.0879 C.ar      1 <0>        -0.1081
      3 C3          8.4448   -0.0794   -0.0778 C.ar      1 <0>        -0.0422
      4 C4          7.0782    0.1742   -0.0638 C.ar      1 <0>        -0.1613
      5 C5          6.1669   -0.8959   -0.0613 C.ar      1 <0>        -0.0233
      6 C6          6.6444   -2.1998   -0.0725 C.ar      1 <0>        -0.0728
      7 C7          4.7868   -0.3478   -0.0461 C.ar      1 <0>         0.1382
      8 C8          4.8665    1.0577   -0.0393 C.ar      1 <0>        -0.1687
      9 C9          3.6868    1.7878   -0.0241 C.ar      1 <0>        -0.0343
     10 C10         2.4801    1.0697   -0.0164 C.ar      1 <0>         0.1117
     11 N1          2.5044   -0.2563   -0.0187 N.ar      1 <0>        -0.2023
     12 N2          3.5958   -0.9302   -0.0385 N.ar      1 <0>        -0.2129
     13 C11         1.1853    1.7902    0.0004 C.ar      1 <0>        -0.0353
     14 C12        -0.0126    1.0758    0.0080 C.ar      1 <0>        -0.0532
     15 C13        -1.2160    1.7498    0.0173 C.ar      1 <0>        -0.1259
     16 C14        -1.2372    3.1351    0.0313 C.ar      1 <0>         0.0895
     17 C15        -0.0486    3.8513    0.0233 C.ar      1 <0>         0.0702
     18 C16         1.1611    3.1844    0.0081 C.ar      1 <0>        -0.1041
     19 F1         -0.0745    5.2021    0.0308 F         1 <0>        -0.1216
     20 F2         -2.4185    3.7905    0.0461 F         1 <0>        -0.1208
     21 C17         6.2991    1.4354   -0.0501 C.2       1 <0>         0.4558
     22 O1          6.7491    2.5627   -0.0488 O.2       1 <0>        -0.3973
     23 H1          8.3764   -3.4544   -0.0942 H         1 <0>         0.1424
     24 H2          9.9663   -1.5828   -0.0980 H         1 <0>         0.1425
     25 H3          9.1472    0.7410   -0.0804 H         1 <0>         0.1416
     26 H4          5.9516   -3.0283   -0.0707 H         1 <0>         0.1433
     27 H5          3.6963    2.8678   -0.0180 H         1 <0>         0.1661
     28 H6          0.0021   -0.0041    0.0020 H         1 <0>         0.1578
     29 H7         -2.1436    1.1966    0.0183 H         1 <0>         0.1568
     30 H8          2.0862    3.7417    0.0026 H         1 <0>         0.1525
@<TRIPOS>BOND
     1    1    6 ar
     2    1    2 ar
     3    1   23 1
     4    2    3 ar
     5    2   24 1
     6    3    4 ar
     7    3   25 1
     8    4   21 1
     9    4    5 ar
    10    5    6 ar
    11    5    7 1
    12    6   26 1
    13    7   12 ar
    14    7    8 ar
    15    8    9 ar
    16    8   21 1
    17    9   10 ar
    18    9   27 1
    19   10   11 ar
    20   10   13 1
    21   11   12 ar
    22   13   18 ar
    23   13   14 ar
    24   14   15 ar
    25   14   28 1
    26   15   16 ar
    27   15   29 1
    28   16   17 ar
    29   16   20 1
    30   17   18 ar
    31   17   19 1
    32   18   30 1
    33   21   22 2
@<TRIPOS>MOLECULE
ZINC01383539
   31    34     0     0     0
SMALL
USER_CHARGES
(3-hydroxyphenyl)BLAHone
@<TRIPOS>ATOM
      1 C1          0.1925   11.8732    0.0641 C.ar      1 <0>        -0.0843
      2 C2         -1.1664   12.1208    0.0780 C.ar      1 <0>        -0.1096
      3 C3         -2.0674   11.0685    0.0796 C.ar      1 <0>        -0.0423
      4 C4         -1.6028    9.7586    0.0683 C.ar      1 <0>        -0.1623
      5 C5         -0.2203    9.5056    0.0543 C.ar      1 <0>        -0.0207
      6 C6          0.6693   10.5718    0.0523 C.ar      1 <0>        -0.0744
      7 C7         -0.0038    8.0364    0.0443 C.ar      1 <0>         0.1324
      8 C8         -1.2601    7.4016    0.0525 C.ar      1 <0>        -0.1705
      9 C9         -1.3015    6.0147    0.0454 C.ar      1 <0>        -0.0349
     10 C10        -0.0759    5.3298    0.0305 C.ar      1 <0>         0.1150
     11 N1          1.0597    6.0146    0.0292 N.ar      1 <0>        -0.2070
     12 N2          1.0967    7.2970    0.0302 N.ar      1 <0>        -0.2143
     13 C11        -0.0514    3.8478    0.0223 C.ar      1 <0>        -0.0399
     14 C12        -1.2463    3.1283    0.0298 C.ar      1 <0>        -0.1040
     15 C13        -1.2205    1.7486    0.0173 C.ar      1 <0>        -0.1027
     16 C14        -0.0126    1.0758    0.0080 C.ar      1 <0>        -0.1245
     17 C15         1.1813    1.7840    0.0004 C.ar      1 <0>         0.1044
     18 C16         1.1654    3.1690    0.0075 C.ar      1 <0>        -0.0998
     19 O1          2.3660    1.1182   -0.0136 O.3       1 <0>        -0.4954
     20 C17        -2.3043    8.4525    0.0677 C.2       1 <0>         0.4566
     21 O2         -3.5055    8.2775    0.0777 O.2       1 <0>        -0.3995
     22 H1          0.8882   12.6993    0.0622 H         1 <0>         0.1419
     23 H2         -1.5278   13.1385    0.0871 H         1 <0>         0.1421
     24 H3         -3.1292   11.2657    0.0897 H         1 <0>         0.1412
     25 H4          1.7333   10.3869    0.0418 H         1 <0>         0.1427
     26 H5         -2.2410    5.4820    0.0515 H         1 <0>         0.1659
     27 H6         -2.1914    3.6509    0.0413 H         1 <0>         0.1321
     28 H7         -2.1465    1.1928    0.0187 H         1 <0>         0.1368
     29 H8          0.0021   -0.0041    0.0020 H         1 <0>         0.1352
     30 H9          2.0935    3.7213    0.0012 H         1 <0>         0.1453
     31 H10         2.7008    0.9297   -0.9010 H         1 <0>         0.3945
@<TRIPOS>BOND
     1    1    6 ar
     2    1    2 ar
     3    1   22 1
     4    2    3 ar
     5    2   23 1
     6    3    4 ar
     7    3   24 1
     8    4   20 1
     9    4    5 ar
    10    5    6 ar
    11    5    7 1
    12    6   25 1
    13    7   12 ar
    14    7    8 ar
    15    8    9 ar
    16    8   20 1
    17    9   10 ar
    18    9   26 1
    19   10   11 ar
    20   10   13 1
    21   11   12 ar
    22   13   18 ar
    23   13   14 ar
    24   14   15 ar
    25   14   27 1
    26   15   16 ar
    27   15   28 1
    28   16   17 ar
    29   16   29 1
    30   17   18 ar
    31   17   19 1
    32   18   30 1
    33   19   31 1
    34   20   21 2
@<TRIPOS>MOLECULE
ZINC00049435
   29    32     0     0     0
SMALL
USER_CHARGES
2-pyridylBLAHone
@<TRIPOS>ATOM
      1 C1          9.3644   -3.8690   -0.1056 C.ar      1 <0>        -0.0856
      2 C2         10.2211   -2.7854   -0.1081 C.ar      1 <0>        -0.1085
      3 C3          9.7152   -1.4957   -0.0979 C.ar      1 <0>        -0.0431
      4 C4          8.3406   -1.2910   -0.0837 C.ar      1 <0>        -0.1598
      5 C5          7.4679   -2.3927   -0.0816 C.ar      1 <0>        -0.0227
      6 C6          7.9914   -3.6787   -0.0929 C.ar      1 <0>        -0.0732
      7 C7          6.0692   -1.8939   -0.0661 C.ar      1 <0>         0.1403
      8 C8          6.0987   -0.4868   -0.0588 C.ar      1 <0>        -0.1790
      9 C9          4.8934    0.2010   -0.0436 C.ar      1 <0>        -0.0066
     10 C10         3.7135   -0.5592   -0.0364 C.ar      1 <0>         0.1133
     11 N1          3.7847   -1.8834   -0.0387 N.ar      1 <0>        -0.1995
     12 N2          4.8991   -2.5184   -0.0587 N.ar      1 <0>        -0.2170
     13 C11         2.3934    0.1152   -0.0202 C.ar      1 <0>         0.1569
     14 C12         1.2272   -0.6481   -0.0131 C.ar      1 <0>        -0.1231
     15 C13         0.0021   -0.0041    0.0020 C.ar      1 <0>        -0.0765
     16 C14        -0.0167    1.3834    0.0096 C.ar      1 <0>        -0.1544
     17 C15         1.1793    2.0782    0.0020 C.ar      1 <0>         0.1052
     18 N3          2.3317    1.4407   -0.0120 N.ar      1 <0>        -0.4701
     19 C16         7.5168   -0.0582   -0.0696 C.2       1 <0>         0.4563
     20 O1          7.9263    1.0845   -0.0673 O.2       1 <0>        -0.3977
     21 H1          9.7670   -4.8711   -0.1140 H         1 <0>         0.1419
     22 H2         11.2893   -2.9442   -0.1184 H         1 <0>         0.1420
     23 H3         10.3878   -0.6508   -0.1006 H         1 <0>         0.1414
     24 H4          7.3284   -4.5313   -0.0914 H         1 <0>         0.1429
     25 H5          4.8643    1.2806   -0.0378 H         1 <0>         0.1732
     26 H6          1.2788   -1.7269   -0.0191 H         1 <0>         0.1508
     27 H7         -0.9185   -0.5688    0.0074 H         1 <0>         0.1440
     28 H8         -0.9564    1.9158    0.0170 H         1 <0>         0.1427
     29 H9          1.1680    3.1581    0.0079 H         1 <0>         0.1657
@<TRIPOS>BOND
     1    1    6 ar
     2    1    2 ar
     3    1   21 1
     4    2    3 ar
     5    2   22 1
     6    3    4 ar
     7    3   23 1
     8    4   19 1
     9    4    5 ar
    10    5    6 ar
    11    5    7 1
    12    6   24 1
    13    7   12 ar
    14    7    8 ar
    15    8    9 ar
    16    8   19 1
    17    9   10 ar
    18    9   25 1
    19   10   11 ar
    20   10   13 1
    21   11   12 ar
    22   13   18 ar
    23   13   14 ar
    24   14   15 ar
    25   14   26 1
    26   15   16 ar
    27   15   27 1
    28   16   17 ar
    29   16   28 1
    30   17   18 ar
    31   17   29 1
    32   19   20 2
@<TRIPOS>MOLECULE
ZINC01383544
   38    41     0     0     0
SMALL
USER_CHARGES
(3,4-dimethoxyphenyl)BLAHone
@<TRIPOS>ATOM
      1 C1         -1.0736   -2.1244    0.0009 C.3       1 <0>         0.0228
      2 O1         -1.1663   -0.6984    0.0094 O.3       1 <0>        -0.3012
      3 C2          0.0021   -0.0041    0.0020 C.ar      1 <0>         0.1242
      4 C3          1.2114   -0.6837   -0.0136 C.ar      1 <0>        -0.1763
      5 C4          2.3994    0.0171   -0.0212 C.ar      1 <0>        -0.0858
      6 C5          2.3869    1.4120   -0.0131 C.ar      1 <0>        -0.0575
      7 C6          1.1713    2.0961    0.0021 C.ar      1 <0>        -0.1272
      8 C7         -0.0168    1.3889    0.0097 C.ar      1 <0>         0.0971
      9 O2         -1.2036    2.0530    0.0189 O.3       1 <0>        -0.3035
     10 C8         -1.1479    3.4809    0.0264 C.3       1 <0>         0.0229
     11 C9          3.6622    2.1654   -0.0218 C.ar      1 <0>         0.1237
     12 C10         4.8839    1.4832   -0.1439 C.ar      1 <0>        -0.0373
     13 C11         6.0443    2.2433   -0.1462 C.ar      1 <0>        -0.1695
     14 C12         5.9320    3.6417   -0.0272 C.ar      1 <0>         0.1287
     15 N1          4.7297    4.1891    0.0831 N.ar      1 <0>        -0.2138
     16 N2          3.6554    3.4879    0.0803 N.ar      1 <0>        -0.2125
     17 C13         7.2969    4.2259   -0.0550 C.ar      1 <0>        -0.0191
     18 C14         7.7434    5.5384    0.0264 C.ar      1 <0>        -0.0755
     19 C15         9.1006    5.8141   -0.0259 C.ar      1 <0>        -0.0843
     20 C16        10.0184    4.7900   -0.1585 C.ar      1 <0>        -0.1104
     21 C17         9.5901    3.4754   -0.2406 C.ar      1 <0>        -0.0423
     22 C18         8.2316    3.1849   -0.1903 C.ar      1 <0>        -0.1629
     23 C19         7.4832    1.9067   -0.2524 C.2       1 <0>         0.4565
     24 O3          7.9588    0.7959   -0.3681 O.2       1 <0>        -0.4001
     25 H1         -0.5458   -2.4488   -0.8959 H         1 <0>         0.0581
     26 H2         -0.5288   -2.4584    0.8839 H         1 <0>         0.0581
     27 H3         -2.0755   -2.5537    0.0082 H         1 <0>         0.1041
     28 H4          1.2227   -1.7636   -0.0195 H         1 <0>         0.1446
     29 H5          3.3395   -0.5143   -0.0338 H         1 <0>         0.1345
     30 H6          1.1582    3.1760    0.0077 H         1 <0>         0.1520
     31 H7         -0.6161    3.8191    0.9157 H         1 <0>         0.0585
     32 H8         -0.6246    3.8288   -0.8642 H         1 <0>         0.0578
     33 H9         -2.1607    3.8839    0.0334 H         1 <0>         0.1037
     34 H10         4.9186    0.4074   -0.2330 H         1 <0>         0.1652
     35 H11         7.0325    6.3448    0.1302 H         1 <0>         0.1424
     36 H12         9.4431    6.8364    0.0378 H         1 <0>         0.1416
     37 H13        11.0739    5.0154   -0.1980 H         1 <0>         0.1417
     38 H14        10.3104    2.6773   -0.3435 H         1 <0>         0.1409
@<TRIPOS>BOND
     1    1    2 1
     2    1   25 1
     3    1   26 1
     4    1   27 1
     5    2    3 1
     6    3    8 ar
     7    3    4 ar
     8    4    5 ar
     9    4   28 1
    10    5    6 ar
    11    5   29 1
    12    6    7 ar
    13    6   11 1
    14    7    8 ar
    15    7   30 1
    16    8    9 1
    17    9   10 1
    18   10   31 1
    19   10   32 1
    20   10   33 1
    21   11   16 ar
    22   11   12 ar
    23   12   13 ar
    24   12   34 1
    25   13   23 1
    26   13   14 ar
    27   14   15 ar
    28   14   17 1
    29   15   16 ar
    30   17   22 ar
    31   17   18 ar
    32   18   19 ar
    33   18   35 1
    34   19   20 ar
    35   19   36 1
    36   20   21 ar
    37   20   37 1
    38   21   22 ar
    39   21   38 1
    40   22   23 1
    41   23   24 2
@<TRIPOS>MOLECULE
ZINC04006187
   30    33     0     0     0
SMALL
USER_CHARGES
(3-bromophenyl)BLAHone
@<TRIPOS>ATOM
      1 C1         -7.9415   -2.6469    0.0252 C.ar      1 <0>        -0.0842
      2 C2         -8.8632   -1.6180    0.0351 C.ar      1 <0>        -0.1091
      3 C3         -8.4375   -0.2997    0.0407 C.ar      1 <0>        -0.0422
      4 C4         -7.0779   -0.0108    0.0355 C.ar      1 <0>        -0.1621
      5 C5         -6.1392   -1.0568    0.0254 C.ar      1 <0>        -0.0215
      6 C6         -6.5828   -2.3726    0.0203 C.ar      1 <0>        -0.0738
      7 C7         -4.7737   -0.4731    0.0221 C.ar      1 <0>         0.1342
      8 C8         -4.8897    0.9297    0.0303 C.ar      1 <0>        -0.1697
      9 C9         -3.7291    1.6903    0.0289 C.ar      1 <0>        -0.0348
     10 C10        -2.5043    1.0038    0.0194 C.ar      1 <0>         0.1141
     11 N1         -2.4943   -0.3222    0.0066 N.ar      1 <0>        -0.2060
     12 N2         -3.5679   -1.0244    0.0135 N.ar      1 <0>        -0.2131
     13 C11        -1.2283    1.7579    0.0174 C.ar      1 <0>        -0.0494
     14 C12        -1.2394    3.1524    0.0289 C.ar      1 <0>        -0.0804
     15 C13        -0.0487    3.8495    0.0213 C.ar      1 <0>        -0.1124
     16 C14         1.1552    3.1680    0.0071 C.ar      1 <0>        -0.0703
     17 C15         1.1730    1.7840    0.0004 C.ar      1 <0>        -0.0957
     18 C16        -0.0126    1.0758    0.0080 C.ar      1 <0>        -0.0457
     19 Br1         2.8235    0.8614   -0.0196 Br        1 <0>        -0.0373
     20 C17        -6.3315    1.2702    0.0389 C.2       1 <0>         0.4566
     21 O1         -6.8105    2.3855    0.0481 O.2       1 <0>        -0.3990
     22 H1         -8.2818   -3.6718    0.0216 H         1 <0>         0.1421
     23 H2         -9.9197   -1.8421    0.0388 H         1 <0>         0.1422
     24 H3         -9.1608    0.5022    0.0492 H         1 <0>         0.1413
     25 H4         -5.8688   -3.1829    0.0123 H         1 <0>         0.1430
     26 H5         -3.7664    2.7696    0.0345 H         1 <0>         0.1659
     27 H6         -2.1784    3.6858    0.0400 H         1 <0>         0.1362
     28 H7         -0.0565    4.9295    0.0261 H         1 <0>         0.1420
     29 H8          2.0846    3.7180    0.0008 H         1 <0>         0.1397
     30 H9          0.0021   -0.0041    0.0020 H         1 <0>         0.1494
@<TRIPOS>BOND
     1    1    6 ar
     2    1    2 ar
     3    1   22 1
     4    2    3 ar
     5    2   23 1
     6    3    4 ar
     7    3   24 1
     8    4   20 1
     9    4    5 ar
    10    5    6 ar
    11    5    7 1
    12    6   25 1
    13    7   12 ar
    14    7    8 ar
    15    8    9 ar
    16    8   20 1
    17    9   10 ar
    18    9   26 1
    19   10   11 ar
    20   10   13 1
    21   11   12 ar
    22   13   18 ar
    23   13   14 ar
    24   14   15 ar
    25   14   27 1
    26   15   16 ar
    27   15   28 1
    28   16   17 ar
    29   16   29 1
    30   17   18 ar
    31   17   19 1
    32   18   30 1
    33   20   21 2
@<TRIPOS>MOLECULE
ZINC02565858
   27    29     0     0     0
SMALL
USER_CHARGES

@<TRIPOS>ATOM
      1 C1         -0.0164    1.3571    0.0095 C.ar      1 <0>        -0.0779
      2 C2          1.1699    2.0897    0.0021 C.ar      1 <0>        -0.0852
      3 C3          2.3792    1.4677   -0.0127 C.ar      1 <0>        -0.0838
      4 C4          2.4410    0.0610   -0.0208 C.ar      1 <0>         0.1300
      5 C5          1.2317   -0.6820   -0.0132 C.ar      1 <0>        -0.0656
      6 C6          0.0021   -0.0041    0.0020 C.ar      1 <0>        -0.1047
      7 C7          1.2911   -2.0880   -0.0213 C.ar      1 <0>        -0.0306
      8 C8          2.5200   -2.6827   -0.0361 C.ar      1 <0>        -0.1473
      9 C9          3.6776   -1.8915   -0.0429 C.ar      1 <0>         0.1097
     10 N1          3.6126   -0.5743   -0.0349 N.ar      1 <0>        -0.4226
     11 C10         5.0062   -2.5513   -0.0586 C.cat     1 <0>         0.5749
     12 N2          5.1497   -3.8643   -0.0721 N.pl3     1 <0>        -0.6332
     13 C11         6.5833   -4.1955   -0.0859 C.3       1 <0>         0.0625
     14 C12         7.2693   -2.8142   -0.0779 C.3       1 <0>         0.0566
     15 N3          6.1391   -1.8721   -0.0658 N.pl3     1 <0>        -0.6153
     16 H1         -0.9630    1.8767    0.0259 H         1 <0>         0.1442
     17 H2          1.1277    3.1689    0.0079 H         1 <0>         0.1460
     18 H3          3.2885    2.0503   -0.0187 H         1 <0>         0.1472
     19 H4         -0.9241   -0.5596    0.0082 H         1 <0>         0.1461
     20 H5          0.3885   -2.6809   -0.0155 H         1 <0>         0.1624
     21 H6          2.6003   -3.7597   -0.0422 H         1 <0>         0.1464
     22 H7          6.8547   -4.7643    0.8033 H         1 <0>         0.1291
     23 H8          6.8413   -4.7473   -0.9898 H         1 <0>         0.1291
     24 H9          7.8825   -2.6950    0.8153 H         1 <0>         0.1298
     25 H10         7.8691   -2.6780   -0.9778 H         1 <0>         0.1294
     26 H11         6.2141   -0.9051   -0.0617 H         1 <0>         0.4648
     27 H12         4.4245   -4.5085   -0.0726 H         1 <0>         0.4582
@<TRIPOS>BOND
     1    1    6 ar
     2    1    2 ar
     3    1   16 1
     4    2    3 ar
     5    2   17 1
     6    3    4 ar
     7    3   18 1
     8    4   10 ar
     9    4    5 ar
    10    5    6 ar
    11    5    7 ar
    12    6   19 1
    13    7    8 ar
    14    7   20 1
    15    8    9 ar
    16    8   21 1
    17    9   10 ar
    18    9   11 1
    19   11   15 1
    20   11   12 2
    21   12   13 1
    22   12   27 1
    23   13   14 1
    24   13   22 1
    25   13   23 1
    26   14   15 1
    27   14   24 1
    28   14   25 1
    29   15   26 1
@<TRIPOS>MOLECULE
ZINC02013186
   28    29     0     0     0
SMALL
USER_CHARGES
2-phenethyl-4,5-dihydro-1H-imidazole
@<TRIPOS>ATOM
      1 C1         -0.0167    1.3781    0.0096 C.ar      1 <0>        -0.1069
      2 C2          1.1709    2.0855    0.0021 C.ar      1 <0>        -0.1144
      3 C3          2.3773    1.4107   -0.0141 C.ar      1 <0>        -0.1116
      4 C4          2.3960    0.0285   -0.0217 C.ar      1 <0>        -0.1064
      5 C5          1.2084   -0.6789   -0.0136 C.ar      1 <0>        -0.1115
      6 C6          0.0021   -0.0041    0.0020 C.ar      1 <0>        -0.1144
      7 C7          3.7112   -0.7071   -0.0392 C.3       1 <0>        -0.0895
      8 C8          4.1416   -0.9479   -1.4876 C.3       1 <0>        -0.1088
      9 C9          5.4567   -1.6835   -1.5051 C.cat     1 <0>         0.5150
     10 C10         7.3213   -2.7265   -0.7694 C.3       1 <0>         0.0502
     11 C11         7.3365   -2.7350   -2.3115 C.3       1 <0>         0.0651
     12 N1          6.0877   -2.0364   -2.6604 N.pl3     1 <0>        -0.6654
     13 H1         -0.9592    1.9054    0.0170 H         1 <0>         0.1286
     14 H2          1.1563    3.1654    0.0081 H         1 <0>         0.1284
     15 H3          3.3051    1.9634   -0.0207 H         1 <0>         0.1234
     16 H4          1.2231   -1.7587   -0.0199 H         1 <0>         0.1234
     17 H5         -0.9258   -0.5567    0.0079 H         1 <0>         0.1284
     18 H6          4.4679   -0.1107    0.4703 H         1 <0>         0.0877
     19 H7          3.5990   -1.6641    0.4703 H         1 <0>         0.0879
     20 H8          3.3848   -1.5443   -1.9971 H         1 <0>         0.1365
     21 H9          4.2537    0.0092   -1.9971 H         1 <0>         0.1365
     22 H10         7.3061   -3.7449   -0.3812 H         1 <0>         0.1282
     23 H11         8.1825   -2.1829   -0.3812 H         1 <0>         0.1278
     24 H12         7.3255   -3.7567   -2.6913 H         1 <0>         0.1218
     25 H13         8.2012   -2.1926   -2.6939 H         1 <0>         0.1220
     26 H14         5.7690   -1.8576   -3.5590 H         1 <0>         0.4583
     27 N2          6.0734   -2.0222   -0.4299 N.pl3     1 <0>        -0.6160
     28 H15         5.7450   -1.8303    0.5239 H         1 <0>         0.4756
@<TRIPOS>BOND
     1    1    6 ar
     2    1    2 ar
     3    1   13 1
     4    2    3 ar
     5    2   14 1
     6    3    4 ar
     7    3   15 1
     8    4    5 ar
     9    4    7 1
    10    5    6 ar
    11    5   16 1
    12    6   17 1
    13    7    8 1
    14    7   18 1
    15    7   19 1
    16    8    9 1
    17    8   20 1
    18    8   21 1
    19    9   12 1
    20    9   27 2
    21   10   11 1
    22   10   22 1
    23   10   23 1
    24   10   27 1
    25   11   12 1
    26   11   24 1
    27   11   25 1
    28   12   26 1
    29   27   28 1
@<TRIPOS>MOLECULE
ZINC04992560
   19    20     0     0     0
SMALL
USER_CHARGES
2-(2-furyl)-4,5-dihydro-1H-imidazole
@<TRIPOS>ATOM
      1 C1          2.0912    0.6409   -0.0145 C.2       1 <0>        -0.2211
      2 C2          1.2732    1.7844   -0.0005 C.2       1 <0>        -0.0750
      3 C3         -0.0162    1.3440    0.0094 C.2       1 <0>        -0.0953
      4 O1          0.0021   -0.0041    0.0020 O.3       1 <0>        -0.1548
      5 C4          1.2725   -0.4321   -0.0124 C.2       1 <0>         0.0645
      6 C5         -1.2189    2.1919    0.0200 C.cat     1 <0>         0.6042
      7 C6         -2.5276    4.0452    0.0349 C.3       1 <0>         0.0616
      8 C7         -3.4436    2.8055    0.0334 C.3       1 <0>         0.0677
      9 N1         -2.4937    1.6807    0.0185 N.pl3     1 <0>        -0.6617
     10 H1          3.1710    0.6243   -0.0245 H         1 <0>         0.1776
     11 H2          1.6031    2.8128    0.0019 H         1 <0>         0.1720
     12 H3          1.5885   -1.4648   -0.0210 H         1 <0>         0.2327
     13 H4         -2.6904    4.6390    0.9344 H         1 <0>         0.1306
     14 H5         -2.6990    4.6474   -0.8573 H         1 <0>         0.1306
     15 H6         -4.0587    2.7811    0.9329 H         1 <0>         0.1245
     16 H7         -4.0693    2.7911   -0.8590 H         1 <0>         0.1245
     17 H8         -2.7281    0.7394    0.0110 H         1 <0>         0.4597
     18 N2         -1.1651    3.4892    0.0258 N.pl3     1 <0>        -0.6177
     19 H9         -0.3012    4.0441    0.0243 H         1 <0>         0.4755
@<TRIPOS>BOND
     1    1    5 2
     2    1    2 1
     3    1   10 1
     4    2    3 2
     5    2   11 1
     6    3    4 1
     7    3    6 1
     8    4    5 1
     9    5   12 1
    10    6    9 1
    11    6   18 2
    12    7    8 1
    13    7   13 1
    14    7   14 1
    15    7   18 1
    16    8    9 1
    17    8   15 1
    18    8   16 1
    19    9   17 1
    20   18   19 1
@<TRIPOS>MOLECULE
ZINC06282777
   26    27     0     0     0
SMALL
USER_CHARGES
2-(phenoxymethyl)-4,5-dihydro-1H-imidazole
@<TRIPOS>ATOM
      1 C1         -0.0167    1.3784    0.0096 C.ar      1 <0>        -0.1363
      2 C2          1.1698    2.0883    0.0021 C.ar      1 <0>        -0.0771
      3 C3          2.3774    1.4175   -0.0131 C.ar      1 <0>        -0.2023
      4 C4          2.3989    0.0304   -0.0208 C.ar      1 <0>         0.1098
      5 C5          1.2070   -0.6796   -0.0132 C.ar      1 <0>        -0.1365
      6 C6          0.0021   -0.0041    0.0020 C.ar      1 <0>        -0.0757
      7 O1          3.5855   -0.6319   -0.0353 O.3       1 <0>        -0.3226
      8 C7          4.7725    0.1638   -0.0424 C.3       1 <0>         0.0737
      9 C8          5.9808   -0.7367   -0.0583 C.cat     1 <0>         0.5149
     10 C9          7.2323   -2.6179   -0.0795 C.3       1 <0>         0.0481
     11 C10         8.1820   -1.4028   -0.0823 C.3       1 <0>         0.0691
     12 N1          7.2564   -0.2571   -0.0678 N.pl3     1 <0>        -0.6606
     13 H1         -0.9597    1.9047    0.0170 H         1 <0>         0.1338
     14 H2          1.1525    3.1682    0.0081 H         1 <0>         0.1339
     15 H3          3.3039    1.9724   -0.0187 H         1 <0>         0.1285
     16 H4          1.2211   -1.7595   -0.0195 H         1 <0>         0.1355
     17 H5         -0.9261   -0.5563    0.0076 H         1 <0>         0.1392
     18 H6          4.7798    0.7974   -0.9293 H         1 <0>         0.1324
     19 H7          4.7965    0.7884    0.8506 H         1 <0>         0.1325
     20 H8          7.3730   -3.2156   -0.9801 H         1 <0>         0.1316
     21 H9          7.3916   -3.2260    0.8109 H         1 <0>         0.1312
     22 H10         8.7928   -1.3933   -0.9851 H         1 <0>         0.1250
     23 H11         8.8117   -1.4006    0.8073 H         1 <0>         0.1252
     24 H12         7.5113    0.6788   -0.0650 H         1 <0>         0.4597
     25 N2          5.8875   -2.0183   -0.0583 N.pl3     1 <0>        -0.5960
     26 H13         5.0066   -2.5456   -0.0455 H         1 <0>         0.4832
@<TRIPOS>BOND
     1    1    6 ar
     2    1    2 ar
     3    1   13 1
     4    2    3 ar
     5    2   14 1
     6    3    4 ar
     7    3   15 1
     8    4    5 ar
     9    4    7 1
    10    5    6 ar
    11    5   16 1
    12    6   17 1
    13    7    8 1
    14    8    9 1
    15    8   18 1
    16    8   19 1
    17    9   12 1
    18    9   25 2
    19   10   11 1
    20   10   20 1
    21   10   21 1
    22   10   25 1
    23   11   12 1
    24   11   22 1
    25   11   23 1
    26   12   24 1
    27   25   26 1
@<TRIPOS>MOLECULE
ZINC13492314
   27    28     0     0     0
SMALL
USER_CHARGES
(1S)-1-(prop-2-ynylamino)indan-4-ol
@<TRIPOS>ATOM
      1 C1         -1.2512    1.9391    2.1850 C.1       1 <0>        -0.1957
      2 C2         -0.7017    1.5605    1.2191 C.1       1 <0>        -0.1945
      3 C3         -0.0127    1.0858    0.0080 C.3       1 <0>         0.1546
      4 N1         -0.7232    1.5724   -1.1821 N.3       1 <0>        -0.6670
      5 C4         -0.0624    1.1171   -2.4126 C.3       1 <0>         0.1120
      6 H1          0.3472    0.1264   -2.1662 H         1 <0>         0.0651
      7 C5         -1.0661    1.1013   -3.5850 C.3       1 <0>        -0.1197
      8 C6         -0.1794    1.5070   -4.7834 C.3       1 <0>        -0.0637
      9 C7          0.9478    2.3213   -4.1856 C.ar      1 <0>        -0.1340
     10 C8          1.0151    2.0975   -2.8238 C.ar      1 <0>        -0.0392
     11 C9          1.9780    2.7423   -2.0653 C.ar      1 <0>        -0.1390
     12 C10         2.8724    3.6092   -2.6635 C.ar      1 <0>        -0.0806
     13 C11         2.8091    3.8361   -4.0244 C.ar      1 <0>        -0.2141
     14 C12         1.8471    3.1926   -4.7878 C.ar      1 <0>         0.1679
     15 O1          1.7836    3.4144   -6.1271 O.3       1 <0>        -0.5098
     16 H2         -1.7661    2.2938    3.0900 H         1 <0>         0.2321
     17 H3          1.0193    1.4666    0.0002 H         1 <0>         0.0959
     18 H4          0.0023   -0.0141    0.0019 H         1 <0>         0.0563
     19 H5         -1.7552    1.1916   -1.1743 H         1 <0>         0.3482
     20 H6         -1.4921    0.0925   -3.6894 H         1 <0>         0.0791
     21 H7         -1.8735    1.8215   -3.3862 H         1 <0>         0.0865
     22 H8          0.1967    0.6026   -5.2840 H         1 <0>         0.0786
     23 H9         -0.7732    2.0998   -5.4948 H         1 <0>         0.0771
     24 H10         2.0298    2.5669   -1.0009 H         1 <0>         0.1187
     25 H11         3.6211    4.1091   -2.0669 H         1 <0>         0.1254
     26 H12         3.5074    4.5138   -4.4930 H         1 <0>         0.1279
     27 H13         2.4951    4.1040   -6.6047 H         1 <0>         0.4318
@<TRIPOS>BOND
     1    1    2 3
     2    1   16 1
     3    2    3 1
     4    3    4 1
     5    3   17 1
     6    3   18 1
     7    4    5 1
     8    4   19 1
     9    5    6 1
    10    5   10 1
    11    5    7 1
    12    7    8 1
    13    7   20 1
    14    7   21 1
    15    8    9 1
    16    8   22 1
    17    8   23 1
    18    9   14 ar
    19    9   10 ar
    20   10   11 ar
    21   11   12 ar
    22   11   24 1
    23   12   13 ar
    24   12   25 1
    25   13   14 ar
    26   13   26 1
    27   14   15 1
    28   15   27 1
@<TRIPOS>MOLECULE
ZINC13492315
   27    28     0     0     0
SMALL
USER_CHARGES
(1R)-1-(prop-2-ynylamino)indan-4-ol
@<TRIPOS>ATOM
      1 C1         -5.4547    4.9062    2.3919 C.1       1 <0>        -0.1961
      2 C2         -4.9573    3.9714    1.8848 C.1       1 <0>        -0.1949
      3 C3         -4.3337    2.7994    1.2490 C.3       1 <0>         0.1524
      4 N1         -2.8717    2.9212    1.3248 N.3       1 <0>        -0.6624
      5 C4         -2.2141    1.7665    0.6986 C.3       1 <0>         0.1145
      6 H1         -2.8723    0.9129    0.9179 H         1 <0>         0.0949
      7 C5         -0.7769    1.6043    1.2447 C.3       1 <0>        -0.1052
      8 C6         -0.0127    1.0858    0.0080 C.3       1 <0>        -0.0696
      9 C7         -0.7851    1.6072   -1.1847 C.ar      1 <0>        -0.1256
     10 C8         -2.0496    1.9983   -0.7883 C.ar      1 <0>        -0.0903
     11 C9         -2.9372    2.5106   -1.7198 C.ar      1 <0>        -0.1512
     12 C10        -2.5648    2.6329   -3.0448 C.ar      1 <0>        -0.0782
     13 C11        -1.3019    2.2432   -3.4460 C.ar      1 <0>        -0.2116
     14 C12        -0.4100    1.7298   -2.5169 C.ar      1 <0>         0.1693
     15 O1          0.8330    1.3460   -2.9099 O.3       1 <0>        -0.5084
     16 H2         -5.9207    5.7820    2.8670 H         1 <0>         0.2321
     17 H3         -4.6531    1.8856    1.7714 H         1 <0>         0.0955
     18 H4         -4.6431    2.7462    0.1947 H         1 <0>         0.0591
     19 H5         -2.5523    3.8351    0.8024 H         1 <0>         0.3470
     20 H6         -0.4076    2.5777    1.5999 H         1 <0>         0.0831
     21 H7         -0.7803    0.8869    2.0786 H         1 <0>         0.0817
     22 H8          1.0165    1.4738    0.0237 H         1 <0>         0.0768
     23 H9          0.0098   -0.0138    0.0253 H         1 <0>         0.0796
     24 H10        -3.9254    2.8158   -1.4091 H         1 <0>         0.1191
     25 H11        -3.2614    3.0328   -3.7668 H         1 <0>         0.1264
     26 H12        -1.0098    2.3383   -4.4814 H         1 <0>         0.1291
     27 H13         1.1308    1.4427   -3.9644 H         1 <0>         0.4328
@<TRIPOS>BOND
     1    1    2 3
     2    1   16 1
     3    2    3 1
     4    3    4 1
     5    3   17 1
     6    3   18 1
     7    4    5 1
     8    4   19 1
     9    5    6 1
    10    5   10 1
    11    5    7 1
    12    7    8 1
    13    7   20 1
    14    7   21 1
    15    8    9 1
    16    8   22 1
    17    8   23 1
    18    9   14 ar
    19    9   10 ar
    20   10   11 ar
    21   11   12 ar
    22   11   24 1
    23   12   13 ar
    24   12   25 1
    25   13   14 ar
    26   13   26 1
    27   14   15 1
    28   15   27 1
@<TRIPOS>MOLECULE
ZINC00017887
   22    24     0     0     0
SMALL
USER_CHARGES
2-benzofuran-2-yl-1H-imidazole
@<TRIPOS>ATOM
      1 C1         -0.0126    1.0758    0.0080 C.ar      1 <0>        -0.1345
      2 C2         -1.2261    1.7488    0.0174 C.ar      1 <0>        -0.0868
      3 C3         -1.2673    3.1270    0.0304 C.ar      1 <0>        -0.1085
      4 C4         -0.0837    3.8543    0.0226 C.ar      1 <0>         0.0620
      5 C5          1.1435    3.1670    0.0077 C.ar      1 <0>        -0.1332
      6 C6          1.1644    1.7710    0.0005 C.ar      1 <0>        -0.0634
      7 C7          2.1776    4.2031    0.0028 C.2       1 <0>        -0.1360
      8 C8          1.5204    5.3903    0.0147 C.2       1 <0>         0.0901
      9 O1          0.1893    5.1748    0.0263 O.3       1 <0>        -0.1961
     10 C9          2.1637    6.7143    0.0141 C.2       1 <0>         0.2644
     11 N1          1.5177    7.9183    0.0201 N.pl3     1 <0>        -0.5617
     12 H1          0.5282    8.0627    0.0234 H         1 <0>         0.4327
     13 C10         2.4827    8.8895    0.0207 C.2       1 <0>        -0.0307
     14 C11         3.6767    8.2615    0.0057 C.2       1 <0>        -0.0208
     15 N2          3.4607    6.9419    0.0019 N.2       1 <0>        -0.4538
     16 H2          0.0021   -0.0041    0.0020 H         1 <0>         0.1330
     17 H3         -2.1484    1.1869    0.0187 H         1 <0>         0.1381
     18 H4         -2.2176    3.6399    0.0419 H         1 <0>         0.1338
     19 H5          2.1063    1.2427   -0.0114 H         1 <0>         0.1323
     20 H6          3.2471    4.0530   -0.0074 H         1 <0>         0.1707
     21 H7          2.3189    9.9570    0.0275 H         1 <0>         0.1869
     22 H8          4.6434    8.7430   -0.0026 H         1 <0>         0.1815
@<TRIPOS>BOND
     1    1    6 ar
     2    1    2 ar
     3    1   16 1
     4    2    3 ar
     5    2   17 1
     6    3    4 ar
     7    3   18 1
     8    4    9 1
     9    4    5 ar
    10    5    6 ar
    11    5    7 1
    12    6   19 1
    13    7    8 2
    14    7   20 1
    15    8    9 1
    16    8   10 1
    17   10   15 2
    18   10   11 1
    19   11   12 1
    20   11   13 1
    21   13   14 2
    22   13   21 1
    23   14   15 1
    24   14   22 1
@<TRIPOS>MOLECULE
ZINC05234408
   31    31     0     0     0
SMALL
USER_CHARGES
(2R)-1-(4-ethoxyphenyl)propan-2-amine
@<TRIPOS>ATOM
      1 C1         -5.4440    5.5023    4.7827 C.3       1 <0>        -0.1565
      2 C2         -4.8919    5.0327    3.4353 C.3       1 <0>         0.0525
      3 O1         -3.4848    4.8111    3.5483 O.3       1 <0>        -0.3101
      4 C3         -2.8353    4.3876    2.4321 C.ar      1 <0>         0.1517
      5 C4         -1.4686    4.1527    2.4705 C.ar      1 <0>        -0.1453
      6 C5         -0.8107    3.7227    1.3344 C.ar      1 <0>        -0.0989
      7 C6         -1.5133    3.5259    0.1600 C.ar      1 <0>        -0.1743
      8 C7         -2.8745    3.7647    0.1176 C.ar      1 <0>        -0.0600
      9 C8         -3.5379    4.1898    1.2523 C.ar      1 <0>        -0.2011
     10 C9         -0.7931    3.0563   -1.0777 C.3       1 <0>        -0.0945
     11 C10        -0.7955    1.5269   -1.1198 C.3       1 <0>         0.0361
     12 H1         -1.8205    1.1631   -1.0490 H         1 <0>         0.1393
     13 C11        -0.1755    1.0519   -2.4354 C.3       1 <0>        -0.1824
     14 H2         -5.2559    4.7395    5.5383 H         1 <0>         0.0693
     15 H3         -4.9522    6.4306    5.0733 H         1 <0>         0.0701
     16 H4         -6.5174    5.6713    4.6966 H         1 <0>         0.0851
     17 H5         -5.0801    5.7955    2.6798 H         1 <0>         0.0672
     18 H6         -5.3838    4.1044    3.1448 H         1 <0>         0.0662
     19 H7         -0.9195    4.3056    3.3878 H         1 <0>         0.1397
     20 H8          0.2533    3.5397    1.3638 H         1 <0>         0.1286
     21 H9         -3.4202    3.6149   -0.8022 H         1 <0>         0.1320
     22 H10        -4.6020    4.3716    1.2200 H         1 <0>         0.1369
     23 H11         0.2351    3.4177   -1.0590 H         1 <0>         0.0968
     24 H12        -1.2987    3.4449   -1.9618 H         1 <0>         0.1178
     25 H13        -0.7571    1.4393   -3.2719 H         1 <0>         0.1070
     26 H14         0.8496    1.4157   -2.5062 H         1 <0>         0.0826
     27 H15        -0.1772   -0.0377   -2.4654 H         1 <0>         0.0832
     28 H16         0.0021   -0.0041    0.0020 H         1 <0>         0.4373
     29 H17         0.9253    1.3792    0.0006 H         1 <0>         0.4333
     30 N1         -0.0252    1.0139    0.0269 N.4       1 <0>        -0.6472
     31 H18        -0.4761    1.3157    0.8986 H         1 <0>         0.4376
@<TRIPOS>BOND
     1    1    2 1
     2    1   14 1
     3    1   15 1
     4    1   16 1
     5    2    3 1
     6    2   17 1
     7    2   18 1
     8    3    4 1
     9    4    9 ar
    10    4    5 ar
    11    5    6 ar
    12    5   19 1
    13    6    7 ar
    14    6   20 1
    15    7    8 ar
    16    7   10 1
    17    8    9 ar
    18    8   21 1
    19    9   22 1
    20   10   11 1
    21   10   23 1
    22   10   24 1
    23   11   12 1
    24   11   13 1
    25   11   30 1
    26   13   25 1
    27   13   26 1
    28   13   27 1
    29   28   30 1
    30   29   30 1
    31   30   31 1
@<TRIPOS>MOLECULE
ZINC05234409
   31    31     0     0     0
SMALL
USER_CHARGES
(2S)-1-(4-ethoxyphenyl)propan-2-amine
@<TRIPOS>ATOM
      1 C1         -5.2610    3.1115    5.9372 C.3       1 <0>        -0.1572
      2 C2         -4.5428    2.3817    4.8003 C.3       1 <0>         0.0533
      3 O1         -4.6653    3.1400    3.5952 O.3       1 <0>        -0.3092
      4 C3         -4.0786    2.6276    2.4816 C.ar      1 <0>         0.1520
      5 C4         -4.1582    3.3114    1.2771 C.ar      1 <0>        -0.1426
      6 C5         -3.5615    2.7882    0.1464 C.ar      1 <0>        -0.0618
      7 C6         -2.8848    1.5844    0.2145 C.ar      1 <0>        -0.1736
      8 C7         -2.8089    0.8982    1.4125 C.ar      1 <0>        -0.0982
      9 C8         -3.3995    1.4196    2.5472 C.ar      1 <0>        -0.2036
     10 C9         -2.2343    1.0162   -1.0204 C.3       1 <0>        -0.0949
     11 C10        -0.7955    1.5269   -1.1198 C.3       1 <0>         0.0357
     12 H1         -0.7938    2.6165   -1.0898 H         1 <0>         0.1404
     13 C11        -0.1755    1.0519   -2.4354 C.3       1 <0>        -0.1823
     14 H2         -6.3153    3.2269    5.6861 H         1 <0>         0.0706
     15 H3         -5.1676    2.5331    6.8564 H         1 <0>         0.0847
     16 H4         -4.8116    4.0944    6.0792 H         1 <0>         0.0697
     17 H5         -4.9922    1.3989    4.6583 H         1 <0>         0.0665
     18 H6         -3.4885    2.2663    5.0514 H         1 <0>         0.0649
     19 H7         -4.6860    4.2521    1.2236 H         1 <0>         0.1406
     20 H8         -3.6232    3.3202   -0.7915 H         1 <0>         0.1367
     21 H9         -2.2838   -0.0443    1.4620 H         1 <0>         0.1245
     22 H10        -3.3358    0.8856    3.4838 H         1 <0>         0.1363
     23 H11        -2.7929    1.3298   -1.9023 H         1 <0>         0.1188
     24 H12        -2.2303   -0.0722   -0.9609 H         1 <0>         0.0960
     25 H13        -0.1772   -0.0377   -2.4654 H         1 <0>         0.0824
     26 H14        -0.7571    1.4393   -3.2719 H         1 <0>         0.1075
     27 H15         0.8496    1.4157   -2.5062 H         1 <0>         0.0833
     28 H16         0.0021   -0.0041    0.0020 H         1 <0>         0.4331
     29 H17         0.9253    1.3792    0.0006 H         1 <0>         0.4374
     30 N1         -0.0252    1.0139    0.0269 N.4       1 <0>        -0.6475
     31 H18        -0.4761    1.3157    0.8986 H         1 <0>         0.4364
@<TRIPOS>BOND
     1    1    2 1
     2    1   14 1
     3    1   15 1
     4    1   16 1
     5    2    3 1
     6    2   17 1
     7    2   18 1
     8    3    4 1
     9    4    9 ar
    10    4    5 ar
    11    5    6 ar
    12    5   19 1
    13    6    7 ar
    14    6   20 1
    15    7    8 ar
    16    7   10 1
    17    8    9 ar
    18    8   21 1
    19    9   22 1
    20   10   11 1
    21   10   23 1
    22   10   24 1
    23   11   12 1
    24   11   13 1
    25   11   30 1
    26   13   25 1
    27   13   26 1
    28   13   27 1
    29   28   30 1
    30   29   30 1
    31   30   31 1
@<TRIPOS>MOLECULE
ZINC19167170
   24    24     0     0     0
SMALL
USER_CHARGES
(1R)-2-hydrazino-1-phenyl-ethanol
@<TRIPOS>ATOM
      1 C1         -4.4861    2.4564   -4.3540 C.ar      1 <0>        -0.0956
      2 C2         -4.5606    3.0698   -3.1174 C.ar      1 <0>        -0.1166
      3 C3         -3.8229    2.5786   -2.0566 C.ar      1 <0>        -0.1008
      4 C4         -3.0111    1.4736   -2.2321 C.ar      1 <0>        -0.1160
      5 C5         -2.9325    0.8634   -3.4700 C.ar      1 <0>        -0.0858
      6 C6         -3.6735    1.3520   -4.5298 C.ar      1 <0>        -0.1198
      7 C7         -2.2069    0.9381   -1.0756 C.3       1 <0>         0.1490
      8 H1         -2.7101    1.1593   -0.1228 H         1 <0>         0.0914
      9 C8         -0.7955    1.5269   -1.1198 C.3       1 <0>        -0.0248
     10 N1         -0.0116    1.0048    0.0076 N.4       1 <0>        -0.3941
     11 N2          1.3386    1.5443   -0.0024 N.3       1 <0>        -0.6443
     12 O1         -2.1320   -0.4861   -1.1665 O.3       1 <0>        -0.5735
     13 H2         -5.0630    2.8398   -5.1826 H         1 <0>         0.1319
     14 H3         -5.1954    3.9327   -2.9801 H         1 <0>         0.1329
     15 H4         -3.8812    3.0579   -1.0905 H         1 <0>         0.1270
     16 H5         -2.2949    0.0027   -3.6083 H         1 <0>         0.1283
     17 H6         -3.6156    0.8725   -5.4958 H         1 <0>         0.1311
     18 H7         -0.3100    1.2449   -2.0657 H         1 <0>         0.1368
     19 H8         -0.8532    2.6232   -1.0498 H         1 <0>         0.1499
     20 H9         -0.4971    1.2868    0.9535 H         1 <0>         0.4697
     21 H10         1.8770    1.1857    0.7719 H         1 <0>         0.4010
     22 H11         1.7974    1.3542   -0.8807 H         1 <0>         0.3994
     23 H12        -1.5816   -1.0577   -0.4047 H         1 <0>         0.4023
     24 H13         0.0461   -0.0915   -0.0624 H         1 <0>         0.4206
@<TRIPOS>BOND
     1    1    6 ar
     2    1    2 ar
     3    1   13 1
     4    2    3 ar
     5    2   14 1
     6    3    4 ar
     7    3   15 1
     8    4    5 ar
     9    4    7 1
    10    5    6 ar
    11    5   16 1
    12    6   17 1
    13    7    8 1
    14    7    9 1
    15    7   12 1
    16    9   10 1
    17    9   18 1
    18    9   19 1
    19   10   11 1
    20   10   20 1
    21   10   24 1
    22   11   21 1
    23   11   22 1
    24   12   23 1
@<TRIPOS>MOLECULE
ZINC19167170
   24    24     0     0     0
SMALL
USER_CHARGES
(1R)-2-hydrazino-1-phenyl-ethanol
@<TRIPOS>ATOM
      1 C1         -4.4861    2.4564   -4.3540 C.ar      1 <0>        -0.1025
      2 C2         -4.5606    3.0698   -3.1174 C.ar      1 <0>        -0.1184
      3 C3         -3.8229    2.5786   -2.0566 C.ar      1 <0>        -0.1073
      4 C4         -3.0111    1.4736   -2.2321 C.ar      1 <0>        -0.1098
      5 C5         -2.9325    0.8634   -3.4700 C.ar      1 <0>        -0.0871
      6 C6         -3.6735    1.3520   -4.5298 C.ar      1 <0>        -0.1207
      7 C7         -2.2069    0.9381   -1.0756 C.3       1 <0>         0.1770
      8 H1         -2.7101    1.1593   -0.1228 H         1 <0>         0.0742
      9 C8         -0.7955    1.5269   -1.1198 C.3       1 <0>        -0.0259
     10 N1         -0.0116    1.0048    0.0076 N.3       1 <0>        -0.4816
     11 N2          1.3386    1.5443   -0.0024 N.4       1 <0>        -0.5521
     12 O1         -2.1320   -0.4861   -1.1665 O.3       1 <0>        -0.5787
     13 H2         -5.0630    2.8398   -5.1826 H         1 <0>         0.1296
     14 H3         -5.1954    3.9327   -2.9801 H         1 <0>         0.1299
     15 H4         -3.8812    3.0579   -1.0905 H         1 <0>         0.1229
     16 H5         -2.2949    0.0027   -3.6083 H         1 <0>         0.1284
     17 H6         -3.6156    0.8725   -5.4958 H         1 <0>         0.1291
     18 H7         -0.3100    1.2449   -2.0657 H         1 <0>         0.1161
     19 H8         -0.8532    2.6232   -1.0498 H         1 <0>         0.0832
     20 H9          1.9022    1.1378    0.8503 H         1 <0>         0.4741
     21 H10         1.2959    2.6407    0.0754 H         1 <0>         0.4313
     22 H11        -1.5816   -1.0577   -0.4047 H         1 <0>         0.4164
     23 H12        -0.4971    1.2868    0.9535 H         1 <0>         0.4004
     24 H13         1.8391    1.2625   -0.9405 H         1 <0>         0.4713
@<TRIPOS>BOND
     1    1    6 ar
     2    1    2 ar
     3    1   13 1
     4    2    3 ar
     5    2   14 1
     6    3    4 ar
     7    3   15 1
     8    4    5 ar
     9    4    7 1
    10    5    6 ar
    11    5   16 1
    12    6   17 1
    13    7    8 1
    14    7    9 1
    15    7   12 1
    16    9   10 1
    17    9   18 1
    18    9   19 1
    19   10   11 1
    20   10   23 1
    21   11   20 1
    22   11   21 1
    23   11   24 1
    24   12   22 1
@<TRIPOS>MOLECULE
ZINC19167170
   23    23     0     0     0
SMALL
USER_CHARGES
(1R)-2-hydrazino-1-phenyl-ethanol
@<TRIPOS>ATOM
      1 C1         -4.4861    2.4564   -4.3540 C.ar      1 <0>        -0.1157
      2 C2         -4.5606    3.0698   -3.1174 C.ar      1 <0>        -0.1208
      3 C3         -3.8229    2.5786   -2.0566 C.ar      1 <0>        -0.1076
      4 C4         -3.0111    1.4736   -2.2321 C.ar      1 <0>        -0.0871
      5 C5         -2.9325    0.8634   -3.4700 C.ar      1 <0>        -0.0920
      6 C6         -3.6735    1.3520   -4.5298 C.ar      1 <0>        -0.1243
      7 C7         -2.2069    0.9381   -1.0756 C.3       1 <0>         0.1640
      8 H1         -2.7101    1.1593   -0.1228 H         1 <0>         0.0725
      9 C8         -0.7955    1.5269   -1.1198 C.3       1 <0>         0.0227
     10 N1         -0.0116    1.0048    0.0076 N.3       1 <0>        -0.4968
     11 N2          1.3386    1.5443   -0.0024 N.3       1 <0>        -0.6552
     12 O1         -2.1320   -0.4861   -1.1665 O.3       1 <0>        -0.5933
     13 H2         -5.0630    2.8398   -5.1826 H         1 <0>         0.1235
     14 H3         -5.1954    3.9327   -2.9801 H         1 <0>         0.1255
     15 H4         -3.8812    3.0579   -1.0905 H         1 <0>         0.1244
     16 H5         -2.2949    0.0027   -3.6083 H         1 <0>         0.1248
     17 H6         -3.6156    0.8725   -5.4958 H         1 <0>         0.1234
     18 H7         -0.3100    1.2449   -2.0657 H         1 <0>         0.0451
     19 H8         -0.8532    2.6232   -1.0498 H         1 <0>         0.0935
     20 H9          1.9022    1.1378    0.8503 H         1 <0>         0.3583
     21 H10         1.8391    1.2625   -0.9405 H         1 <0>         0.3089
     22 H11        -1.5816   -1.0577   -0.4047 H         1 <0>         0.4067
     23 H12         0.0461   -0.0915   -0.0624 H         1 <0>         0.2995
@<TRIPOS>BOND
     1    1    6 ar
     2    1    2 ar
     3    1   13 1
     4    2    3 ar
     5    2   14 1
     6    3    4 ar
     7    3   15 1
     8    4    5 ar
     9    4    7 1
    10    5    6 ar
    11    5   16 1
    12    6   17 1
    13    7    8 1
    14    7    9 1
    15    7   12 1
    16    9   10 1
    17    9   18 1
    18    9   19 1
    19   10   11 1
    20   10   23 1
    21   11   20 1
    22   11   21 1
    23   12   22 1
@<TRIPOS>MOLECULE
ZINC19167960
   24    24     0     0     0
SMALL
USER_CHARGES
(1S)-2-hydrazino-1-phenyl-ethanol
@<TRIPOS>ATOM
      1 C1          1.2084   -0.6789   -0.0136 C.ar      1 <0>        -0.0952
      2 C2          0.0021   -0.0041    0.0020 C.ar      1 <0>        -0.1167
      3 C3         -0.0167    1.3781    0.0096 C.ar      1 <0>        -0.0998
      4 C4          1.1709    2.0855    0.0021 C.ar      1 <0>        -0.1156
      5 C5          2.3773    1.4107   -0.0136 C.ar      1 <0>        -0.0860
      6 C6          2.3961    0.0285   -0.0212 C.ar      1 <0>        -0.1198
      7 C7          1.1505    3.5924    0.0099 C.3       1 <0>         0.1492
      8 H1          0.1955    3.9657   -0.3883 H         1 <0>         0.0900
      9 C8          1.4074    4.0985    1.4307 C.3       1 <0>        -0.0255
     10 N1          1.2692    5.5607    1.4621 N.4       1 <0>        -0.3939
     11 N2          1.5070    6.0779    2.8001 N.3       1 <0>        -0.6446
     12 O1          2.1679    4.0871   -0.8632 O.3       1 <0>        -0.5735
     13 H2          1.2231   -1.7588   -0.0196 H         1 <0>         0.1320
     14 H3         -0.9258   -0.5567    0.0079 H         1 <0>         0.1330
     15 H4         -0.9592    1.9054    0.0170 H         1 <0>         0.1270
     16 H5          3.3052    1.9634   -0.0192 H         1 <0>         0.1273
     17 H6          3.3386   -0.4987   -0.0327 H         1 <0>         0.1312
     18 H7          0.6777    3.6463    2.1185 H         1 <0>         0.1499
     19 H8          2.4253    3.8196    1.7409 H         1 <0>         0.1373
     20 H9          1.9990    6.0128    0.7743 H         1 <0>         0.4205
     21 H10         2.4124    5.7928    3.1423 H         1 <0>         0.3993
     22 H11         1.4121    7.0822    2.8216 H         1 <0>         0.4009
     23 H12         2.3060    5.1712   -0.9882 H         1 <0>         0.4033
     24 H13         0.2514    5.8396    1.1519 H         1 <0>         0.4699
@<TRIPOS>BOND
     1    1    6 ar
     2    1    2 ar
     3    1   13 1
     4    2    3 ar
     5    2   14 1
     6    3    4 ar
     7    3   15 1
     8    4    5 ar
     9    4    7 1
    10    5    6 ar
    11    5   16 1
    12    6   17 1
    13    7    8 1
    14    7    9 1
    15    7   12 1
    16    9   10 1
    17    9   18 1
    18    9   19 1
    19   10   11 1
    20   10   20 1
    21   10   24 1
    22   11   21 1
    23   11   22 1
    24   12   23 1
@<TRIPOS>MOLECULE
ZINC19167960
   24    24     0     0     0
SMALL
USER_CHARGES
(1S)-2-hydrazino-1-phenyl-ethanol
@<TRIPOS>ATOM
      1 C1          1.2084   -0.6789   -0.0136 C.ar      1 <0>        -0.1015
      2 C2          0.0021   -0.0041    0.0020 C.ar      1 <0>        -0.1177
      3 C3         -0.0167    1.3781    0.0096 C.ar      1 <0>        -0.1027
      4 C4          1.1709    2.0855    0.0021 C.ar      1 <0>        -0.1092
      5 C5          2.3773    1.4107   -0.0136 C.ar      1 <0>        -0.0899
      6 C6          2.3961    0.0285   -0.0212 C.ar      1 <0>        -0.1213
      7 C7          1.1505    3.5924    0.0099 C.3       1 <0>         0.1736
      8 H1          0.1955    3.9657   -0.3883 H         1 <0>         0.0858
      9 C8          1.4074    4.0985    1.4307 C.3       1 <0>        -0.0256
     10 N1          1.2692    5.5607    1.4621 N.3       1 <0>        -0.4779
     11 N2          1.5070    6.0779    2.8001 N.4       1 <0>        -0.5525
     12 O1          2.1679    4.0871   -0.8632 O.3       1 <0>        -0.5815
     13 H2          1.2231   -1.7588   -0.0196 H         1 <0>         0.1299
     14 H3         -0.9258   -0.5567    0.0079 H         1 <0>         0.1309
     15 H4         -0.9592    1.9054    0.0170 H         1 <0>         0.1258
     16 H5          3.3052    1.9634   -0.0192 H         1 <0>         0.1249
     17 H6          3.3386   -0.4987   -0.0327 H         1 <0>         0.1288
     18 H7          0.6777    3.6463    2.1185 H         1 <0>         0.1172
     19 H8          2.4253    3.8196    1.7409 H         1 <0>         0.0844
     20 H9          1.3974    7.1724    2.7950 H         1 <0>         0.4744
     21 H10         2.5256    5.8129    3.1200 H         1 <0>         0.4318
     22 H11         2.3060    5.1712   -0.9882 H         1 <0>         0.4056
     23 H12         1.9990    6.0128    0.7743 H         1 <0>         0.3952
     24 H13         0.7780    5.6396    3.4975 H         1 <0>         0.4714
@<TRIPOS>BOND
     1    1    6 ar
     2    1    2 ar
     3    1   13 1
     4    2    3 ar
     5    2   14 1
     6    3    4 ar
     7    3   15 1
     8    4    5 ar
     9    4    7 1
    10    5    6 ar
    11    5   16 1
    12    6   17 1
    13    7    8 1
    14    7    9 1
    15    7   12 1
    16    9   10 1
    17    9   18 1
    18    9   19 1
    19   10   11 1
    20   10   23 1
    21   11   20 1
    22   11   21 1
    23   11   24 1
    24   12   22 1
@<TRIPOS>MOLECULE
ZINC19167960
   23    23     0     0     0
SMALL
USER_CHARGES
(1S)-2-hydrazino-1-phenyl-ethanol
@<TRIPOS>ATOM
      1 C1          1.2084   -0.6789   -0.0136 C.ar      1 <0>        -0.1157
      2 C2          0.0021   -0.0041    0.0020 C.ar      1 <0>        -0.1221
      3 C3         -0.0167    1.3781    0.0096 C.ar      1 <0>        -0.1107
      4 C4          1.1709    2.0855    0.0021 C.ar      1 <0>        -0.0876
      5 C5          2.3773    1.4107   -0.0136 C.ar      1 <0>        -0.0887
      6 C6          2.3961    0.0285   -0.0212 C.ar      1 <0>        -0.1234
      7 C7          1.1505    3.5924    0.0099 C.3       1 <0>         0.1674
      8 H1          0.1955    3.9657   -0.3883 H         1 <0>         0.0588
      9 C8          1.4074    4.0985    1.4307 C.3       1 <0>         0.0213
     10 N1          1.2692    5.5607    1.4621 N.3       1 <0>        -0.4999
     11 N2          1.5070    6.0779    2.8001 N.3       1 <0>        -0.6555
     12 O1          2.1679    4.0871   -0.8632 O.3       1 <0>        -0.5885
     13 H2          1.2231   -1.7588   -0.0196 H         1 <0>         0.1235
     14 H3         -0.9258   -0.5567    0.0079 H         1 <0>         0.1245
     15 H4         -0.9592    1.9054    0.0170 H         1 <0>         0.1210
     16 H5          3.3052    1.9634   -0.0192 H         1 <0>         0.1273
     17 H6          3.3386   -0.4987   -0.0327 H         1 <0>         0.1243
     18 H7          0.6777    3.6463    2.1185 H         1 <0>         0.0431
     19 H8          2.4253    3.8196    1.7409 H         1 <0>         0.0948
     20 H9          1.3974    7.1724    2.7950 H         1 <0>         0.3579
     21 H10         0.7780    5.6396    3.4975 H         1 <0>         0.3081
     22 H11         2.3060    5.1712   -0.9882 H         1 <0>         0.4166
     23 H12         0.2514    5.8396    1.1519 H         1 <0>         0.3034
@<TRIPOS>BOND
     1    1    6 ar
     2    1    2 ar
     3    1   13 1
     4    2    3 ar
     5    2   14 1
     6    3    4 ar
     7    3   15 1
     8    4    5 ar
     9    4    7 1
    10    5    6 ar
    11    5   16 1
    12    6   17 1
    13    7    8 1
    14    7    9 1
    15    7   12 1
    16    9   10 1
    17    9   18 1
    18    9   19 1
    19   10   11 1
    20   10   23 1
    21   11   20 1
    22   11   21 1
    23   12   22 1
@<TRIPOS>MOLECULE
ZINC02011566
   28    29     0     0     0
SMALL
USER_CHARGES
5-(hydroxymethyl)-3-(m-tolyl)oxazolidin-2-one
@<TRIPOS>ATOM
      1 C1         -0.0127    1.0858    0.0080 C.3       1 <0>        -0.1175
      2 C2         -0.7181    1.5718    1.2479 C.ar      1 <0>        -0.0540
      3 C3          0.0018    1.8055    2.4054 C.ar      1 <0>        -0.1426
      4 C4         -0.6417    2.2514    3.5450 C.ar      1 <0>        -0.0864
      5 C5         -2.0063    2.4649    3.5306 C.ar      1 <0>        -0.1624
      6 C6         -2.7319    2.2313    2.3701 C.ar      1 <0>         0.1820
      7 C7         -2.0817    1.7888    1.2254 C.ar      1 <0>        -0.1551
      8 N1         -4.1146    2.4466    2.3523 N.am      1 <0>        -0.5705
      9 C8         -4.9217    2.9176    3.4883 C.3       1 <0>         0.0676
     10 C9         -6.3535    2.9765    2.9218 C.3       1 <0>         0.0709
     11 H1         -6.7385    3.9955    2.9615 H         1 <0>         0.1304
     12 O1         -6.2047    2.5373    1.5405 O.3       1 <0>        -0.3046
     13 C10        -4.9183    2.2630    1.2959 C.2       1 <0>         0.6417
     14 O2         -4.5161    1.8791    0.2154 O.2       1 <0>        -0.4974
     15 C11        -7.2740    2.0265    3.6905 C.3       1 <0>         0.0696
     16 O3         -8.6162    2.1838    3.2258 O.3       1 <0>        -0.5626
     17 H2          0.0021   -0.0041    0.0020 H         1 <0>         0.0742
     18 H3          1.0099    1.4631    0.0003 H         1 <0>         0.0697
     19 H4         -0.5399    1.4469   -0.8751 H         1 <0>         0.0700
     20 H5          1.0689    1.6396    2.4191 H         1 <0>         0.1256
     21 H6         -0.0768    2.4326    4.4475 H         1 <0>         0.1296
     22 H7         -2.5084    2.8136    4.4210 H         1 <0>         0.1252
     23 H8         -2.6426    1.6103    0.3199 H         1 <0>         0.1571
     24 H9         -4.8664    2.2109    4.3163 H         1 <0>         0.1041
     25 H10        -4.5929    3.9065    3.8077 H         1 <0>         0.1090
     26 H11        -6.9516    0.9979    3.5285 H         1 <0>         0.0602
     27 H12        -7.2285    2.2582    4.7546 H         1 <0>         0.0770
     28 H13        -9.2560    1.6109    3.6702 H         1 <0>         0.3895
@<TRIPOS>BOND
     1    1    2 1
     2    1   17 1
     3    1   18 1
     4    1   19 1
     5    2    7 ar
     6    2    3 ar
     7    3    4 ar
     8    3   20 1
     9    4    5 ar
    10    4   21 1
    11    5    6 ar
    12    5   22 1
    13    6    7 ar
    14    6    8 1
    15    7   23 1
    16    8   13 am
    17    8    9 1
    18    9   10 1
    19    9   24 1
    20    9   25 1
    21   10   11 1
    22   10   12 1
    23   10   15 1
    24   12   13 1
    25   13   14 2
    26   15   16 1
    27   15   26 1
    28   15   27 1
    29   16   28 1
@<TRIPOS>MOLECULE
ZINC05782275
   28    29     0     0     0
SMALL
USER_CHARGES
5-(hydroxymethyl)-3-(m-tolyl)oxazolidin-2-one
@<TRIPOS>ATOM
      1 C1          4.7137    7.5082    4.4765 C.3       1 <0>        -0.1176
      2 C2          4.7494    6.7712    3.1625 C.ar      1 <0>        -0.0540
      3 C3          5.8583    6.8746    2.3425 C.ar      1 <0>        -0.1426
      4 C4          5.8948    6.2003    1.1360 C.ar      1 <0>        -0.0864
      5 C5          4.8234    5.4204    0.7464 C.ar      1 <0>        -0.1625
      6 C6          3.7089    5.3142    1.5675 C.ar      1 <0>         0.1821
      7 C7          3.6728    5.9977    2.7761 C.ar      1 <0>        -0.1552
      8 N1          2.6217    4.5247    1.1757 N.am      1 <0>        -0.5712
      9 C8          2.5290    3.7568   -0.0792 C.3       1 <0>         0.0682
     10 C9          1.1449    3.0852    0.0077 C.3       1 <0>         0.0704
     11 H1          0.5084    3.4140   -0.8138 H         1 <0>         0.1300
     12 O1          0.6081    3.5403    1.2835 O.3       1 <0>        -0.3040
     13 C10         1.4957    4.3445    1.8794 C.2       1 <0>         0.6418
     14 O2          1.2991    4.8635    2.9604 O.2       1 <0>        -0.4975
     15 C11         1.2864    1.5618   -0.0018 C.3       1 <0>         0.0695
     16 O3         -0.0110    0.9628    0.0073 O.3       1 <0>        -0.5622
     17 H2          4.2838    8.4985    4.3261 H         1 <0>         0.0743
     18 H3          4.1041    6.9519    5.1887 H         1 <0>         0.0699
     19 H4          5.7272    7.6073    4.8653 H         1 <0>         0.0696
     20 H5          6.6974    7.4835    2.6451 H         1 <0>         0.1255
     21 H6          6.7620    6.2833    0.4977 H         1 <0>         0.1296
     22 H7          4.8528    4.8934   -0.1959 H         1 <0>         0.1251
     23 H8          2.8053    5.9209    3.4148 H         1 <0>         0.1570
     24 H9          3.3169    3.0051   -0.1281 H         1 <0>         0.1046
     25 H10         2.5786    4.4215   -0.9416 H         1 <0>         0.1094
     26 H11         1.8401    1.2428    0.8812 H         1 <0>         0.0598
     27 H12         1.8231    1.2523   -0.8987 H         1 <0>         0.0770
     28 H13         0.0021   -0.0041    0.0020 H         1 <0>         0.3894
@<TRIPOS>BOND
     1    1    2 1
     2    1   17 1
     3    1   18 1
     4    1   19 1
     5    2    7 ar
     6    2    3 ar
     7    3    4 ar
     8    3   20 1
     9    4    5 ar
    10    4   21 1
    11    5    6 ar
    12    5   22 1
    13    6    7 ar
    14    6    8 1
    15    7   23 1
    16    8   13 am
    17    8    9 1
    18    9   10 1
    19    9   24 1
    20    9   25 1
    21   10   11 1
    22   10   12 1
    23   10   15 1
    24   12   13 1
    25   13   14 2
    26   15   16 1
    27   15   26 1
    28   15   27 1
    29   16   28 1
@<TRIPOS>MOLECULE
ZINC02994534
   30    31     0     0     0
SMALL
USER_CHARGES

@<TRIPOS>ATOM
      1 C1         -0.0184    1.5028    0.0103 C.3       1 <0>        -0.1314
      2 C2          0.0021   -0.0041    0.0020 C.2       1 <0>         0.0143
      3 C3          0.0061   -0.6954   -1.1674 C.2       1 <0>        -0.2081
      4 C4          0.0259   -2.1051   -1.1488 C.2       1 <0>         0.5147
      5 O1          0.0297   -2.7124   -2.2045 O.2       1 <0>        -0.4489
      6 O2          0.0411   -2.7950    0.0025 O.3       1 <0>        -0.2669
      7 C5          0.0380   -2.1693    1.1991 C.ar      1 <0>         0.1602
      8 C6          0.0243   -0.7629    1.2543 C.ar      1 <0>        -0.1275
      9 C7          0.0261   -0.1105    2.4922 C.ar      1 <0>        -0.0385
     10 C8          0.0465   -0.8421    3.6444 C.ar      1 <0>        -0.1099
     11 C9          0.0655   -2.2344    3.5961 C.ar      1 <0>         0.1207
     12 C10         0.0533   -2.8969    2.3791 C.ar      1 <0>        -0.1492
     13 O3          0.0862   -2.9478    4.7507 O.3       1 <0>        -0.6575
     14 S1         -1.2947   -3.2926    5.2901 S.o2      1 <0>         2.5944
     15 O4         -1.0583   -3.7911    6.5997 O.2       1 <0>        -0.9188
     16 O5         -2.0659   -2.1158    5.0912 O.2       1 <0>        -0.9461
     17 C11        -1.8965   -4.6234    4.2143 C.3       1 <0>        -0.6969
     18 C12        -0.0109    0.0426   -2.4812 C.3       1 <0>        -0.1015
     19 H1          1.0042    1.8801    0.0026 H         1 <0>         0.0945
     20 H2         -0.5455    1.8639   -0.8728 H         1 <0>         0.0903
     21 H3         -0.5286    1.8543    0.9071 H         1 <0>         0.0831
     22 H4          0.0118    0.9686    2.5359 H         1 <0>         0.1587
     23 H5          0.0483   -0.3384    4.5997 H         1 <0>         0.1560
     24 H6          0.0678   -3.9764    2.3498 H         1 <0>         0.1628
     25 H7         -1.2169   -5.4735    4.2730 H         1 <0>         0.1377
     26 H8         -2.8911   -4.9303    4.5377 H         1 <0>         0.1421
     27 H9         -1.9432   -4.2659    3.1856 H         1 <0>         0.1310
     28 H10         1.0125    0.2352   -2.8031 H         1 <0>         0.0804
     29 H11        -0.5199   -0.5627   -3.2313 H         1 <0>         0.0803
     30 H12        -0.5377    0.9891   -2.3595 H         1 <0>         0.0802
@<TRIPOS>BOND
     1    1    2 1
     2    1   19 1
     3    1   20 1
     4    1   21 1
     5    2    8 1
     6    2    3 2
     7    3    4 1
     8    3   18 1
     9    4    5 2
    10    4    6 1
    11    6    7 1
    12    7   12 ar
    13    7    8 ar
    14    8    9 ar
    15    9   10 ar
    16    9   22 1
    17   10   11 ar
    18   10   23 1
    19   11   12 ar
    20   11   13 1
    21   12   24 1
    22   13   14 1
    23   14   15 2
    24   14   16 2
    25   14   17 1
    26   17   25 1
    27   17   26 1
    28   17   27 1
    29   18   28 1
    30   18   29 1
    31   18   30 1
@<TRIPOS>MOLECULE
ZINC00453687
   40    42     0     0     0
SMALL
USER_CHARGES
3,4-dimethyl-7-(p-tolylmethoxy)chromen-2-one
@<TRIPOS>ATOM
      1 C1         -5.6103    5.6646   12.2445 C.3       1 <0>        -0.1199
      2 C2         -4.6895    5.1882   11.1508 C.ar      1 <0>        -0.0712
      3 C3         -4.4488    3.8366   10.9899 C.ar      1 <0>        -0.1243
      4 C4         -3.6042    3.3996    9.9866 C.ar      1 <0>        -0.0887
      5 C5         -3.0010    4.3142    9.1437 C.ar      1 <0>        -0.1093
      6 C6         -3.2380    5.6662    9.3076 C.ar      1 <0>        -0.0887
      7 C7         -4.0860    6.1029   10.3082 C.ar      1 <0>        -0.1243
      8 C8         -2.0802    3.8378    8.0500 C.3       1 <0>         0.1014
      9 O1         -2.8362    3.6003    6.8608 O.3       1 <0>        -0.2983
     10 C9         -2.1522    3.1634    5.7727 C.ar      1 <0>         0.1882
     11 C10        -0.7745    2.9687    5.8546 C.ar      1 <0>        -0.2265
     12 C11        -0.0728    2.5299    4.7697 C.ar      1 <0>        -0.0148
     13 C12        -0.7406    2.2737    3.5666 C.ar      1 <0>        -0.1872
     14 C13        -0.0134    1.8021    2.3863 C.2       1 <0>         0.0304
     15 C14        -0.7181    1.5718    1.2479 C.2       1 <0>        -0.2322
     16 C15        -2.1103    1.7942    1.2278 C.2       1 <0>         0.5159
     17 O2         -2.7292    1.5890    0.1991 O.2       1 <0>        -0.4593
     18 O3         -2.7718    2.2213    2.3149 O.3       1 <0>        -0.2692
     19 C16        -2.1314    2.4688    3.4775 C.ar      1 <0>         0.1870
     20 C17        -2.8290    2.9152    4.5899 C.ar      1 <0>        -0.1746
     21 C18        -0.0127    1.0858    0.0080 C.3       1 <0>        -0.0959
     22 C19         1.4762    1.5790    2.4329 C.3       1 <0>        -0.1289
     23 H1         -5.0339    5.8451   13.1519 H         1 <0>         0.0739
     24 H2         -6.0966    6.5891   11.9331 H         1 <0>         0.0689
     25 H3         -6.3665    4.9043   12.4397 H         1 <0>         0.0689
     26 H4         -4.9203    3.1219   11.6482 H         1 <0>         0.1263
     27 H5         -3.4158    2.3436    9.8612 H         1 <0>         0.1251
     28 H6         -2.7633    6.3810    8.6519 H         1 <0>         0.1252
     29 H7         -4.2744    7.1589   10.4337 H         1 <0>         0.1263
     30 H8         -1.5934    2.9137    8.3617 H         1 <0>         0.0771
     31 H9         -1.3245    4.5985    7.8542 H         1 <0>         0.0770
     32 H10        -0.2591    3.1663    6.7829 H         1 <0>         0.1414
     33 H11         0.9946    2.3808    4.8392 H         1 <0>         0.1439
     34 H12        -3.8966    3.0685    4.5343 H         1 <0>         0.1525
     35 H13         0.0021   -0.0041    0.0020 H         1 <0>         0.0749
     36 H14         1.0099    1.4631    0.0003 H         1 <0>         0.0742
     37 H15        -0.5399    1.4469   -0.8751 H         1 <0>         0.0780
     38 H16         1.9903    2.4980    2.1515 H         1 <0>         0.0910
     39 H17         1.7694    1.2935    3.4432 H         1 <0>         0.0801
     40 H18         1.7465    0.7840    1.7379 H         1 <0>         0.0858
@<TRIPOS>BOND
     1    1    2 1
     2    1   23 1
     3    1   24 1
     4    1   25 1
     5    2    7 ar
     6    2    3 ar
     7    3    4 ar
     8    3   26 1
     9    4    5 ar
    10    4   27 1
    11    5    6 ar
    12    5    8 1
    13    6    7 ar
    14    6   28 1
    15    7   29 1
    16    8    9 1
    17    8   30 1
    18    8   31 1
    19    9   10 1
    20   10   20 ar
    21   10   11 ar
    22   11   12 ar
    23   11   32 1
    24   12   13 ar
    25   12   33 1
    26   13   19 ar
    27   13   14 1
    28   14   15 2
    29   14   22 1
    30   15   16 1
    31   15   21 1
    32   16   17 2
    33   16   18 1
    34   18   19 1
    35   19   20 ar
    36   20   34 1
    37   21   35 1
    38   21   36 1
    39   21   37 1
    40   22   38 1
    41   22   39 1
    42   22   40 1
@<TRIPOS>MOLECULE
ZINC13641817
   36    36     0     0     0
SMALL
USER_CHARGES
(2R)-1-(2,6-dimethoxy-4-methylsulfanyl-phenyl)propan-2-amine
@<TRIPOS>ATOM
      1 C1         -0.0127    1.0858    0.0080 C.3       1 <0>        -0.1828
      2 C2         -0.7288    1.5792    1.2668 C.3       1 <0>         0.0385
      3 H1         -0.7436    2.6691    1.2728 H         1 <0>         0.1372
      4 C3          0.0111    1.0724    2.5063 C.3       1 <0>        -0.0751
      5 C4         -0.6205    1.6580    3.7429 C.ar      1 <0>        -0.2048
      6 C5         -0.1595    2.8630    4.2523 C.ar      1 <0>         0.2024
      7 C6         -0.7430    3.4050    5.3869 C.ar      1 <0>        -0.2545
      8 C7         -1.7827    2.7356    6.0199 C.ar      1 <0>         0.0044
      9 C8         -2.2401    1.5262    5.5119 C.ar      1 <0>        -0.2200
     10 C9         -1.6586    0.9887    4.3742 C.ar      1 <0>         0.1699
     11 O1         -2.1061   -0.1941    3.8767 O.3       1 <0>        -0.3306
     12 C10        -3.1780   -0.8285    4.5772 C.3       1 <0>         0.0182
     13 S1         -2.5212    3.4202    7.4658 S.3       1 <0>        -0.0777
     14 C11        -1.6096    4.9653    7.7346 C.3       1 <0>        -0.1528
     15 O2          0.8613    3.5148    3.6361 O.3       1 <0>        -0.3082
     16 C12         1.2853    4.7506    4.2150 C.3       1 <0>         0.0219
     17 H2          0.0021   -0.0041    0.0020 H         1 <0>         0.0825
     18 H3          1.0099    1.4631    0.0003 H         1 <0>         0.1065
     19 H4         -0.5399    1.4469   -0.8751 H         1 <0>         0.0817
     20 H5         -0.0506   -0.0151    2.5470 H         1 <0>         0.0997
     21 H6          1.0569    1.3753    2.4543 H         1 <0>         0.1201
     22 H7         -0.3864    4.3451    5.7812 H         1 <0>         0.1391
     23 H8         -3.0486    1.0051    6.0030 H         1 <0>         0.1432
     24 H9         -2.8685   -1.0396    5.6008 H         1 <0>         0.0693
     25 H10        -4.0455   -0.1687    4.5886 H         1 <0>         0.0651
     26 H11        -3.4375   -1.7612    4.0764 H         1 <0>         0.1126
     27 H12        -1.7288    5.6133    6.8663 H         1 <0>         0.0881
     28 H13        -1.9997    5.4681    8.6195 H         1 <0>         0.1199
     29 H14        -0.5524    4.7429    7.8795 H         1 <0>         0.0890
     30 H15         0.4518    5.4530    4.2229 H         1 <0>         0.0613
     31 H16         1.6233    4.5763    5.2365 H         1 <0>         0.0629
     32 H17         2.1042    5.1652    3.6271 H         1 <0>         0.1125
     33 H18        -2.1202    0.0619    1.2720 H         1 <0>         0.4353
     34 H19        -2.6208    1.4350    2.0655 H         1 <0>         0.4319
     35 N1         -2.1153    1.0804    1.2553 N.4       1 <0>        -0.6425
     36 H20        -2.5833    1.4037    0.4006 H         1 <0>         0.4359
@<TRIPOS>BOND
     1    1    2 1
     2    1   17 1
     3    1   18 1
     4    1   19 1
     5    2    3 1
     6    2    4 1
     7    2   35 1
     8    4    5 1
     9    4   20 1
    10    4   21 1
    11    5   10 ar
    12    5    6 ar
    13    6    7 ar
    14    6   15 1
    15    7    8 ar
    16    7   22 1
    17    8    9 ar
    18    8   13 1
    19    9   10 ar
    20    9   23 1
    21   10   11 1
    22   11   12 1
    23   12   24 1
    24   12   25 1
    25   12   26 1
    26   13   14 1
    27   14   27 1
    28   14   28 1
    29   14   29 1
    30   15   16 1
    31   16   30 1
    32   16   31 1
    33   16   32 1
    34   33   35 1
    35   34   35 1
    36   35   36 1
@<TRIPOS>MOLECULE
ZINC13641820
   36    36     0     0     0
SMALL
USER_CHARGES
(2S)-1-(2,6-dimethoxy-4-methylsulfanyl-phenyl)propan-2-amine
@<TRIPOS>ATOM
      1 C1          0.6035    9.7438    1.6932 C.3       1 <0>        -0.1793
      2 C2          0.6128    8.2139    1.7016 C.3       1 <0>         0.0380
      3 H1          0.6546    7.8564    2.7304 H         1 <0>         0.1379
      4 C3         -0.6602    7.6925    1.0318 C.3       1 <0>        -0.0782
      5 C4         -0.7104    6.1909    1.1487 C.ar      1 <0>        -0.2055
      6 C5         -1.3232    5.6012    2.2445 C.ar      1 <0>         0.2022
      7 C6         -1.3700    4.2201    2.3531 C.ar      1 <0>        -0.2187
      8 C7         -0.8030    3.4265    1.3638 C.ar      1 <0>         0.0042
      9 C8         -0.1846    4.0183    0.2697 C.ar      1 <0>        -0.2546
     10 C9         -0.1435    5.3995    0.1606 C.ar      1 <0>         0.1685
     11 O1          0.4572    5.9786   -0.9121 O.3       1 <0>        -0.3317
     12 C10         1.0200    5.1032   -1.8914 C.3       1 <0>         0.0191
     13 S1         -0.8618    1.6708    1.5005 S.3       1 <0>        -0.0749
     14 C11        -0.0127    1.0858    0.0080 C.3       1 <0>        -0.1532
     15 O2         -1.8774    6.3778    3.2123 O.3       1 <0>        -0.3077
     16 C12        -2.4912    5.7037    4.3126 C.3       1 <0>         0.0206
     17 H2          1.5104   10.1153    2.1704 H         1 <0>         0.0816
     18 H3          0.5618   10.1013    0.6644 H         1 <0>         0.0818
     19 H4         -0.2682   10.1049    2.2390 H         1 <0>         0.1072
     20 H5         -0.6587    7.9752   -0.0209 H         1 <0>         0.0995
     21 H6         -1.5322    8.1246    1.5228 H         1 <0>         0.1208
     22 H7         -1.8468    3.7612    3.2065 H         1 <0>         0.1442
     23 H8          0.2605    3.4023   -0.4978 H         1 <0>         0.1389
     24 H9          1.7859    4.4824   -1.4265 H         1 <0>         0.0630
     25 H10         0.2366    4.4667   -2.3027 H         1 <0>         0.0674
     26 H11         1.4667    5.6929   -2.6919 H         1 <0>         0.1136
     27 H12         0.0021   -0.0041    0.0020 H         1 <0>         0.1198
     28 H13         1.0099    1.4631    0.0003 H         1 <0>         0.0868
     29 H14        -0.5399    1.4469   -0.8751 H         1 <0>         0.0883
     30 H15        -2.8927    6.4383    5.0106 H         1 <0>         0.1121
     31 H16        -3.2997    5.0711    3.9460 H         1 <0>         0.0654
     32 H17        -1.7495    5.0873    4.8207 H         1 <0>         0.0639
     33 H18         1.7400    7.9912   -0.0067 H         1 <0>         0.4349
     34 H19         2.6417    8.0583    1.3891 H         1 <0>         0.4335
     35 N1          1.7846    7.7024    0.9691 N.4       1 <0>        -0.6427
     36 H20         1.7900    6.6766    1.0150 H         1 <0>         0.4332
@<TRIPOS>BOND
     1    1    2 1
     2    1   17 1
     3    1   18 1
     4    1   19 1
     5    2    3 1
     6    2    4 1
     7    2   35 1
     8    4    5 1
     9    4   20 1
    10    4   21 1
    11    5   10 ar
    12    5    6 ar
    13    6    7 ar
    14    6   15 1
    15    7    8 ar
    16    7   22 1
    17    8    9 ar
    18    8   13 1
    19    9   10 ar
    20    9   23 1
    21   10   11 1
    22   11   12 1
    23   12   24 1
    24   12   25 1
    25   12   26 1
    26   13   14 1
    27   14   27 1
    28   14   28 1
    29   14   29 1
    30   15   16 1
    31   16   30 1
    32   16   31 1
    33   16   32 1
    34   33   35 1
    35   34   35 1
    36   35   36 1
@<TRIPOS>MOLECULE
ZINC13641829
   32    32     0     0     0
SMALL
USER_CHARGES
(2R)-1-(2-chloro-4,6-dimethoxy-phenyl)propan-2-amine
@<TRIPOS>ATOM
      1 C1         -0.0127    1.0858    0.0080 C.3       1 <0>        -0.1800
      2 C2         -0.7288    1.5792    1.2668 C.3       1 <0>         0.0369
      3 H1         -0.2017    1.2182    2.1499 H         1 <0>         0.1425
      4 C3         -2.1642    1.0497    1.2777 C.3       1 <0>        -0.0913
      5 C4         -2.8310    1.4322    2.5739 C.ar      1 <0>        -0.1943
      6 C5         -2.7608    0.5808    3.6674 C.ar      1 <0>         0.1999
      7 C6         -3.3706    0.9351    4.8609 C.ar      1 <0>        -0.2312
      8 C7         -4.0583    2.1354    4.9564 C.ar      1 <0>         0.2016
      9 C8         -4.1304    2.9817    3.8595 C.ar      1 <0>        -0.2273
     10 C9         -3.5172    2.6287    2.6710 C.ar      1 <0>         0.0178
     11 Cl1        -3.6088    3.6894    1.2998 Cl        1 <0>        -0.0555
     12 O1         -4.6609    2.4827    6.1239 O.3       1 <0>        -0.3006
     13 C10        -5.3512    3.7336    6.1506 C.3       1 <0>         0.0190
     14 O2         -2.0907   -0.5974    3.5699 O.3       1 <0>        -0.3046
     15 C11        -2.0592   -1.4242    4.7350 C.3       1 <0>         0.0189
     16 H2          0.0021   -0.0041    0.0020 H         1 <0>         0.1096
     17 H3          1.0099    1.4631    0.0003 H         1 <0>         0.0844
     18 H4         -0.5399    1.4469   -0.8751 H         1 <0>         0.0825
     19 H5         -2.7171    1.4814    0.4434 H         1 <0>         0.1000
     20 H6         -2.1517   -0.0361    1.1822 H         1 <0>         0.1286
     21 H7         -3.3136    0.2752    5.7139 H         1 <0>         0.1536
     22 H8         -4.6659    3.9167    3.9336 H         1 <0>         0.1516
     23 H9         -5.7852    3.8881    7.1385 H         1 <0>         0.1141
     24 H10        -4.6511    4.5397    5.9313 H         1 <0>         0.0636
     25 H11        -6.1439    3.7272    5.4025 H         1 <0>         0.0652
     26 H12        -1.5822   -0.8828    5.5520 H         1 <0>         0.0658
     27 H13        -3.0773   -1.6891    5.0202 H         1 <0>         0.0673
     28 H14        -1.4940   -2.3315    4.5215 H         1 <0>         0.1139
     29 H15         0.1882    3.4225    1.2680 H         1 <0>         0.4362
     30 H16        -1.2872    3.4067    0.5005 H         1 <0>         0.4285
     31 N1         -0.7603    3.0522    1.2970 N.4       1 <0>        -0.6487
     32 H17        -1.2147    3.3623    2.1640 H         1 <0>         0.4323
@<TRIPOS>BOND
     1    1    2 1
     2    1   16 1
     3    1   17 1
     4    1   18 1
     5    2    3 1
     6    2    4 1
     7    2   31 1
     8    4    5 1
     9    4   19 1
    10    4   20 1
    11    5   10 ar
    12    5    6 ar
    13    6    7 ar
    14    6   14 1
    15    7    8 ar
    16    7   21 1
    17    8    9 ar
    18    8   12 1
    19    9   10 ar
    20    9   22 1
    21   10   11 1
    22   12   13 1
    23   13   23 1
    24   13   24 1
    25   13   25 1
    26   14   15 1
    27   15   26 1
    28   15   27 1
    29   15   28 1
    30   29   31 1
    31   30   31 1
    32   31   32 1
@<TRIPOS>MOLECULE
ZINC13641832
   32    32     0     0     0
SMALL
USER_CHARGES
(2S)-1-(2-chloro-4,6-dimethoxy-phenyl)propan-2-amine
@<TRIPOS>ATOM
      1 C1         -1.5012    1.1315    5.5383 C.3       1 <0>        -0.1833
      2 C2         -0.9545    2.1730    4.5598 C.3       1 <0>         0.0367
      3 H1         -0.0561    1.7846    4.0802 H         1 <0>         0.1457
      4 C3         -2.0106    2.4761    3.4951 C.3       1 <0>        -0.0913
      5 C4         -1.4300    3.4078    2.4626 C.ar      1 <0>        -0.1925
      6 C5         -0.7874    2.8917    1.3462 C.ar      1 <0>         0.1992
      7 C6         -0.2585    3.7491    0.3939 C.ar      1 <0>        -0.2307
      8 C7         -0.3681    5.1212    0.5616 C.ar      1 <0>         0.2011
      9 C8         -1.0066    5.6334    1.6816 C.ar      1 <0>        -0.2268
     10 C9         -1.5341    4.7764    2.6305 C.ar      1 <0>         0.0174
     11 Cl1        -2.3332    5.4197    4.0310 Cl        1 <0>        -0.0562
     12 O1          0.1500    5.9636   -0.3705 O.3       1 <0>        -0.3007
     13 C10         0.0006    7.3648   -0.1330 C.3       1 <0>         0.0191
     14 O2         -0.6816    1.5467    1.1837 O.3       1 <0>        -0.3048
     15 C11        -0.0127    1.0858    0.0080 C.3       1 <0>         0.0189
     16 H2         -1.7445    0.2171    4.9972 H         1 <0>         0.1093
     17 H3         -0.7488    0.9156    6.2969 H         1 <0>         0.0847
     18 H4         -2.3996    1.5199    6.0179 H         1 <0>         0.0827
     19 H5         -2.8748    2.9467    3.9640 H         1 <0>         0.0999
     20 H6         -2.3188    1.5477    3.0143 H         1 <0>         0.1287
     21 H7          0.2380    3.3488   -0.4777 H         1 <0>         0.1536
     22 H8         -1.0922    6.7020    1.8126 H         1 <0>         0.1516
     23 H9          0.4571    7.9226   -0.9506 H         1 <0>         0.1141
     24 H10        -1.0592    7.6119   -0.0717 H         1 <0>         0.0652
     25 H11         0.4900    7.6286    0.8046 H         1 <0>         0.0636
     26 H12         0.0021   -0.0041    0.0020 H         1 <0>         0.1138
     27 H13         1.0099    1.4631    0.0003 H         1 <0>         0.0657
     28 H14        -0.5399    1.4469   -0.8751 H         1 <0>         0.0672
     29 H15         0.0694    3.2314    5.9985 H         1 <0>         0.4363
     30 H16        -0.3242    4.1305    4.6560 H         1 <0>         0.4289
     31 N1         -0.6492    3.4106    5.2991 N.4       1 <0>        -0.6485
     32 H17        -1.4998    3.7411    5.7698 H         1 <0>         0.4316
@<TRIPOS>BOND
     1    1    2 1
     2    1   16 1
     3    1   17 1
     4    1   18 1
     5    2    3 1
     6    2    4 1
     7    2   31 1
     8    4    5 1
     9    4   19 1
    10    4   20 1
    11    5   10 ar
    12    5    6 ar
    13    6    7 ar
    14    6   14 1
    15    7    8 ar
    16    7   21 1
    17    8    9 ar
    18    8   12 1
    19    9   10 ar
    20    9   22 1
    21   10   11 1
    22   12   13 1
    23   13   23 1
    24   13   24 1
    25   13   25 1
    26   14   15 1
    27   15   26 1
    28   15   27 1
    29   15   28 1
    30   29   31 1
    31   30   31 1
    32   31   32 1
@<TRIPOS>MOLECULE
ZINC13641823
   39    39     0     0     0
SMALL
USER_CHARGES
(2R)-1-(4-ethylsulfanyl-2,6-dimethoxy-phenyl)propan-2-amine
@<TRIPOS>ATOM
      1 C1         -5.1020    1.4560    8.9536 C.3       1 <0>        -0.1426
      2 C2         -4.4744    1.1938    7.5831 C.3       1 <0>        -0.1152
      3 S1         -4.8389    2.5833    6.4753 S.3       1 <0>        -0.0809
      4 C3         -4.0593    2.1360    4.9598 C.ar      1 <0>         0.0060
      5 C4         -4.1334    2.9852    3.8629 C.ar      1 <0>        -0.2197
      6 C5         -3.5194    2.6325    2.6713 C.ar      1 <0>         0.1678
      7 C6         -2.8310    1.4322    2.5739 C.ar      1 <0>        -0.2052
      8 C7         -2.7608    0.5811    3.6669 C.ar      1 <0>         0.2028
      9 C8         -3.3696    0.9342    4.8611 C.ar      1 <0>        -0.2538
     10 O1         -2.0908   -0.5971    3.5684 O.3       1 <0>        -0.3081
     11 C9         -2.0588   -1.4246    4.7330 C.3       1 <0>         0.0219
     12 C10        -2.1642    1.0497    1.2777 C.3       1 <0>        -0.0784
     13 C11        -0.7288    1.5792    1.2668 C.3       1 <0>         0.0384
     14 H1         -0.2017    1.2182    2.1499 H         1 <0>         0.1402
     15 C12        -0.0127    1.0858    0.0080 C.3       1 <0>        -0.1827
     16 O2         -3.5914    3.4632    1.5982 O.3       1 <0>        -0.3319
     17 C13        -4.3163    4.6827    1.7693 C.3       1 <0>         0.0180
     18 H2         -4.6886    2.3732    9.3730 H         1 <0>         0.0702
     19 H3         -6.1815    1.5606    8.8449 H         1 <0>         0.0709
     20 H4         -4.8830    0.6211    9.6192 H         1 <0>         0.0830
     21 H5         -4.8879    0.2766    7.1636 H         1 <0>         0.0915
     22 H6         -3.3949    1.0893    7.6918 H         1 <0>         0.0907
     23 H7         -4.6690    3.9200    3.9386 H         1 <0>         0.1434
     24 H8         -3.3116    0.2731    5.7132 H         1 <0>         0.1387
     25 H9         -1.4938   -2.3317    4.5188 H         1 <0>         0.1126
     26 H10        -1.5814   -0.8836    5.5500 H         1 <0>         0.0613
     27 H11        -3.0768   -1.6895    5.0186 H         1 <0>         0.0628
     28 H12        -2.7171    1.4814    0.4434 H         1 <0>         0.0998
     29 H13        -2.1517   -0.0361    1.1822 H         1 <0>         0.1200
     30 H14         0.0021   -0.0041    0.0020 H         1 <0>         0.1065
     31 H15         1.0099    1.4631    0.0003 H         1 <0>         0.0820
     32 H16        -0.5399    1.4469   -0.8751 H         1 <0>         0.0823
     33 H17        -1.2723    3.3983    2.0632 H         1 <0>         0.4315
     34 H18         0.1882    3.4225    1.2680 H         1 <0>         0.4335
     35 H19        -5.3491    4.4572    2.0350 H         1 <0>         0.0697
     36 H20        -3.8567    5.2702    2.5641 H         1 <0>         0.0653
     37 H21        -4.2961    5.2510    0.8394 H         1 <0>         0.1130
     38 N1         -0.7608    3.0524    1.2530 N.4       1 <0>        -0.6426
     39 H22        -1.2315    3.3718    0.3982 H         1 <0>         0.4370
@<TRIPOS>BOND
     1    1    2 1
     2    1   18 1
     3    1   19 1
     4    1   20 1
     5    2    3 1
     6    2   21 1
     7    2   22 1
     8    3    4 1
     9    4    9 ar
    10    4    5 ar
    11    5    6 ar
    12    5   23 1
    13    6    7 ar
    14    6   16 1
    15    7    8 ar
    16    7   12 1
    17    8    9 ar
    18    8   10 1
    19    9   24 1
    20   10   11 1
    21   11   25 1
    22   11   26 1
    23   11   27 1
    24   12   13 1
    25   12   28 1
    26   12   29 1
    27   13   14 1
    28   13   15 1
    29   13   38 1
    30   15   30 1
    31   15   31 1
    32   15   32 1
    33   16   17 1
    34   17   35 1
    35   17   36 1
    36   17   37 1
    37   33   38 1
    38   34   38 1
    39   38   39 1
@<TRIPOS>MOLECULE
ZINC13641826
   39    39     0     0     0
SMALL
USER_CHARGES
(2S)-1-(4-ethylsulfanyl-2,6-dimethoxy-phenyl)propan-2-amine
@<TRIPOS>ATOM
      1 C1         -1.2907   -8.6602   -1.2732 C.3       1 <0>        -0.1431
      2 C2         -1.3136   -7.1307   -1.2446 C.3       1 <0>        -0.1150
      3 S1         -1.3550   -6.5586    0.4764 S.3       1 <0>        -0.0789
      4 C3         -1.3781   -4.8020    0.3412 C.ar      1 <0>         0.0058
      5 C4         -1.4116   -4.0170    1.4869 C.ar      1 <0>        -0.2193
      6 C5         -1.4293   -2.6352    1.3794 C.ar      1 <0>         0.2022
      7 C6         -1.4136   -2.0361    0.1285 C.ar      1 <0>        -0.2050
      8 C7         -1.3855   -2.8189   -1.0163 C.ar      1 <0>         0.1687
      9 C8         -1.3624   -4.2009   -0.9111 C.ar      1 <0>        -0.2544
     10 O1         -1.3757   -2.2307   -2.2413 O.3       1 <0>        -0.3316
     11 C9         -1.3466   -3.0976   -3.3770 C.3       1 <0>         0.0192
     12 C10        -1.4333   -0.5336    0.0129 C.3       1 <0>        -0.0783
     13 C11         0.0021   -0.0041    0.0020 C.3       1 <0>         0.0380
     14 H1          0.5293   -0.3651    0.8851 H         1 <0>         0.1411
     15 C12        -0.0187    1.5258    0.0104 C.3       1 <0>        -0.1826
     16 O2         -1.4625   -1.8671    2.5000 O.3       1 <0>        -0.3079
     17 C13        -1.4771   -2.5506    3.7548 C.3       1 <0>         0.0207
     18 H2         -1.2658   -9.0039   -2.3073 H         1 <0>         0.0825
     19 H3         -0.4053   -9.0202   -0.7493 H         1 <0>         0.0705
     20 H4         -2.1847   -9.0462   -0.7834 H         1 <0>         0.0712
     21 H5         -2.1991   -6.7707   -1.7685 H         1 <0>         0.0906
     22 H6         -0.4196   -6.7447   -1.7343 H         1 <0>         0.0893
     23 H7         -1.4242   -4.4833    2.4610 H         1 <0>         0.1439
     24 H8         -1.3363   -4.8101   -1.8024 H         1 <0>         0.1382
     25 H9         -0.4481   -3.7137   -3.3408 H         1 <0>         0.0629
     26 H10        -2.2277   -3.7391   -3.3671 H         1 <0>         0.0673
     27 H11        -1.3416   -2.5011   -4.2893 H         1 <0>         0.1135
     28 H12        -1.9701   -0.1109    0.8621 H         1 <0>         0.1207
     29 H13        -1.9334   -0.2470   -0.9122 H         1 <0>         0.0992
     30 H14         1.0039    1.9031    0.0027 H         1 <0>         0.0820
     31 H15        -0.5459    1.8868   -0.8726 H         1 <0>         0.0819
     32 H16        -0.5289    1.8773    0.9072 H         1 <0>         0.1069
     33 H17         1.6404   -0.1412   -1.2372 H         1 <0>         0.4336
     34 H18         0.6604   -1.4845   -1.2682 H         1 <0>         0.4310
     35 H19        -1.5036   -1.8221    4.5651 H         1 <0>         0.1120
     36 H20        -2.3591   -3.1886    3.8108 H         1 <0>         0.0653
     37 H21        -0.5796   -3.1626    3.8457 H         1 <0>         0.0638
     38 N1          0.6753   -0.4669   -1.2244 N.4       1 <0>        -0.6426
     39 H22         0.1833   -0.0891   -2.0425 H         1 <0>         0.4367
@<TRIPOS>BOND
     1    1    2 1
     2    1   18 1
     3    1   19 1
     4    1   20 1
     5    2    3 1
     6    2   21 1
     7    2   22 1
     8    3    4 1
     9    4    9 ar
    10    4    5 ar
    11    5    6 ar
    12    5   23 1
    13    6    7 ar
    14    6   16 1
    15    7    8 ar
    16    7   12 1
    17    8    9 ar
    18    8   10 1
    19    9   24 1
    20   10   11 1
    21   11   25 1
    22   11   26 1
    23   11   27 1
    24   12   13 1
    25   12   28 1
    26   12   29 1
    27   13   14 1
    28   13   15 1
    29   13   38 1
    30   15   30 1
    31   15   31 1
    32   15   32 1
    33   16   17 1
    34   17   35 1
    35   17   36 1
    36   17   37 1
    37   33   38 1
    38   34   38 1
    39   38   39 1
@<TRIPOS>MOLECULE
ZINC13641781
   39    39     0     0     0
SMALL
USER_CHARGES
(2S)-1-(2,5-dimethoxy-4-methylsulfanyl-phenyl)-N-methyl-propan-2-amine
@<TRIPOS>ATOM
      1 C1          4.1268    0.1193   -1.4647 C.3       1 <0>        -0.1798
      2 C2          2.8587    0.9752   -1.4571 C.3       1 <0>         0.0324
      3 H1          2.0417    0.4183   -1.9159 H         1 <0>         0.1407
      4 C3          2.4893    1.3268   -0.0146 C.3       1 <0>        -0.0880
      5 C4          1.1754    2.0646    0.0019 C.ar      1 <0>        -0.1350
      6 C5          1.1605    3.4479    0.0100 C.ar      1 <0>        -0.1770
      7 C6         -0.0446    4.1285    0.0247 C.ar      1 <0>         0.1236
      8 C7         -1.2444    3.4190    0.0318 C.ar      1 <0>        -0.0680
      9 C8         -1.2268    2.0319    0.0189 C.ar      1 <0>        -0.1818
     10 C9         -0.0164    1.3556    0.0095 C.ar      1 <0>         0.1325
     11 O1          0.0021   -0.0041    0.0020 O.3       1 <0>        -0.3133
     12 C10        -1.2622   -0.6701    0.0105 C.3       1 <0>         0.0219
     13 S1         -2.7803    4.2823    0.0505 S.3       1 <0>        -0.0535
     14 C11        -4.0253    2.9629    0.0549 C.3       1 <0>        -0.1616
     15 O2         -0.0580    5.4893    0.0325 O.3       1 <0>        -0.2995
     16 C12         1.2087    6.1507    0.0249 C.3       1 <0>         0.0242
     17 C13         2.8689    1.9974   -3.6520 C.3       1 <0>        -0.0441
     18 H2          4.3900   -0.1312   -2.4923 H         1 <0>         0.0815
     19 H3          4.9438    0.6762   -1.0058 H         1 <0>         0.0826
     20 H4          3.9502   -0.7969   -0.9012 H         1 <0>         0.1078
     21 H5          3.2662    1.9587    0.4157 H         1 <0>         0.0962
     22 H6          2.3995    0.4118    0.5708 H         1 <0>         0.1247
     23 H7          2.0903    3.9973    0.0044 H         1 <0>         0.1408
     24 H8         -2.1548    1.4794    0.0200 H         1 <0>         0.1439
     25 H9         -1.1047   -1.7486    0.0032 H         1 <0>         0.1104
     26 H10        -1.8146   -0.3896    0.9073 H         1 <0>         0.0610
     27 H11        -1.8316   -0.3800   -0.8725 H         1 <0>         0.0587
     28 H12        -3.9091    2.3508   -0.8395 H         1 <0>         0.0854
     29 H13        -3.8928    2.3413    0.9403 H         1 <0>         0.0867
     30 H14        -5.0220    3.4039    0.0663 H         1 <0>         0.1195
     31 H15         1.7605    5.8684   -0.8716 H         1 <0>         0.0508
     32 H16         1.0552    7.2298    0.0325 H         1 <0>         0.1108
     33 H17         1.7765    5.8583    0.9082 H         1 <0>         0.0604
     34 H18         1.8384    1.6810   -3.8134 H         1 <0>         0.1212
     35 H19         3.0522    2.9271   -4.1906 H         1 <0>         0.1247
     36 H20         3.5472    1.2262   -4.0172 H         1 <0>         0.1243
     37 N1          3.0998    2.2193   -2.2121 N.4       1 <0>        -0.5223
     38 H21         4.0706    2.5207   -2.0673 H         1 <0>         0.4303
     39 H22         2.4610    2.9492   -1.8752 H         1 <0>         0.4269
@<TRIPOS>BOND
     1    1    2 1
     2    1   18 1
     3    1   19 1
     4    1   20 1
     5    2    3 1
     6    2    4 1
     7    2   37 1
     8    4    5 1
     9    4   21 1
    10    4   22 1
    11    5   10 ar
    12    5    6 ar
    13    6    7 ar
    14    6   23 1
    15    7    8 ar
    16    7   15 1
    17    8    9 ar
    18    8   13 1
    19    9   10 ar
    20    9   24 1
    21   10   11 1
    22   11   12 1
    23   12   25 1
    24   12   26 1
    25   12   27 1
    26   13   14 1
    27   14   28 1
    28   14   29 1
    29   14   30 1
    30   15   16 1
    31   16   31 1
    32   16   32 1
    33   16   33 1
    34   17   34 1
    35   17   35 1
    36   17   36 1
    37   17   37 1
    38   37   38 1
    39   37   39 1
@<TRIPOS>MOLECULE
ZINC13641784
   39    39     0     0     0
SMALL
USER_CHARGES
(2R)-1-(2,5-dimethoxy-4-methylsulfanyl-phenyl)-N-methyl-propan-2-amine
@<TRIPOS>ATOM
      1 C1         -0.7527    1.5927   -1.2315 C.3       1 <0>        -0.1813
      2 C2         -0.0127    1.0858    0.0080 C.3       1 <0>         0.0335
      3 H1          0.0021   -0.0041    0.0020 H         1 <0>         0.1368
      4 C3         -0.7288    1.5792    1.2668 C.3       1 <0>        -0.0919
      5 C4         -0.0738    0.9805    2.4848 C.ar      1 <0>        -0.1179
      6 C5         -0.5859   -0.1756    3.0459 C.ar      1 <0>        -0.1438
      7 C6          0.0135   -0.7281    4.1646 C.ar      1 <0>         0.1322
      8 C7          1.1343   -0.1186    4.7260 C.ar      1 <0>        -0.0751
      9 C8          1.6460    1.0407    4.1613 C.ar      1 <0>        -0.1726
     10 C9          1.0446    1.5863    3.0373 C.ar      1 <0>         0.0799
     11 O1          1.5488    2.7193    2.4794 O.3       1 <0>        -0.3393
     12 C10         2.7024    3.2901    3.1001 C.3       1 <0>         0.0167
     13 S1          1.8994   -0.8189    6.1504 S.3       1 <0>        -0.0504
     14 C11         3.2829    0.3009    6.5006 C.3       1 <0>        -0.1624
     15 O2         -0.4914   -1.8651    4.7161 O.3       1 <0>        -0.2997
     16 C12        -1.6419   -2.4350    4.0887 C.3       1 <0>         0.0228
     17 C13         2.2406    0.7268   -0.8021 C.3       1 <0>        -0.0454
     18 H2         -1.7753    1.2154   -1.2238 H         1 <0>         0.1062
     19 H3         -0.7675    2.6825   -1.2255 H         1 <0>         0.0835
     20 H4         -0.2425    1.2411   -2.1283 H         1 <0>         0.0819
     21 H5         -0.6662    2.6662    1.3180 H         1 <0>         0.1036
     22 H6         -1.7755    1.2768    1.2315 H         1 <0>         0.1199
     23 H7         -1.4541   -0.6478    2.6105 H         1 <0>         0.1489
     24 H8          2.5143    1.5152    4.5941 H         1 <0>         0.1443
     25 H9          3.5185    2.5677    3.0844 H         1 <0>         0.0628
     26 H10         3.0007    4.1871    2.5573 H         1 <0>         0.1140
     27 H11         2.4680    3.5511    4.1322 H         1 <0>         0.0701
     28 H12         3.9559    0.3262    5.6435 H         1 <0>         0.0842
     29 H13         2.8997    1.3034    6.6913 H         1 <0>         0.0860
     30 H14         3.8245   -0.0539    7.3775 H         1 <0>         0.1196
     31 H15        -2.4591   -1.7139    4.1047 H         1 <0>         0.0609
     32 H16        -1.4034   -2.6911    3.0564 H         1 <0>         0.0583
     33 H17        -1.9408   -3.3348    4.6265 H         1 <0>         0.1109
     34 H18         1.8746    0.6881   -1.8281 H         1 <0>         0.1230
     35 H19         3.2548    1.1262   -0.7930 H         1 <0>         0.1224
     36 H20         2.2418   -0.2776   -0.3786 H         1 <0>         0.1196
     37 N1          1.3686    1.6032    0.0027 N.4       1 <0>        -0.5202
     38 H21         1.7208    1.6385    0.9665 H         1 <0>         0.4286
     39 H22         1.3748    2.5481   -0.3988 H         1 <0>         0.4295
@<TRIPOS>BOND
     1    1    2 1
     2    1   18 1
     3    1   19 1
     4    1   20 1
     5    2    3 1
     6    2    4 1
     7    2   37 1
     8    4    5 1
     9    4   21 1
    10    4   22 1
    11    5   10 ar
    12    5    6 ar
    13    6    7 ar
    14    6   23 1
    15    7    8 ar
    16    7   15 1
    17    8    9 ar
    18    8   13 1
    19    9   10 ar
    20    9   24 1
    21   10   11 1
    22   11   12 1
    23   12   25 1
    24   12   26 1
    25   12   27 1
    26   13   14 1
    27   14   28 1
    28   14   29 1
    29   14   30 1
    30   15   16 1
    31   16   31 1
    32   16   32 1
    33   16   33 1
    34   17   34 1
    35   17   35 1
    36   17   36 1
    37   17   37 1
    38   37   38 1
    39   37   39 1
@<TRIPOS>MOLECULE
ZINC28465563
   37    37     0     0     0
SMALL
USER_CHARGES

@<TRIPOS>ATOM
      1 C1         -0.0187    1.5258    0.0104 C.3       1 <0>        -0.1847
      2 C2          0.0021   -0.0041    0.0020 C.3       1 <0>         0.0320
      3 H1          0.5293   -0.3651    0.8851 H         1 <0>         0.1428
      4 C3          0.7182   -0.4975   -1.2568 C.3       1 <0>        -0.0974
      5 C4          0.8473   -1.9981   -1.2057 C.ar      1 <0>        -0.1417
      6 C5          1.9592   -2.5753   -0.6198 C.ar      1 <0>        -0.0816
      7 C6          2.0811   -3.9498   -0.5716 C.ar      1 <0>        -0.0918
      8 C7          1.0845   -4.7535   -1.1123 C.ar      1 <0>        -0.0698
      9 C8         -0.0316   -4.1700   -1.6999 C.ar      1 <0>        -0.1292
     10 C9         -0.1491   -2.7947   -1.7398 C.ar      1 <0>        -0.1172
     11 S1          1.2360   -6.5080   -1.0537 S.3       1 <0>        -0.0881
     12 C10        -0.2725   -7.1061   -1.8644 C.3       1 <0>        -0.1064
     13 C11        -0.2698   -8.6360   -1.8821 C.3       1 <0>        -0.0821
     14 C12        -0.3451   -9.1627   -0.4476 C.3       1 <0>        -0.1546
     15 C13        -1.4782   -9.1390   -2.6743 C.3       1 <0>        -0.1456
     16 N1         -1.3761   -0.5125    0.0124 N.4       1 <0>        -0.6385
     17 H2          1.0039    1.9031    0.0027 H         1 <0>         0.1081
     18 H3         -0.5459    1.8868   -0.8726 H         1 <0>         0.0831
     19 H4         -0.5289    1.8773    0.9072 H         1 <0>         0.0842
     20 H5          0.1430   -0.2121   -2.1375 H         1 <0>         0.0975
     21 H6          1.7103   -0.0491   -1.3098 H         1 <0>         0.1207
     22 H7          2.7333   -1.9501   -0.1998 H         1 <0>         0.1349
     23 H8          2.9500   -4.3999   -0.1146 H         1 <0>         0.1371
     24 H9         -0.8080   -4.7914   -2.1210 H         1 <0>         0.1303
     25 H10        -1.0181   -2.3406   -2.1926 H         1 <0>         0.1239
     26 H11        -1.1450   -6.7506   -1.3162 H         1 <0>         0.0891
     27 H12        -0.3085   -6.7310   -2.8872 H         1 <0>         0.0903
     28 H13         0.6468   -8.9922   -2.3523 H         1 <0>         0.0836
     29 H14        -1.2617   -8.8064    0.0226 H         1 <0>         0.0578
     30 H15        -0.3432  -10.2526   -0.4602 H         1 <0>         0.0649
     31 H16         0.5157   -8.8043    0.1168 H         1 <0>         0.0630
     32 H17        -1.4245   -8.7638   -3.6962 H         1 <0>         0.0585
     33 H18        -1.4762  -10.2290   -2.6869 H         1 <0>         0.0679
     34 H19        -2.3947   -8.7828   -2.2041 H         1 <0>         0.0580
     35 H20        -1.8641   -0.1783   -0.8050 H         1 <0>         0.4315
     36 H21        -1.3624   -1.5214    0.0069 H         1 <0>         0.4331
     37 H22        -1.8484   -0.1871    0.8426 H         1 <0>         0.4361
@<TRIPOS>BOND
     1    1    2 1
     2    1   17 1
     3    1   18 1
     4    1   19 1
     5    2    3 1
     6    2    4 1
     7    2   16 1
     8    4    5 1
     9    4   20 1
    10    4   21 1
    11    5   10 ar
    12    5    6 ar
    13    6    7 ar
    14    6   22 1
    15    7    8 ar
    16    7   23 1
    17    8    9 ar
    18    8   11 1
    19    9   10 ar
    20    9   24 1
    21   10   25 1
    22   11   12 1
    23   12   13 1
    24   12   26 1
    25   12   27 1
    26   13   14 1
    27   13   15 1
    28   13   28 1
    29   14   29 1
    30   14   30 1
    31   14   31 1
    32   15   32 1
    33   15   33 1
    34   15   34 1
    35   16   35 1
    36   16   36 1
    37   16   37 1
@<TRIPOS>MOLECULE
ZINC28465567
   37    37     0     0     0
SMALL
USER_CHARGES

@<TRIPOS>ATOM
      1 C1         -0.0187    1.5258    0.0104 C.3       1 <0>        -0.1847
      2 C2          0.0021   -0.0041    0.0020 C.3       1 <0>         0.0323
      3 H1          0.5293   -0.3651    0.8851 H         1 <0>         0.1419
      4 C3         -1.4333   -0.5336    0.0129 C.3       1 <0>        -0.0974
      5 C4         -1.4136   -2.0361    0.1285 C.ar      1 <0>        -0.1420
      6 C5         -1.3741   -2.8153   -1.0135 C.ar      1 <0>        -0.1184
      7 C6         -1.3563   -4.1923   -0.9114 C.ar      1 <0>        -0.0940
      8 C7         -1.3778   -4.7949    0.3407 C.ar      1 <0>        -0.0696
      9 C8         -1.4170   -4.0086    1.4860 C.ar      1 <0>        -0.1269
     10 C9         -1.4293   -2.6322    1.3763 C.ar      1 <0>        -0.0803
     11 S1         -1.3558   -6.5516    0.4758 S.3       1 <0>        -0.0902
     12 C10        -1.3944   -6.8547    2.2639 C.3       1 <0>        -0.1064
     13 C11        -1.3791   -8.3620    2.5260 C.3       1 <0>        -0.0817
     14 C12        -0.0513   -8.9500    2.0444 C.3       1 <0>        -0.1545
     15 C13        -1.5372   -8.6204    4.0257 C.3       1 <0>        -0.1460
     16 N1          0.6897   -0.4778   -1.2066 N.4       1 <0>        -0.6385
     17 H2          1.0039    1.9031    0.0027 H         1 <0>         0.0842
     18 H3         -0.5459    1.8868   -0.8726 H         1 <0>         0.0835
     19 H4         -0.5289    1.8773    0.9072 H         1 <0>         0.1076
     20 H5         -1.9701   -0.1109    0.8621 H         1 <0>         0.1198
     21 H6         -1.9334   -0.2470   -0.9122 H         1 <0>         0.0984
     22 H7         -1.3574   -2.3463   -1.9862 H         1 <0>         0.1266
     23 H8         -1.3262   -4.8002   -1.8036 H         1 <0>         0.1363
     24 H9         -1.4337   -4.4735    2.4606 H         1 <0>         0.1309
     25 H10        -1.4557   -2.0205    2.2660 H         1 <0>         0.1320
     26 H11        -0.5218   -6.3961    2.7290 H         1 <0>         0.0905
     27 H12        -2.3011   -6.4216    2.6863 H         1 <0>         0.0912
     28 H13        -2.2016   -8.8328    1.9875 H         1 <0>         0.0832
     29 H14         0.7712   -8.4792    2.5829 H         1 <0>         0.0583
     30 H15        -0.0404  -10.0238    2.2312 H         1 <0>         0.0648
     31 H16         0.0613   -8.7659    0.9760 H         1 <0>         0.0623
     32 H17        -2.4832   -8.2015    4.3689 H         1 <0>         0.0588
     33 H18        -1.5263   -9.6942    4.2125 H         1 <0>         0.0678
     34 H19        -0.7147   -8.1496    4.5642 H         1 <0>         0.0586
     35 H20         1.6363   -0.1286   -1.2138 H         1 <0>         0.4361
     36 H21         0.7033   -1.4867   -1.2121 H         1 <0>         0.4335
     37 H22         0.2017   -0.1436   -2.0240 H         1 <0>         0.4320
@<TRIPOS>BOND
     1    1    2 1
     2    1   17 1
     3    1   18 1
     4    1   19 1
     5    2    3 1
     6    2    4 1
     7    2   16 1
     8    4    5 1
     9    4   20 1
    10    4   21 1
    11    5   10 ar
    12    5    6 ar
    13    6    7 ar
    14    6   22 1
    15    7    8 ar
    16    7   23 1
    17    8    9 ar
    18    8   11 1
    19    9   10 ar
    20    9   24 1
    21   10   25 1
    22   11   12 1
    23   12   13 1
    24   12   26 1
    25   12   27 1
    26   13   14 1
    27   13   15 1
    28   13   28 1
    29   14   29 1
    30   14   30 1
    31   14   31 1
    32   15   32 1
    33   15   33 1
    34   15   34 1
    35   16   35 1
    36   16   36 1
    37   16   37 1
@<TRIPOS>MOLECULE
ZINC00388631
   24    25     0     0     0
SMALL
USER_CHARGES
7-hydroxy-3,4-dimethyl-chromen-2-one
@<TRIPOS>ATOM
      1 C1          1.4762    1.5784    2.4330 C.3       1 <0>        -0.1289
      2 C2         -0.0134    1.8021    2.3862 C.2       1 <0>         0.0219
      3 C3         -0.7181    1.5718    1.2479 C.2       1 <0>        -0.2222
      4 C4         -2.1103    1.7942    1.2277 C.2       1 <0>         0.5142
      5 O1         -2.7293    1.5882    0.1992 O.2       1 <0>        -0.4576
      6 O2         -2.7718    2.2223    2.3144 O.3       1 <0>        -0.2698
      7 C5         -2.1315    2.4699    3.4772 C.ar      1 <0>         0.1613
      8 C6         -0.7404    2.2742    3.5664 C.ar      1 <0>        -0.1577
      9 C7         -0.0728    2.5304    4.7692 C.ar      1 <0>        -0.0411
     10 C8         -0.7749    2.9693    5.8544 C.ar      1 <0>        -0.1643
     11 C9         -2.1519    3.1649    5.7721 C.ar      1 <0>         0.1648
     12 C10        -2.8289    2.9166    4.5890 C.ar      1 <0>        -0.1639
     13 O3         -2.8360    3.6018    6.8602 O.3       1 <0>        -0.4908
     14 C11        -0.0127    1.0858    0.0080 C.3       1 <0>        -0.0979
     15 H1          1.9906    2.4971    2.1513 H         1 <0>         0.0918
     16 H2          1.7692    1.2930    3.4433 H         1 <0>         0.0812
     17 H3          1.7462    0.7831    1.7381 H         1 <0>         0.0864
     18 H4          0.9944    2.3803    4.8390 H         1 <0>         0.1456
     19 H5         -0.2595    3.1667    6.7828 H         1 <0>         0.1430
     20 H6         -3.8963    3.0709    4.5330 H         1 <0>         0.1510
     21 H7         -3.1677    2.8922    7.4273 H         1 <0>         0.4017
     22 H8          0.0021   -0.0041    0.0020 H         1 <0>         0.0767
     23 H9          1.0099    1.4631    0.0003 H         1 <0>         0.0756
     24 H10        -0.5399    1.4469   -0.8751 H         1 <0>         0.0792
@<TRIPOS>BOND
     1    1    2 1
     2    1   15 1
     3    1   16 1
     4    1   17 1
     5    2    8 1
     6    2    3 2
     7    3    4 1
     8    3   14 1
     9    4    5 2
    10    4    6 1
    11    6    7 1
    12    7   12 ar
    13    7    8 ar
    14    8    9 ar
    15    9   10 ar
    16    9   18 1
    17   10   11 ar
    18   10   19 1
    19   11   12 ar
    20   11   13 1
    21   12   20 1
    22   13   21 1
    23   14   22 1
    24   14   23 1
    25   14   24 1
@<TRIPOS>MOLECULE
ZINC13641835
   31    31     0     0     0
SMALL
USER_CHARGES
(2R)-1-(4-ethylsulfanylphenyl)propan-2-amine
@<TRIPOS>ATOM
      1 C1          6.3469    5.7516   -4.1597 C.3       1 <0>        -0.1425
      2 C2          5.0182    5.0275   -3.9335 C.3       1 <0>        -0.1128
      3 S1          5.3210    3.4679   -3.0579 S.3       1 <0>        -0.0966
      4 C3          3.7165    2.7629   -2.8758 C.ar      1 <0>        -0.0679
      5 C4          3.5621    1.5386   -2.2366 C.ar      1 <0>        -0.0945
      6 C5          2.3032    0.9889   -2.0961 C.ar      1 <0>        -0.1162
      7 C6          1.1968    1.6552   -2.5907 C.ar      1 <0>        -0.1409
      8 C7          1.3472    2.8710   -3.2324 C.ar      1 <0>        -0.0806
      9 C8          2.6024    3.4295   -3.3716 C.ar      1 <0>        -0.1275
     10 C9         -0.1755    1.0519   -2.4354 C.3       1 <0>        -0.0951
     11 C10        -0.7955    1.5269   -1.1198 C.3       1 <0>         0.0368
     12 H1         -0.7938    2.6165   -1.0898 H         1 <0>         0.1399
     13 C11        -2.2343    1.0162   -1.0204 C.3       1 <0>        -0.1858
     14 H2          6.1650    6.6887   -4.6859 H         1 <0>         0.0822
     15 H3          6.8155    5.9600   -3.1979 H         1 <0>         0.0695
     16 H4          7.0068    5.1220   -4.7566 H         1 <0>         0.0702
     17 H5          4.5497    4.8191   -4.8954 H         1 <0>         0.0912
     18 H6          4.3583    5.6571   -3.3367 H         1 <0>         0.0903
     19 H7          4.4256    1.0179   -1.8498 H         1 <0>         0.1362
     20 H8          2.1824    0.0377   -1.5991 H         1 <0>         0.1268
     21 H9          0.4814    3.3864   -3.6213 H         1 <0>         0.1321
     22 H10         2.7186    4.3811   -3.8689 H         1 <0>         0.1311
     23 H11        -0.0957   -0.0351   -2.4279 H         1 <0>         0.0979
     24 H12        -0.8060    1.3642   -3.2679 H         1 <0>         0.1195
     25 H13        -2.6760    1.3546   -0.0831 H         1 <0>         0.0838
     26 H14        -2.8159    1.4036   -1.8569 H         1 <0>         0.1070
     27 H15        -2.2360   -0.0734   -1.0504 H         1 <0>         0.0833
     28 H16         0.0021   -0.0041    0.0020 H         1 <0>         0.4338
     29 H17         0.9253    1.3792    0.0006 H         1 <0>         0.4358
     30 N1         -0.0252    1.0139    0.0269 N.4       1 <0>        -0.6471
     31 H18        -0.4761    1.3157    0.8986 H         1 <0>         0.4401
@<TRIPOS>BOND
     1    1    2 1
     2    1   14 1
     3    1   15 1
     4    1   16 1
     5    2    3 1
     6    2   17 1
     7    2   18 1
     8    3    4 1
     9    4    9 ar
    10    4    5 ar
    11    5    6 ar
    12    5   19 1
    13    6    7 ar
    14    6   20 1
    15    7    8 ar
    16    7   10 1
    17    8    9 ar
    18    8   21 1
    19    9   22 1
    20   10   11 1
    21   10   23 1
    22   10   24 1
    23   11   12 1
    24   11   13 1
    25   11   30 1
    26   13   25 1
    27   13   26 1
    28   13   27 1
    29   28   30 1
    30   29   30 1
    31   30   31 1
@<TRIPOS>MOLECULE
ZINC13641838
   31    31     0     0     0
SMALL
USER_CHARGES
(2S)-1-(4-ethylsulfanylphenyl)propan-2-amine
@<TRIPOS>ATOM
      1 C1         -5.0851    2.5300    6.5416 C.3       1 <0>        -0.1430
      2 C2         -4.4733    2.0709    5.2164 C.3       1 <0>        -0.1131
      3 S1         -4.8404    3.2917    3.9259 S.3       1 <0>        -0.0935
      4 C3         -4.0793    2.6277    2.4821 C.ar      1 <0>        -0.0679
      5 C4         -4.1588    3.3123    1.2753 C.ar      1 <0>        -0.0913
      6 C5         -3.5615    2.7886    0.1458 C.ar      1 <0>        -0.0811
      7 C6         -2.8848    1.5844    0.2145 C.ar      1 <0>        -0.1417
      8 C7         -2.8085    0.8975    1.4125 C.ar      1 <0>        -0.1181
      9 C8         -3.3985    1.4179    2.5474 C.ar      1 <0>        -0.1292
     10 C9         -2.2343    1.0162   -1.0204 C.3       1 <0>        -0.0987
     11 C10        -0.7955    1.5269   -1.1198 C.3       1 <0>         0.0364
     12 H1         -0.7938    2.6165   -1.0898 H         1 <0>         0.1408
     13 C11        -0.1755    1.0519   -2.4354 C.3       1 <0>        -0.1823
     14 H2         -4.8645    1.7965    7.3170 H         1 <0>         0.0818
     15 H3         -4.6616    3.4943    6.8225 H         1 <0>         0.0698
     16 H4         -6.1650    2.6264    6.4292 H         1 <0>         0.0706
     17 H5         -4.8968    1.1067    4.9355 H         1 <0>         0.0905
     18 H6         -3.3934    1.9746    5.3288 H         1 <0>         0.0890
     19 H7         -4.6867    4.2528    1.2210 H         1 <0>         0.1376
     20 H8         -3.6225    3.3202   -0.7923 H         1 <0>         0.1354
     21 H9         -2.2830   -0.0447    1.4615 H         1 <0>         0.1249
     22 H10        -3.3348    0.8831    3.4835 H         1 <0>         0.1309
     23 H11        -2.7929    1.3298   -1.9023 H         1 <0>         0.1203
     24 H12        -2.2303   -0.0722   -0.9609 H         1 <0>         0.0976
     25 H13        -0.1772   -0.0377   -2.4654 H         1 <0>         0.0827
     26 H14        -0.7571    1.4393   -3.2719 H         1 <0>         0.1078
     27 H15         0.8496    1.4157   -2.5062 H         1 <0>         0.0838
     28 H16         0.0021   -0.0041    0.0020 H         1 <0>         0.4333
     29 H17         0.9253    1.3792    0.0006 H         1 <0>         0.4379
     30 N1         -0.0252    1.0139    0.0269 N.4       1 <0>        -0.6478
     31 H18        -0.4761    1.3157    0.8986 H         1 <0>         0.4365
@<TRIPOS>BOND
     1    1    2 1
     2    1   14 1
     3    1   15 1
     4    1   16 1
     5    2    3 1
     6    2   17 1
     7    2   18 1
     8    3    4 1
     9    4    9 ar
    10    4    5 ar
    11    5    6 ar
    12    5   19 1
    13    6    7 ar
    14    6   20 1
    15    7    8 ar
    16    7   10 1
    17    8    9 ar
    18    8   21 1
    19    9   22 1
    20   10   11 1
    21   10   23 1
    22   10   24 1
    23   11   12 1
    24   11   13 1
    25   11   30 1
    26   13   25 1
    27   13   26 1
    28   13   27 1
    29   28   30 1
    30   29   30 1
    31   30   31 1
@<TRIPOS>MOLECULE
ZINC28651405
   34    34     0     0     0
SMALL
USER_CHARGES
(2S)-1-(4-propylsulfanylphenyl)propan-2-amine
@<TRIPOS>ATOM
      1 C1          2.6910   -7.4130   -1.6891 C.3       1 <0>        -0.1504
      2 C2          1.3929   -6.9465   -2.3511 C.3       1 <0>        -0.1130
      3 C3          1.2956   -5.4220   -2.2647 C.3       1 <0>        -0.1110
      4 S1         -0.2435   -4.8689   -3.0495 S.3       1 <0>        -0.0953
      5 C4         -0.2077   -3.1165   -2.8699 C.ar      1 <0>        -0.0685
      6 C5         -1.2512   -2.3440   -3.3658 C.ar      1 <0>        -0.0913
      7 C6         -1.2195   -0.9709   -3.2236 C.ar      1 <0>        -0.0825
      8 C7         -0.1511   -0.3642   -2.5887 C.ar      1 <0>        -0.1373
      9 C8          0.8919   -1.1292   -2.0990 C.ar      1 <0>        -0.1173
     10 C9          0.8643   -2.5033   -2.2325 C.ar      1 <0>        -0.1294
     11 C10        -0.1202    1.1347   -2.4355 C.3       1 <0>        -0.0984
     12 C11        -0.7955    1.5269   -1.1198 C.3       1 <0>         0.0438
     13 H1         -1.7995    1.0824   -1.0536 H         1 <0>         0.1347
     14 C12        -0.8757    3.0517   -1.0224 C.3       1 <0>        -0.1853
     15 N1         -0.0116    1.0048    0.0076 N.4       1 <0>        -0.6892
     16 H2          2.7609   -8.5090   -1.7512 H         1 <0>         0.0684
     17 H3          2.6955   -7.1045   -0.6332 H         1 <0>         0.0578
     18 H4          3.5497   -6.9608   -2.2069 H         1 <0>         0.0588
     19 H5          1.3884   -7.2550   -3.4070 H         1 <0>         0.0775
     20 H6          0.5342   -7.3987   -1.8333 H         1 <0>         0.0767
     21 H7          1.3002   -5.1136   -1.2088 H         1 <0>         0.0898
     22 H8          2.1543   -4.9698   -2.7825 H         1 <0>         0.0913
     23 H9         -2.0860   -2.8171   -3.8614 H         1 <0>         0.1368
     24 H10        -2.0302   -0.3700   -3.6083 H         1 <0>         0.1344
     25 H11         1.7267   -0.6517   -1.6077 H         1 <0>         0.1249
     26 H12         1.6769   -3.1005   -1.8460 H         1 <0>         0.1303
     27 H13         0.9238    1.4812   -2.4294 H         1 <0>         0.0970
     28 H14        -0.6561    1.6003   -3.2758 H         1 <0>         0.1180
     29 H15        -1.3612    3.3336   -0.0765 H         1 <0>         0.0826
     30 H16        -1.4626    3.4427   -1.8666 H         1 <0>         0.1052
     31 H17         0.1391    3.4750   -1.0541 H         1 <0>         0.0822
     32 H18        -0.4971    1.2868    0.9535 H         1 <0>         0.4565
     33 H19         1.0032    1.4282   -0.0242 H         1 <0>         0.4497
     34 H20         0.0461   -0.0915   -0.0624 H         1 <0>         0.4524
@<TRIPOS>BOND
     1    1    2 1
     2    1   16 1
     3    1   17 1
     4    1   18 1
     5    2    3 1
     6    2   19 1
     7    2   20 1
     8    3    4 1
     9    3   21 1
    10    3   22 1
    11    4    5 1
    12    5   10 ar
    13    5    6 ar
    14    6    7 ar
    15    6   23 1
    16    7    8 ar
    17    7   24 1
    18    8    9 ar
    19    8   11 1
    20    9   10 ar
    21    9   25 1
    22   10   26 1
    23   11   12 1
    24   11   27 1
    25   11   28 1
    26   12   13 1
    27   12   14 1
    28   12   15 1
    29   14   29 1
    30   14   30 1
    31   14   31 1
    32   15   32 1
    33   15   33 1
    34   15   34 1
@<TRIPOS>MOLECULE
ZINC25965531
   28    30     0     0     0
SMALL
USER_CHARGES
9-methyl-1,2,3,4-tetrahydropyrido[3,4-b]indole
@<TRIPOS>ATOM
      1 C1          4.9703    1.4242    0.4395 C.3       1 <0>         0.0724
      2 N1          3.6249    1.9497    0.1944 N.pl3     1 <0>        -0.4739
      3 C2          3.3371    3.2351   -0.1667 C.ar      1 <0>         0.0981
      4 C3          4.1487    4.3443   -0.3948 C.ar      1 <0>        -0.1318
      5 C4          3.5157    5.5214   -0.7544 C.ar      1 <0>        -0.1004
      6 C5          2.1395    5.6099   -0.8866 C.ar      1 <0>        -0.1509
      7 C6          1.3151    4.5340   -0.6687 C.ar      1 <0>        -0.0662
      8 C7          1.9276    3.3309   -0.3039 C.ar      1 <0>        -0.1017
      9 C8          1.4090    2.0159   -0.0006 C.2       1 <0>        -0.1592
     10 C9          2.4675    1.2264    0.2924 C.2       1 <0>         0.0610
     11 C10         2.3290   -0.2306    0.6655 C.3       1 <0>         0.1160
     12 N2          0.9279   -0.4863    1.0366 N.3       1 <0>        -0.6646
     13 C11         0.0021   -0.0041    0.0020 C.3       1 <0>         0.0461
     14 C12        -0.0187    1.5306    0.0105 C.3       1 <0>        -0.0426
     15 H1          5.7097    2.2244    0.2880 H         1 <0>         0.0879
     16 H2          5.1745    0.5992   -0.2589 H         1 <0>         0.0746
     17 H3          5.0368    1.0544    1.4733 H         1 <0>         0.0762
     18 H4          5.2226    4.2885   -0.2946 H         1 <0>         0.1251
     19 H5          4.1150    6.4008   -0.9386 H         1 <0>         0.1207
     20 H6          1.7013    6.5553   -1.1704 H         1 <0>         0.1182
     21 H7          0.2431    4.6131   -0.7738 H         1 <0>         0.1284
     22 H8          2.6103   -0.8574   -0.1936 H         1 <0>         0.0506
     23 H9          2.9897   -0.4558    1.5156 H         1 <0>         0.0900
     24 H10         0.7743   -1.5679    1.1655 H         1 <0>         0.3518
     25 H11         0.3355   -0.3612   -0.9836 H         1 <0>         0.0365
     26 H12        -1.0088   -0.3860    0.2077 H         1 <0>         0.0847
     27 H13        -0.5240    1.8987    0.9156 H         1 <0>         0.0782
     28 H14        -0.5414    1.9084   -0.8806 H         1 <0>         0.0750
@<TRIPOS>BOND
     1    1    2 1
     2    1   15 1
     3    1   16 1
     4    1   17 1
     5    2   10 1
     6    2    3 1
     7    3    8 ar
     8    3    4 ar
     9    4    5 ar
    10    4   18 1
    11    5    6 ar
    12    5   19 1
    13    6    7 ar
    14    6   20 1
    15    7    8 ar
    16    7   21 1
    17    8    9 1
    18    9   14 1
    19    9   10 2
    20   10   11 1
    21   11   12 1
    22   11   22 1
    23   11   23 1
    24   12   13 1
    25   12   24 1
    26   13   14 1
    27   13   25 1
    28   13   26 1
    29   14   27 1
    30   14   28 1
@<TRIPOS>MOLECULE
ZINC25965531
   29    31     0     0     0
SMALL
USER_CHARGES
9-methyl-1,2,3,4-tetrahydropyrido[3,4-b]indole
@<TRIPOS>ATOM
      1 C1          4.9703    1.4242    0.4395 C.3       1 <0>         0.0614
      2 N1          3.6249    1.9497    0.1944 N.pl3     1 <0>        -0.4575
      3 C2          3.3371    3.2351   -0.1667 C.ar      1 <0>         0.1090
      4 C3          4.1487    4.3443   -0.3948 C.ar      1 <0>        -0.1287
      5 C4          3.5157    5.5214   -0.7544 C.ar      1 <0>        -0.0814
      6 C5          2.1395    5.6099   -0.8866 C.ar      1 <0>        -0.1364
      7 C6          1.3151    4.5340   -0.6687 C.ar      1 <0>        -0.0649
      8 C7          1.9276    3.3309   -0.3039 C.ar      1 <0>        -0.1032
      9 C8          1.4090    2.0159   -0.0006 C.2       1 <0>        -0.1610
     10 C9          2.4675    1.2264    0.2924 C.2       1 <0>         0.0065
     11 C10         2.3290   -0.2306    0.6655 C.3       1 <0>         0.0793
     12 N2          0.9279   -0.4863    1.0366 N.4       1 <0>        -0.5295
     13 C11         0.0021   -0.0041    0.0020 C.3       1 <0>        -0.0014
     14 C12        -0.0187    1.5306    0.0105 C.3       1 <0>        -0.0729
     15 H1          5.7097    2.2244    0.2880 H         1 <0>         0.0988
     16 H2          5.1745    0.5992   -0.2589 H         1 <0>         0.0827
     17 H3          5.0368    1.0544    1.4733 H         1 <0>         0.0820
     18 H4          5.2226    4.2885   -0.2946 H         1 <0>         0.1336
     19 H5          4.1150    6.4008   -0.9386 H         1 <0>         0.1313
     20 H6          1.7013    6.5553   -1.1704 H         1 <0>         0.1282
     21 H7          0.2431    4.6131   -0.7738 H         1 <0>         0.1346
     22 H8          2.6103   -0.8574   -0.1936 H         1 <0>         0.1415
     23 H9          2.9897   -0.4558    1.5156 H         1 <0>         0.1405
     24 H10         0.7743   -1.5679    1.1655 H         1 <0>         0.4621
     25 H11         0.3355   -0.3612   -0.9836 H         1 <0>         0.1293
     26 H12        -1.0088   -0.3860    0.2077 H         1 <0>         0.1414
     27 H13        -0.5240    1.8987    0.9156 H         1 <0>         0.1000
     28 H14        -0.5414    1.9084   -0.8806 H         1 <0>         0.1184
     29 H15         0.6979    0.0316    1.9794 H         1 <0>         0.4562
@<TRIPOS>BOND
     1    1    2 1
     2    1   15 1
     3    1   16 1
     4    1   17 1
     5    2   10 1
     6    2    3 1
     7    3    8 ar
     8    3    4 ar
     9    4    5 ar
    10    4   18 1
    11    5    6 ar
    12    5   19 1
    13    6    7 ar
    14    6   20 1
    15    7    8 ar
    16    7   21 1
    17    8    9 1
    18    9   14 1
    19    9   10 2
    20   10   11 1
    21   11   12 1
    22   11   22 1
    23   11   23 1
    24   12   13 1
    25   12   24 1
    26   12   29 1
    27   13   14 1
    28   13   25 1
    29   13   26 1
    30   14   27 1
    31   14   28 1
@<TRIPOS>MOLECULE
ZINC19202437
   29    31     0     0     0
SMALL
USER_CHARGES

@<TRIPOS>ATOM
      1 C1         -0.0173    1.4248    0.0099 C.3       1 <0>         0.0283
      2 O1          0.0021   -0.0041    0.0020 O.3       1 <0>        -0.3192
      3 C2          0.6262   -0.6188    1.0422 C.ar      1 <0>         0.1012
      4 C3          1.2036    0.1450    2.0536 C.ar      1 <0>        -0.1788
      5 C4          1.8395   -0.4620    3.1130 C.ar      1 <0>        -0.0886
      6 C5          1.9106   -1.8490    3.1812 C.ar      1 <0>         0.0665
      7 C6          1.3276   -2.6252    2.1607 C.ar      1 <0>        -0.0573
      8 C7          0.6799   -1.9967    1.0938 C.ar      1 <0>        -0.1118
      9 C8          1.5756   -4.0133    2.5270 C.2       1 <0>        -0.1649
     10 C9          2.2593   -4.0096    3.6898 C.2       1 <0>         0.0807
     11 N1          2.4674   -2.7234    4.0932 N.pl3     1 <0>        -0.5858
     12 H1          2.9373   -2.4619    4.9005 H         1 <0>         0.4140
     13 C10         2.6970   -5.2756    4.3896 C.3       1 <0>         0.1236
     14 N2          1.9291   -6.4023    3.8352 N.3       1 <0>        -0.6853
     15 C11         1.9988   -6.4311    2.3675 C.3       1 <0>         0.0561
     16 C12         1.1765   -5.2684    1.7938 C.3       1 <0>        -0.0423
     17 H2          1.0053    1.8021    0.0021 H         1 <0>         0.0537
     18 H3         -0.5445    1.7859   -0.8732 H         1 <0>         0.0991
     19 H4         -0.5275    1.7763    0.9067 H         1 <0>         0.0539
     20 H5          1.1523    1.2227    2.0062 H         1 <0>         0.1321
     21 H6          2.2840    0.1398    3.8919 H         1 <0>         0.1237
     22 H7          0.2270   -2.5868    0.3109 H         1 <0>         0.1303
     23 H8          3.7615   -5.4387    4.2213 H         1 <0>         0.0527
     24 H9          2.5029   -5.1899    5.4588 H         1 <0>         0.0913
     25 H10         2.2373   -7.2786    4.2291 H         1 <0>         0.3535
     26 H11         3.0372   -6.3327    2.0509 H         1 <0>         0.0369
     27 H12         1.5956   -7.3760    2.0030 H         1 <0>         0.0826
     28 H13         0.1137   -5.4600    1.9420 H         1 <0>         0.0784
     29 H14         1.3872   -5.1570    0.7302 H         1 <0>         0.0754
@<TRIPOS>BOND
     1    1    2 1
     2    1   17 1
     3    1   18 1
     4    1   19 1
     5    2    3 1
     6    3    8 ar
     7    3    4 ar
     8    4    5 ar
     9    4   20 1
    10    5    6 ar
    11    5   21 1
    12    6   11 1
    13    6    7 ar
    14    7    8 ar
    15    7    9 1
    16    8   22 1
    17    9   16 1
    18    9   10 2
    19   10   11 1
    20   10   13 1
    21   11   12 1
    22   13   14 1
    23   13   23 1
    24   13   24 1
    25   14   15 1
    26   14   25 1
    27   15   16 1
    28   15   26 1
    29   15   27 1
    30   16   28 1
    31   16   29 1
@<TRIPOS>MOLECULE
ZINC00332024
   23    25     0     0     0
SMALL
USER_CHARGES
4,9-dihydro-3H-pyrido[3,4-b]indole
@<TRIPOS>ATOM
      1 C1          1.1636    3.1702    0.0082 C.ar      1 <0>        -0.1416
      2 C2          1.1700    1.7811    0.0005 C.ar      1 <0>        -0.0941
      3 C3         -0.0126    1.0758    0.0080 C.ar      1 <0>        -0.1270
      4 C4         -1.2259    1.7554    0.0174 C.ar      1 <0>         0.0972
      5 C5         -1.2319    3.1678    0.0284 C.ar      1 <0>        -0.0927
      6 C6         -0.0129    3.8599    0.0221 C.ar      1 <0>        -0.0705
      7 C7         -2.5784    3.5636    0.0391 C.2       1 <0>        -0.1411
      8 C8         -3.3527    2.4306    0.0446 C.2       1 <0>         0.0263
      9 N1         -2.5396    1.3318    0.0340 N.pl3     1 <0>        -0.5615
     10 H1         -2.8363    0.4083    0.0344 H         1 <0>         0.4213
     11 C9         -4.8199    2.5408    0.0625 C.2       1 <0>         0.2111
     12 N2         -5.3388    3.6877   -0.2578 N.2       1 <0>        -0.5050
     13 C10        -4.5585    4.8455   -0.6683 C.3       1 <0>         0.0386
     14 C11        -3.2056    4.9332    0.0409 C.3       1 <0>        -0.0755
     15 H2          2.0994    3.7093    0.0028 H         1 <0>         0.1248
     16 H3          2.1103    1.2499   -0.0119 H         1 <0>         0.1283
     17 H4          0.0021   -0.0041    0.0020 H         1 <0>         0.1226
     18 H5         -0.0053    4.9399    0.0278 H         1 <0>         0.1225
     19 H6         -5.4419    1.7000    0.3320 H         1 <0>         0.1713
     20 H7         -4.3885    4.7911   -1.7436 H         1 <0>         0.0823
     21 H8         -5.1278    5.7486   -0.4485 H         1 <0>         0.0982
     22 H9         -3.3506    5.2692    1.0676 H         1 <0>         0.0776
     23 H10        -2.5589    5.6338   -0.4873 H         1 <0>         0.0870
@<TRIPOS>BOND
     1    1    6 ar
     2    1    2 ar
     3    1   15 1
     4    2    3 ar
     5    2   16 1
     6    3    4 ar
     7    3   17 1
     8    4    9 1
     9    4    5 ar
    10    5    6 ar
    11    5    7 1
    12    6   18 1
    13    7   14 1
    14    7    8 2
    15    8    9 1
    16    8   11 1
    17    9   10 1
    18   11   12 2
    19   11   19 1
    20   12   13 1
    21   13   14 1
    22   13   20 1
    23   13   21 1
    24   14   22 1
    25   14   23 1
@<TRIPOS>MOLECULE
ZINC05393942
   30    32     0     0     0
SMALL
USER_CHARGES
8-methoxy-1,2,3,4-tetrahydropyrazino[1,2-a]indole
@<TRIPOS>ATOM
      1 C1         -4.0219    3.8769   -6.8373 C.3       1 <0>         0.0239
      2 O1         -2.7768    3.3104   -6.4240 O.3       1 <0>        -0.3153
      3 C2         -2.6378    3.0230   -5.1020 C.ar      1 <0>         0.1094
      4 C3         -3.6926    3.2900   -4.2375 C.ar      1 <0>        -0.1610
      5 C4         -3.6215    3.0238   -2.8820 C.ar      1 <0>        -0.0956
      6 C5         -2.4356    2.4687   -2.4044 C.ar      1 <0>         0.0889
      7 C6         -1.3586    2.1960   -3.2847 C.ar      1 <0>        -0.0826
      8 C7         -1.4468    2.4716   -4.6527 C.ar      1 <0>        -0.0949
      9 C8         -0.2975    1.6320   -2.4671 C.2       1 <0>        -0.1236
     10 C9         -0.7559    1.5925   -1.2065 C.2       1 <0>        -0.0105
     11 N1         -2.0413    2.0924   -1.1539 N.pl3     1 <0>        -0.4973
     12 C10        -2.8153    2.1767    0.0942 C.3       1 <0>         0.0911
     13 C11        -2.1520    1.2694    1.1360 C.3       1 <0>        -0.0111
     14 C12        -0.0127    1.0858    0.0080 C.3       1 <0>         0.0838
     15 H1         -4.0001    4.0570   -7.9121 H         1 <0>         0.1062
     16 H2         -4.8315    3.1864   -6.6010 H         1 <0>         0.0576
     17 H3         -4.1838    4.8193   -6.3141 H         1 <0>         0.0575
     18 H4         -4.5987    3.7204   -4.6377 H         1 <0>         0.1376
     19 H5         -4.4496    3.2366   -2.2222 H         1 <0>         0.1349
     20 H6         -0.6279    2.2657   -5.3262 H         1 <0>         0.1475
     21 H7          0.6741    1.3070   -2.8087 H         1 <0>         0.1619
     22 H8         -2.8211    3.2057    0.4539 H         1 <0>         0.1036
     23 H9         -3.8378    1.8441   -0.0847 H         1 <0>         0.1266
     24 H10        -2.6086    1.4422    2.1106 H         1 <0>         0.1545
     25 H11        -2.2921    0.2268    0.8505 H         1 <0>         0.1412
     26 H12         0.0021   -0.0041    0.0020 H         1 <0>         0.1476
     27 H13         1.0082    1.4675    0.0003 H         1 <0>         0.1539
     28 N2         -0.7093    1.5718    1.2186 N.4       1 <0>        -0.5201
     29 H14        -0.3133    1.1100    2.0456 H         1 <0>         0.4458
     30 H15        -0.5802    2.5873    1.2989 H         1 <0>         0.4384
@<TRIPOS>BOND
     1    1    2 1
     2    1   15 1
     3    1   16 1
     4    1   17 1
     5    2    3 1
     6    3    8 ar
     7    3    4 ar
     8    4    5 ar
     9    4   18 1
    10    5    6 ar
    11    5   19 1
    12    6   11 1
    13    6    7 ar
    14    7    8 ar
    15    7    9 1
    16    8   20 1
    17    9   10 2
    18    9   21 1
    19   10   14 1
    20   10   11 1
    21   11   12 1
    22   12   13 1
    23   12   22 1
    24   12   23 1
    25   13   24 1
    26   13   25 1
    27   13   28 1
    28   14   26 1
    29   14   27 1
    30   14   28 1
    31   28   29 1
    32   28   30 1
@<TRIPOS>MOLECULE
ZINC19228212
   25    27     0     0     0
SMALL
USER_CHARGES

@<TRIPOS>ATOM
      1 C1         -0.0164    1.3616    0.0095 C.ar      1 <0>        -0.1434
      2 C2          1.1695    2.0834    0.0021 C.ar      1 <0>        -0.0996
      3 C3          2.3849    1.4355   -0.0133 C.ar      1 <0>        -0.1290
      4 C4          2.4283    0.0454   -0.0215 C.ar      1 <0>         0.0926
      5 C5          1.2226   -0.6833   -0.0136 C.ar      1 <0>        -0.0925
      6 C6          0.0021   -0.0041    0.0020 C.ar      1 <0>        -0.0725
      7 C7          1.6081   -2.0889   -0.0255 C.2       1 <0>        -0.2105
      8 C8          2.9559   -2.1363   -0.0386 C.2       1 <0>         0.0756
      9 N1          3.4598   -0.8692   -0.0373 N.pl3     1 <0>        -0.5863
     10 H1          4.4035   -0.6448   -0.0462 H         1 <0>         0.4138
     11 C9          3.7278   -3.4364   -0.0498 C.3       1 <0>        -0.0960
     12 C10         2.7672   -4.5603    0.3602 C.3       1 <0>         0.0628
     13 N2          1.5326   -4.4689   -0.4317 N.3       1 <0>        -0.6828
     14 C11         0.7223   -3.3075   -0.0264 C.3       1 <0>         0.1310
     15 H2         -0.9614    1.8843    0.0259 H         1 <0>         0.1237
     16 H3          1.1387    3.1629    0.0080 H         1 <0>         0.1262
     17 H4          3.3021    2.0057   -0.0192 H         1 <0>         0.1192
     18 H5         -0.9252   -0.5578    0.0078 H         1 <0>         0.1223
     19 H6          4.1129   -3.6278   -1.0514 H         1 <0>         0.0835
     20 H7          4.5540   -3.3807    0.6590 H         1 <0>         0.0839
     21 H8          3.2414   -5.5256    0.1827 H         1 <0>         0.0882
     22 H9          2.5271   -4.4640    1.4190 H         1 <0>         0.0788
     23 H10         1.7377   -4.4397   -1.4192 H         1 <0>         0.3445
     24 H11         0.3212   -3.4708    0.9739 H         1 <0>         0.0829
     25 H12        -0.0961   -3.1662   -0.7322 H         1 <0>         0.0835
@<TRIPOS>BOND
     1    1    6 ar
     2    1    2 ar
     3    1   15 1
     4    2    3 ar
     5    2   16 1
     6    3    4 ar
     7    3   17 1
     8    4    9 1
     9    4    5 ar
    10    5    6 ar
    11    5    7 1
    12    6   18 1
    13    7   14 1
    14    7    8 2
    15    8    9 1
    16    8   11 1
    17    9   10 1
    18   11   12 1
    19   11   19 1
    20   11   20 1
    21   12   13 1
    22   12   21 1
    23   12   22 1
    24   13   14 1
    25   13   23 1
    26   14   24 1
    27   14   25 1
@<TRIPOS>MOLECULE
ZINC19418965
   25    27     0     0     0
SMALL
USER_CHARGES

@<TRIPOS>ATOM
      1 C1         -0.0164    1.3616    0.0095 C.ar      1 <0>        -0.1454
      2 C2          1.1695    2.0833    0.0021 C.ar      1 <0>        -0.0997
      3 C3          2.3848    1.4354   -0.0136 C.ar      1 <0>        -0.1295
      4 C4          2.4283    0.0454   -0.0218 C.ar      1 <0>         0.0961
      5 C5          1.2225   -0.6835   -0.0137 C.ar      1 <0>        -0.0978
      6 C6          0.0021   -0.0041    0.0020 C.ar      1 <0>        -0.0713
      7 C7          1.6088   -2.0882   -0.0263 C.2       1 <0>        -0.1591
      8 C8          2.9566   -2.1372   -0.0397 C.2       1 <0>         0.0694
      9 N1          3.4598   -0.8692   -0.0378 N.pl3     1 <0>        -0.5861
     10 H1          4.4034   -0.6444   -0.0464 H         1 <0>         0.4138
     11 C9          3.7316   -3.4345   -0.0523 C.3       1 <0>         0.1245
     12 N2          2.8254   -4.5211    0.3537 N.3       1 <0>        -0.6853
     13 C10         1.5870   -4.5132   -0.4375 C.3       1 <0>         0.0560
     14 C11         0.7260   -3.3100   -0.0273 C.3       1 <0>        -0.0425
     15 H2         -0.9614    1.8843    0.0259 H         1 <0>         0.1229
     16 H3          1.1388    3.1629    0.0083 H         1 <0>         0.1256
     17 H4          3.3020    2.0056   -0.0198 H         1 <0>         0.1194
     18 H5         -0.9252   -0.5577    0.0086 H         1 <0>         0.1211
     19 H6          4.1088   -3.6271   -1.0567 H         1 <0>         0.0518
     20 H7          4.5651   -3.3710    0.6473 H         1 <0>         0.0906
     21 H8          3.2861   -5.4169    0.2954 H         1 <0>         0.3535
     22 H9          1.8330   -4.4399   -1.4969 H         1 <0>         0.0367
     23 H10         1.0338   -5.4347   -0.2558 H         1 <0>         0.0824
     24 H11         0.3182   -3.4712    0.9706 H         1 <0>         0.0782
     25 H12        -0.0865   -3.1773   -0.7416 H         1 <0>         0.0748
@<TRIPOS>BOND
     1    1    6 ar
     2    1    2 ar
     3    1   15 1
     4    2    3 ar
     5    2   16 1
     6    3    4 ar
     7    3   17 1
     8    4    9 1
     9    4    5 ar
    10    5    6 ar
    11    5    7 1
    12    6   18 1
    13    7   14 1
    14    7    8 2
    15    8    9 1
    16    8   11 1
    17    9   10 1
    18   11   12 1
    19   11   19 1
    20   11   20 1
    21   12   13 1
    22   12   21 1
    23   13   14 1
    24   13   22 1
    25   13   23 1
    26   14   24 1
    27   14   25 1
@<TRIPOS>MOLECULE
ZINC11919626
   27    29     0     0     0
SMALL
USER_CHARGES
8-methoxy-4,9-dihydro-3H-pyrido[3,4-b]indole
@<TRIPOS>ATOM
      1 C1         -1.6812    7.1992    0.0466 C.3       1 <0>         0.0296
      2 O1         -0.7664    6.1014    0.0344 O.3       1 <0>        -0.3198
      3 C2         -1.3019    4.8516    0.0345 C.ar      1 <0>         0.1218
      4 C3         -2.6756    4.6505    0.0369 C.ar      1 <0>        -0.1940
      5 C4         -3.2335    3.3823    0.0353 C.ar      1 <0>        -0.1046
      6 C5         -2.4674    2.2456    0.0267 C.ar      1 <0>        -0.1044
      7 C6         -1.0725    2.4120    0.0196 C.ar      1 <0>        -0.0589
      8 C7         -0.4949    3.7111    0.0231 C.ar      1 <0>         0.0771
      9 N1          0.8659    3.5617    0.0098 N.pl3     1 <0>        -0.5451
     10 H1          1.5155    4.2821    0.0062 H         1 <0>         0.4254
     11 C8          1.1549    2.2223    0.0030 C.2       1 <0>         0.0272
     12 C9         -0.0184    1.5030    0.0103 C.2       1 <0>        -0.1454
     13 C10         0.0021   -0.0041    0.0020 C.3       1 <0>        -0.0727
     14 C11         1.2587   -0.4672   -0.7372 C.3       1 <0>         0.0380
     15 N2          2.4509    0.2677   -0.3413 N.2       1 <0>        -0.5033
     16 C12         2.4488    1.5233   -0.0090 C.2       1 <0>         0.2107
     17 H2         -2.3006    7.1460    0.9419 H         1 <0>         0.0580
     18 H3         -1.1243    8.1362    0.0452 H         1 <0>         0.1017
     19 H4         -2.3163    7.1527   -0.8380 H         1 <0>         0.0579
     20 H5         -3.3299    5.5097    0.0437 H         1 <0>         0.1276
     21 H6         -4.3092    3.2860    0.0408 H         1 <0>         0.1228
     22 H7         -2.9172    1.2637    0.0256 H         1 <0>         0.1322
     23 H8          0.0217   -0.3758    1.0265 H         1 <0>         0.0779
     24 H9         -0.8855   -0.3797   -0.5070 H         1 <0>         0.0878
     25 H10         1.4154   -1.5266   -0.5341 H         1 <0>         0.0985
     26 H11         1.1054   -0.3343   -1.8081 H         1 <0>         0.0824
     27 H12         3.3640    2.0354    0.2489 H         1 <0>         0.1712
@<TRIPOS>BOND
     1    1    2 1
     2    1   17 1
     3    1   18 1
     4    1   19 1
     5    2    3 1
     6    3    8 ar
     7    3    4 ar
     8    4    5 ar
     9    4   20 1
    10    5    6 ar
    11    5   21 1
    12    6    7 ar
    13    6   22 1
    14    7   12 1
    15    7    8 ar
    16    8    9 1
    17    9   10 1
    18    9   11 1
    19   11   16 1
    20   11   12 2
    21   12   13 1
    22   13   14 1
    23   13   23 1
    24   13   24 1
    25   14   15 1
    26   14   25 1
    27   14   26 1
    28   15   16 2
    29   16   27 1
@<TRIPOS>MOLECULE
ZINC18847046
   29    31     0     0     0
SMALL
USER_CHARGES

@<TRIPOS>ATOM
      1 C1         -0.0184    1.5028    0.0103 C.3       1 <0>        -0.1424
      2 C2          0.0021   -0.0041    0.0020 C.ar      1 <0>         0.1556
      3 C3          0.0057   -0.6865   -1.2084 C.ar      1 <0>         0.1146
      4 C4          0.0254   -2.0919   -1.1857 C.ar      1 <0>         0.0189
      5 C5          0.0408   -2.7431    0.0474 C.ar      1 <0>        -0.0789
      6 C6          0.0361   -1.9836    1.1979 C.ar      1 <0>         0.0838
      7 N1          0.0219   -0.6634    1.1422 N.ar      1 <0>        -0.4304
      8 C7          0.0239   -2.5347   -2.5884 C.ar      1 <0>        -0.1673
      9 C8          0.0375   -3.7874   -3.2002 C.ar      1 <0>         0.0049
     10 C9          0.0309   -3.8808   -4.5734 C.ar      1 <0>        -0.2172
     11 C10         0.0111   -2.7283   -5.3537 C.ar      1 <0>         0.2058
     12 C11        -0.0026   -1.4801   -4.7588 C.ar      1 <0>        -0.1848
     13 C12         0.0034   -1.3698   -3.3723 C.ar      1 <0>         0.2065
     14 N2         -0.0072   -0.2742   -2.5278 N.pl3     1 <0>        -0.5835
     15 H1         -0.0219    0.6508   -2.8196 H         1 <0>         0.4355
     16 O1          0.0057   -2.8305   -6.7086 O.3       1 <0>        -0.3026
     17 C13         0.0210   -4.1488   -7.2598 C.3       1 <0>         0.0197
     18 H2          1.0042    1.8801    0.0026 H         1 <0>         0.1154
     19 H3         -0.5455    1.8639   -0.8728 H         1 <0>         0.1057
     20 H4         -0.5286    1.8543    0.9071 H         1 <0>         0.1048
     21 H5          0.0557   -3.8217    0.1000 H         1 <0>         0.1843
     22 H6          0.0478   -2.4751    2.1595 H         1 <0>         0.2108
     23 H7          0.0536   -4.6834   -2.5974 H         1 <0>         0.1456
     24 H8          0.0415   -4.8513   -5.0470 H         1 <0>         0.1504
     25 H9         -0.0176   -0.5905   -5.3710 H         1 <0>         0.1490
     26 H10         0.9199   -4.6699   -6.9305 H         1 <0>         0.0657
     27 H11        -0.8598   -4.6944   -6.9214 H         1 <0>         0.0657
     28 H12         0.0146   -4.0877   -8.3481 H         1 <0>         0.1130
     29 H13         0.0229   -0.1610    1.9720 H         1 <0>         0.4514
@<TRIPOS>BOND
     1    1    2 1
     2    1   18 1
     3    1   19 1
     4    1   20 1
     5    2    7 ar
     6    2    3 ar
     7    3   14 1
     8    3    4 ar
     9    4    5 ar
    10    4    8 1
    11    5    6 ar
    12    5   21 1
    13    6    7 ar
    14    6   22 1
    15    7   29 1
    16    8   13 ar
    17    8    9 ar
    18    9   10 ar
    19    9   23 1
    20   10   11 ar
    21   10   24 1
    22   11   12 ar
    23   11   16 1
    24   12   13 ar
    25   12   25 1
    26   13   14 1
    27   14   15 1
    28   16   17 1
    29   17   26 1
    30   17   27 1
    31   17   28 1
@<TRIPOS>MOLECULE
ZINC25963555
   29    31     0     0     0
SMALL
USER_CHARGES

@<TRIPOS>ATOM
      1 C1         -0.0173    1.4248    0.0099 C.3       1 <0>         0.0296
      2 O1          0.0021   -0.0041    0.0020 O.3       1 <0>        -0.3259
      3 C2         -1.2008   -0.6377    0.0101 C.ar      1 <0>         0.1233
      4 C3         -2.3716    0.0968    0.0195 C.ar      1 <0>        -0.1996
      5 C4         -3.6041   -0.5410    0.0278 C.ar      1 <0>        -0.1035
      6 C5         -3.6812   -1.9047    0.0273 C.ar      1 <0>        -0.1097
      7 C6         -2.5118   -2.6706    0.0180 C.ar      1 <0>        -0.0600
      8 C7         -1.2578   -2.0312    0.0032 C.ar      1 <0>         0.0714
      9 N1         -0.2936   -3.0185   -0.0114 N.pl3     1 <0>        -0.5725
     10 H1          0.6637   -2.8623   -0.0202 H         1 <0>         0.4180
     11 C8         -0.8870   -4.2461   -0.0112 C.2       1 <0>         0.0471
     12 C9         -2.2278   -4.0996    0.0144 C.2       1 <0>        -0.1812
     13 C10        -3.1963   -5.2546    0.0177 C.3       1 <0>        -0.0803
     14 C11        -2.4233   -6.5197   -0.3814 C.3       1 <0>         0.0534
     15 N2         -1.1908   -6.6114    0.4138 N.3       1 <0>        -0.6744
     16 C12        -0.2077   -5.5961   -0.0205 C.3       1 <0>         0.1215
     17 H2          1.0053    1.8021    0.0021 H         1 <0>         0.1000
     18 H3         -0.5445    1.7859   -0.8732 H         1 <0>         0.0570
     19 H4         -0.5275    1.7763    0.9067 H         1 <0>         0.0570
     20 H5         -2.3270    1.1759    0.0208 H         1 <0>         0.1312
     21 H6         -4.5105    0.0462    0.0351 H         1 <0>         0.1259
     22 H7         -4.6454   -2.3912    0.0345 H         1 <0>         0.1229
     23 H8         -3.6181   -5.3794    1.0150 H         1 <0>         0.0723
     24 H9         -3.9948   -5.0684   -0.7006 H         1 <0>         0.0784
     25 H10        -3.0421   -7.3975   -0.1953 H         1 <0>         0.0854
     26 H11        -2.1697   -6.4716   -1.4404 H         1 <0>         0.0768
     27 H12        -1.3911   -6.5424    1.4004 H         1 <0>         0.3497
     28 H13         0.1546   -5.8178   -1.0243 H         1 <0>         0.0974
     29 H14         0.6281   -5.5913    0.6792 H         1 <0>         0.0889
@<TRIPOS>BOND
     1    1    2 1
     2    1   17 1
     3    1   18 1
     4    1   19 1
     5    2    3 1
     6    3    8 ar
     7    3    4 ar
     8    4    5 ar
     9    4   20 1
    10    5    6 ar
    11    5   21 1
    12    6    7 ar
    13    6   22 1
    14    7   12 1
    15    7    8 ar
    16    8    9 1
    17    9   10 1
    18    9   11 1
    19   11   16 1
    20   11   12 2
    21   12   13 1
    22   13   14 1
    23   13   23 1
    24   13   24 1
    25   14   15 1
    26   14   25 1
    27   14   26 1
    28   15   16 1
    29   15   27 1
    30   16   28 1
    31   16   29 1
@<TRIPOS>MOLECULE
ZINC00093391
   27    28     0     0     0
SMALL
USER_CHARGES
7-methoxy-3,4-dimethyl-chromen-2-one
@<TRIPOS>ATOM
      1 C1          4.9983    0.0870   -0.0447 C.3       1 <0>        -0.1299
      2 C2          3.6888   -0.6587   -0.0367 C.2       1 <0>         0.0293
      3 C3          3.6592   -2.0168   -0.0438 C.2       1 <0>        -0.2316
      4 C4          2.4211   -2.6914   -0.0355 C.2       1 <0>         0.5161
      5 O1          2.4089   -3.9093   -0.0420 O.2       1 <0>        -0.4590
      6 O2          1.2555   -2.0259   -0.0212 O.3       1 <0>        -0.2692
      7 C5          1.2145   -0.6763   -0.0132 C.ar      1 <0>         0.1860
      8 C6          2.4135    0.0610   -0.0206 C.ar      1 <0>        -0.1864
      9 C7          2.3758    1.4598   -0.0132 C.ar      1 <0>        -0.0157
     10 C8          1.1734    2.1057    0.0022 C.ar      1 <0>        -0.2255
     11 C9         -0.0167    1.3814    0.0096 C.ar      1 <0>         0.1847
     12 C10         0.0021   -0.0041    0.0020 C.ar      1 <0>        -0.1747
     13 O3         -1.2045    2.0384    0.0188 O.3       1 <0>        -0.3063
     14 C11        -1.1559    3.4665    0.0263 C.3       1 <0>         0.0232
     15 C12         4.9464   -2.8004   -0.0598 C.3       1 <0>        -0.0968
     16 H1          5.3237    0.2610    0.9810 H         1 <0>         0.0914
     17 H2          5.7496   -0.5036   -0.5690 H         1 <0>         0.0876
     18 H3          4.8689    1.0431   -0.5519 H         1 <0>         0.0791
     19 H4          3.2951    2.0265   -0.0188 H         1 <0>         0.1439
     20 H5          1.1445    3.1853    0.0079 H         1 <0>         0.1420
     21 H6         -0.9247   -0.5585    0.0082 H         1 <0>         0.1529
     22 H7         -2.1706    3.8646    0.0333 H         1 <0>         0.1072
     23 H8         -0.6258    3.8074    0.9157 H         1 <0>         0.0616
     24 H9         -0.6342    3.8170   -0.8642 H         1 <0>         0.0616
     25 H10         5.2662   -2.9948    0.9639 H         1 <0>         0.0754
     26 H11         4.7892   -3.7467   -0.5773 H         1 <0>         0.0772
     27 H12         5.7148   -2.2263   -0.5776 H         1 <0>         0.0759
@<TRIPOS>BOND
     1    1    2 1
     2    1   16 1
     3    1   17 1
     4    1   18 1
     5    2    8 1
     6    2    3 2
     7    3    4 1
     8    3   15 1
     9    4    5 2
    10    4    6 1
    11    6    7 1
    12    7   12 ar
    13    7    8 ar
    14    8    9 ar
    15    9   10 ar
    16    9   19 1
    17   10   11 ar
    18   10   20 1
    19   11   12 ar
    20   11   13 1
    21   12   21 1
    22   13   14 1
    23   14   22 1
    24   14   23 1
    25   14   24 1
    26   15   25 1
    27   15   26 1
    28   15   27 1
@<TRIPOS>MOLECULE
ZINC00454021
   37    39     0     0     0
SMALL
USER_CHARGES
7-[(4-chlorophenyl)methoxy]-3,4-dimethyl-chromen-2-one
@<TRIPOS>ATOM
      1 C1          1.4763    1.5789    2.4328 C.3       1 <0>        -0.1290
      2 C2         -0.0134    1.8021    2.3862 C.2       1 <0>         0.0294
      3 C3         -0.7181    1.5718    1.2479 C.2       1 <0>        -0.2309
      4 C4         -2.1103    1.7942    1.2278 C.2       1 <0>         0.5159
      5 O1         -2.7291    1.5889    0.1990 O.2       1 <0>        -0.4586
      6 O2         -2.7719    2.2213    2.3147 O.3       1 <0>        -0.2692
      7 C5         -2.1317    2.4688    3.4775 C.ar      1 <0>         0.1868
      8 C6         -0.7405    2.2736    3.5666 C.ar      1 <0>        -0.1857
      9 C7         -0.0729    2.5298    4.7694 C.ar      1 <0>        -0.0148
     10 C8         -0.7750    2.9682    5.8547 C.ar      1 <0>        -0.2264
     11 C9         -2.1522    3.1633    5.7726 C.ar      1 <0>         0.1871
     12 C10        -2.8291    2.9150    4.5894 C.ar      1 <0>        -0.1732
     13 O3         -2.8362    3.6006    6.8605 O.3       1 <0>        -0.2982
     14 C11        -2.0803    3.8381    8.0498 C.3       1 <0>         0.0996
     15 C12        -3.0011    4.3149    9.1434 C.ar      1 <0>        -0.0981
     16 C13        -3.2375    5.6671    9.3068 C.ar      1 <0>        -0.0801
     17 C14        -4.0863    6.1047   10.3060 C.ar      1 <0>        -0.1131
     18 C15        -4.6905    5.1898   11.1499 C.ar      1 <0>        -0.0226
     19 C16        -4.4490    3.8370   10.9894 C.ar      1 <0>        -0.1132
     20 C17        -3.6045    3.4003    9.9862 C.ar      1 <0>        -0.0800
     21 Cl1        -5.7516    5.7391   12.4093 Cl        1 <0>        -0.0625
     22 C18        -0.0127    1.0858    0.0080 C.3       1 <0>        -0.0963
     23 H1          1.9904    2.4979    2.1513 H         1 <0>         0.0911
     24 H2          1.7695    1.2934    3.4431 H         1 <0>         0.0801
     25 H3          1.7465    0.7839    1.7378 H         1 <0>         0.0859
     26 H4          0.9944    2.3803    4.8390 H         1 <0>         0.1442
     27 H5         -0.2596    3.1659    6.7830 H         1 <0>         0.1417
     28 H6         -3.8968    3.0683    4.5337 H         1 <0>         0.1528
     29 H7         -1.5938    2.9139    8.3617 H         1 <0>         0.0803
     30 H8         -1.3243    4.5985    7.8540 H         1 <0>         0.0803
     31 H9         -2.7623    6.3814    8.6508 H         1 <0>         0.1359
     32 H10        -4.2744    7.1608   10.4308 H         1 <0>         0.1386
     33 H11        -4.9207    3.1224   11.6476 H         1 <0>         0.1386
     34 H12        -3.4162    2.3443    9.8606 H         1 <0>         0.1359
     35 H13         0.0021   -0.0041    0.0020 H         1 <0>         0.0752
     36 H14         1.0099    1.4631    0.0003 H         1 <0>         0.0744
     37 H15        -0.5399    1.4469   -0.8751 H         1 <0>         0.0781
@<TRIPOS>BOND
     1    1    2 1
     2    1   23 1
     3    1   24 1
     4    1   25 1
     5    2    8 1
     6    2    3 2
     7    3    4 1
     8    3   22 1
     9    4    5 2
    10    4    6 1
    11    6    7 1
    12    7   12 ar
    13    7    8 ar
    14    8    9 ar
    15    9   10 ar
    16    9   26 1
    17   10   11 ar
    18   10   27 1
    19   11   12 ar
    20   11   13 1
    21   12   28 1
    22   13   14 1
    23   14   15 1
    24   14   29 1
    25   14   30 1
    26   15   20 ar
    27   15   16 ar
    28   16   17 ar
    29   16   31 1
    30   17   18 ar
    31   17   32 1
    32   18   19 ar
    33   18   21 1
    34   19   20 ar
    35   19   33 1
    36   20   34 1
    37   22   35 1
    38   22   36 1
    39   22   37 1
@<TRIPOS>MOLECULE
ZINC00454677
   37    39     0     0     0
SMALL
USER_CHARGES
7-[(4-fluorophenyl)methoxy]-3,4-dimethyl-chromen-2-one
@<TRIPOS>ATOM
      1 C1          1.4763    1.5789    2.4328 C.3       1 <0>        -0.1290
      2 C2         -0.0134    1.8021    2.3862 C.2       1 <0>         0.0295
      3 C3         -0.7181    1.5718    1.2479 C.2       1 <0>        -0.2311
      4 C4         -2.1103    1.7942    1.2278 C.2       1 <0>         0.5159
      5 O1         -2.7291    1.5889    0.1990 O.2       1 <0>        -0.4587
      6 O2         -2.7719    2.2213    2.3147 O.3       1 <0>        -0.2692
      7 C5         -2.1317    2.4688    3.4775 C.ar      1 <0>         0.1867
      8 C6         -0.7405    2.2736    3.5666 C.ar      1 <0>        -0.1860
      9 C7         -0.0729    2.5298    4.7694 C.ar      1 <0>        -0.0148
     10 C8         -0.7750    2.9682    5.8547 C.ar      1 <0>        -0.2265
     11 C9         -2.1522    3.1633    5.7726 C.ar      1 <0>         0.1873
     12 C10        -2.8291    2.9150    4.5894 C.ar      1 <0>        -0.1735
     13 O3         -2.8362    3.6006    6.8605 O.3       1 <0>        -0.2987
     14 C11        -2.0803    3.8381    8.0498 C.3       1 <0>         0.1012
     15 C12        -3.0011    4.3149    9.1434 C.ar      1 <0>        -0.1139
     16 C13        -3.2373    5.6672    9.3066 C.ar      1 <0>        -0.0631
     17 C14        -4.0852    6.1054   10.3061 C.ar      1 <0>        -0.1567
     18 C15        -4.6900    5.1900   11.1507 C.ar      1 <0>         0.1135
     19 C16        -4.4486    3.8362   10.9896 C.ar      1 <0>        -0.1567
     20 C17        -3.6044    3.4001    9.9861 C.ar      1 <0>        -0.0630
     21 F1         -5.5154    5.6175   12.1311 F         1 <0>        -0.1352
     22 C18        -0.0127    1.0858    0.0080 C.3       1 <0>        -0.0963
     23 H1          1.9904    2.4979    2.1513 H         1 <0>         0.0911
     24 H2          1.7695    1.2934    3.4431 H         1 <0>         0.0802
     25 H3          1.7465    0.7839    1.7378 H         1 <0>         0.0859
     26 H4          0.9944    2.3803    4.8390 H         1 <0>         0.1441
     27 H5         -0.2596    3.1659    6.7830 H         1 <0>         0.1418
     28 H6         -3.8968    3.0683    4.5337 H         1 <0>         0.1528
     29 H7         -1.5938    2.9139    8.3617 H         1 <0>         0.0800
     30 H8         -1.3243    4.5985    7.8540 H         1 <0>         0.0800
     31 H9         -2.7622    6.3812    8.6502 H         1 <0>         0.1366
     32 H10        -4.2728    7.1616   10.4308 H         1 <0>         0.1407
     33 H11        -4.9200    3.1213   11.6477 H         1 <0>         0.1407
     34 H12        -3.4162    2.3441    9.8600 H         1 <0>         0.1366
     35 H13         0.0021   -0.0041    0.0020 H         1 <0>         0.0751
     36 H14         1.0099    1.4631    0.0003 H         1 <0>         0.0744
     37 H15        -0.5399    1.4469   -0.8751 H         1 <0>         0.0781
@<TRIPOS>BOND
     1    1    2 1
     2    1   23 1
     3    1   24 1
     4    1   25 1
     5    2    8 1
     6    2    3 2
     7    3    4 1
     8    3   22 1
     9    4    5 2
    10    4    6 1
    11    6    7 1
    12    7   12 ar
    13    7    8 ar
    14    8    9 ar
    15    9   10 ar
    16    9   26 1
    17   10   11 ar
    18   10   27 1
    19   11   12 ar
    20   11   13 1
    21   12   28 1
    22   13   14 1
    23   14   15 1
    24   14   29 1
    25   14   30 1
    26   15   20 ar
    27   15   16 ar
    28   16   17 ar
    29   16   31 1
    30   17   18 ar
    31   17   32 1
    32   18   19 ar
    33   18   21 1
    34   19   20 ar
    35   19   33 1
    36   20   34 1
    37   22   35 1
    38   22   36 1
    39   22   37 1
@<TRIPOS>MOLECULE
ZINC00403035
   28    28     0     0     0
SMALL
USER_CHARGES

@<TRIPOS>ATOM
      1 C1         -0.0187    1.5258    0.0104 C.3       1 <0>        -0.1848
      2 C2          0.0021   -0.0041    0.0020 C.3       1 <0>         0.0317
      3 H1          0.5293   -0.3651    0.8851 H         1 <0>         0.1415
      4 C3         -1.4333   -0.5336    0.0129 C.3       1 <0>        -0.0939
      5 C4         -1.4136   -2.0361    0.1285 C.ar      1 <0>        -0.1729
      6 C5         -1.3741   -2.8156   -1.0128 C.ar      1 <0>        -0.0992
      7 C6         -1.3564   -4.1931   -0.9096 C.ar      1 <0>        -0.1442
      8 C7         -1.3778   -4.7941    0.3406 C.ar      1 <0>         0.1478
      9 C8         -1.4169   -4.0097    1.4842 C.ar      1 <0>        -0.1999
     10 C9         -1.4293   -2.6326    1.3757 C.ar      1 <0>        -0.0609
     11 O1         -1.3609   -6.1490    0.4448 O.3       1 <0>        -0.3108
     12 C10        -1.3847   -6.6986    1.7637 C.3       1 <0>         0.0222
     13 N1          0.6897   -0.4778   -1.2066 N.4       1 <0>        -0.6382
     14 H2          1.0039    1.9031    0.0027 H         1 <0>         0.0838
     15 H3         -0.5459    1.8868   -0.8726 H         1 <0>         0.0832
     16 H4         -0.5289    1.8773    0.9072 H         1 <0>         0.1074
     17 H5         -1.9701   -0.1109    0.8621 H         1 <0>         0.1185
     18 H6         -1.9334   -0.2470   -0.9122 H         1 <0>         0.0970
     19 H7         -1.3574   -2.3472   -1.9858 H         1 <0>         0.1285
     20 H8         -1.3262   -4.8016   -1.8013 H         1 <0>         0.1400
     21 H9         -1.4337   -4.4753    2.4586 H         1 <0>         0.1378
     22 H10        -1.4553   -2.0214    2.2658 H         1 <0>         0.1323
     23 H11        -0.5126   -6.3513    2.3178 H         1 <0>         0.0606
     24 H12        -2.2919   -6.3768    2.2751 H         1 <0>         0.0617
     25 H13        -1.3676   -7.7868    1.7042 H         1 <0>         0.1100
     26 H14         1.6363   -0.1286   -1.2138 H         1 <0>         0.4358
     27 H15         0.7033   -1.4867   -1.2121 H         1 <0>         0.4335
     28 H16         0.2017   -0.1436   -2.0240 H         1 <0>         0.4318
@<TRIPOS>BOND
     1    1    2 1
     2    1   14 1
     3    1   15 1
     4    1   16 1
     5    2    3 1
     6    2    4 1
     7    2   13 1
     8    4    5 1
     9    4   17 1
    10    4   18 1
    11    5   10 ar
    12    5    6 ar
    13    6    7 ar
    14    6   19 1
    15    7    8 ar
    16    7   20 1
    17    8    9 ar
    18    8   11 1
    19    9   10 ar
    20    9   21 1
    21   10   22 1
    22   11   12 1
    23   12   23 1
    24   12   24 1
    25   12   25 1
    26   13   26 1
    27   13   27 1
    28   13   28 1
@<TRIPOS>MOLECULE
ZINC00403036
   28    28     0     0     0
SMALL
USER_CHARGES

@<TRIPOS>ATOM
      1 C1         -0.0187    1.5258    0.0104 C.3       1 <0>        -0.1848
      2 C2          0.0021   -0.0041    0.0020 C.3       1 <0>         0.0314
      3 H1          0.5293   -0.3651    0.8851 H         1 <0>         0.1424
      4 C3          0.7182   -0.4975   -1.2568 C.3       1 <0>        -0.0939
      5 C4          0.8473   -1.9981   -1.2057 C.ar      1 <0>        -0.1723
      6 C5          1.9587   -2.5757   -0.6201 C.ar      1 <0>        -0.0627
      7 C6          2.0796   -3.9510   -0.5724 C.ar      1 <0>        -0.1419
      8 C7          1.0844   -4.7527   -1.1124 C.ar      1 <0>         0.1479
      9 C8         -0.0299   -4.1708   -1.6990 C.ar      1 <0>        -0.2025
     10 C9         -0.1486   -2.7950   -1.7395 C.ar      1 <0>        -0.0977
     11 O1          1.2013   -6.1059   -1.0671 O.3       1 <0>        -0.3099
     12 C10         0.1385   -6.8685   -1.6426 C.3       1 <0>         0.0228
     13 N1         -1.3761   -0.5125    0.0124 N.4       1 <0>        -0.6382
     14 H2          1.0039    1.9031    0.0027 H         1 <0>         0.1078
     15 H3         -0.5459    1.8868   -0.8726 H         1 <0>         0.0828
     16 H4         -0.5289    1.8773    0.9072 H         1 <0>         0.0838
     17 H5          0.1430   -0.2121   -2.1375 H         1 <0>         0.0962
     18 H6          1.7103   -0.0491   -1.3098 H         1 <0>         0.1195
     19 H7          2.7331   -1.9511   -0.1999 H         1 <0>         0.1369
     20 H8          2.9482   -4.4016   -0.1156 H         1 <0>         0.1409
     21 H9         -0.8060   -4.7928   -2.1200 H         1 <0>         0.1370
     22 H10        -1.0180   -2.3415   -2.1921 H         1 <0>         0.1241
     23 H11        -0.7943   -6.6377   -1.1280 H         1 <0>         0.0593
     24 H12         0.0423   -6.6180   -2.6990 H         1 <0>         0.0610
     25 H13         0.3569   -7.9314   -1.5396 H         1 <0>         0.1099
     26 H14        -1.8641   -0.1783   -0.8050 H         1 <0>         0.4314
     27 H15        -1.3624   -1.5214    0.0069 H         1 <0>         0.4330
     28 H16        -1.8484   -0.1871    0.8426 H         1 <0>         0.4358
@<TRIPOS>BOND
     1    1    2 1
     2    1   14 1
     3    1   15 1
     4    1   16 1
     5    2    3 1
     6    2    4 1
     7    2   13 1
     8    4    5 1
     9    4   17 1
    10    4   18 1
    11    5   10 ar
    12    5    6 ar
    13    6    7 ar
    14    6   19 1
    15    7    8 ar
    16    7   20 1
    17    8    9 ar
    18    8   11 1
    19    9   10 ar
    20    9   21 1
    21   10   22 1
    22   11   12 1
    23   12   23 1
    24   12   24 1
    25   12   25 1
    26   13   26 1
    27   13   27 1
    28   13   28 1
