@<TRIPOS>MOLECULE
ZINC03809416
   38    40     0     0     0
SMALL
USER_CHARGES

@<TRIPOS>ATOM
      1 C1         -0.0178    1.4608    0.0101 C.3       1 <0>         0.0683
      2 N1          0.0021   -0.0041    0.0020 N.pl3     1 <0>        -0.4076
      3 C2          0.0086   -0.8126   -1.0981 C.2       1 <0>         0.3219
      4 N2          0.0273   -2.0762   -0.7086 N.2       1 <0>        -0.4878
      5 C3          0.0336   -2.1396    0.6207 C.2       1 <0>         0.3242
      6 C4          0.0238   -0.8345    1.1065 C.2       1 <0>        -0.1479
      7 C5          0.0334   -0.6204    2.5005 C.2       1 <0>         0.5944
      8 O1          0.0219    0.5119    2.9498 O.2       1 <0>        -0.5124
      9 N3          0.0551   -1.6834    3.3309 N.am      1 <0>        -0.5517
     10 C6          0.0676   -2.9383    2.8497 C.2       1 <0>         0.7075
     11 O2          0.0871   -3.8714    3.6292 O.2       1 <0>        -0.5312
     12 N4          0.0510   -3.1889    1.5272 N.am      1 <0>        -0.5112
     13 C7          0.0679   -4.5721    1.0446 C.3       1 <0>         0.0892
     14 C8          0.0656   -1.4666    4.7797 C.3       1 <0>         0.0837
     15 C9         -0.0040   -0.3532   -2.4893 C.2       1 <0>        -0.1128
     16 C10         0.0042   -1.2498   -3.4949 C.2       1 <0>        -0.0263
     17 C11        -0.0084   -0.7882   -4.8930 C.ar      1 <0>        -0.0596
     18 C12        -0.0231    0.5802   -5.1810 C.ar      1 <0>        -0.1011
     19 C13        -0.0350    1.0055   -6.4925 C.ar      1 <0>        -0.1060
     20 C14        -0.0323    0.0822   -7.5234 C.ar      1 <0>        -0.0999
     21 C15        -0.0182   -1.2748   -7.2469 C.ar      1 <0>        -0.0359
     22 C16         0.0001   -1.7155   -5.9389 C.ar      1 <0>        -0.0865
     23 Cl1        -0.0155   -2.4239   -8.5482 Cl        1 <0>        -0.0625
     24 H1          1.0048    1.8381    0.0023 H         1 <0>         0.0891
     25 H2         -0.5450    1.8219   -0.8730 H         1 <0>         0.0963
     26 H3         -0.5280    1.8123    0.9069 H         1 <0>         0.1035
     27 H4          1.0996   -4.9013    0.9212 H         1 <0>         0.0734
     28 H5         -0.4347   -5.2151    1.7672 H         1 <0>         0.0940
     29 H6         -0.4488   -4.6289    0.0865 H         1 <0>         0.0922
     30 H7         -0.9593   -1.4263    5.1485 H         1 <0>         0.0770
     31 H8          0.5948   -2.2861    5.2659 H         1 <0>         0.0969
     32 H9          0.5692   -0.5259    5.0026 H         1 <0>         0.0950
     33 H10        -0.0198    0.7042   -2.7087 H         1 <0>         0.1430
     34 H11         0.0201   -2.3072   -3.2755 H         1 <0>         0.1434
     35 H12        -0.0256    1.3023   -4.3778 H         1 <0>         0.1330
     36 H13        -0.0467    2.0621   -6.7159 H         1 <0>         0.1372
     37 H14        -0.0416    0.4216   -8.5487 H         1 <0>         0.1367
     38 H15         0.0163   -2.7738   -5.7242 H         1 <0>         0.1406
@<TRIPOS>BOND
     1    1    2 1
     2    1   24 1
     3    1   25 1
     4    1   26 1
     5    2    6 1
     6    2    3 1
     7    3    4 2
     8    3   15 1
     9    4    5 1
    10    5   12 1
    11    5    6 2
    12    6    7 1
    13    7    8 2
    14    7    9 am
    15    9   10 am
    16    9   14 1
    17   10   11 2
    18   10   12 am
    19   12   13 1
    20   13   27 1
    21   13   28 1
    22   13   29 1
    23   14   30 1
    24   14   31 1
    25   14   32 1
    26   15   16 2
    27   15   33 1
    28   16   17 1
    29   16   34 1
    30   17   22 ar
    31   17   18 ar
    32   18   19 ar
    33   18   35 1
    34   19   20 ar
    35   19   36 1
    36   20   21 ar
    37   20   37 1
    38   21   22 ar
    39   21   23 1
    40   22   38 1
@<TRIPOS>MOLECULE
ZINC01529772
   40    42     0     0     0
SMALL
USER_CHARGES

@<TRIPOS>ATOM
      1 C1         -0.0164    1.3945    0.0259 C.ar      1 <0>        -0.0933
      2 C2          1.1676    2.0986    0.0210 C.ar      1 <0>        -0.1007
      3 C3          2.3820    1.4253    0.0117 C.ar      1 <0>         0.0407
      4 C4          2.4089    0.0292    0.0073 C.ar      1 <0>         0.0314
      5 C5          1.2272   -0.6841    0.0121 C.ar      1 <0>        -0.0826
      6 C6          0.0024   -0.0052    0.0217 C.ar      1 <0>        -0.0604
      7 C7         -1.2582   -0.7591    0.0272 C.2       1 <0>        -0.0594
      8 C8         -2.4410   -0.1003    0.0365 C.2       1 <0>        -0.1441
      9 C9         -3.6515   -0.8244    0.0418 C.2       1 <0>        -0.0150
     10 C10        -4.8378   -0.1636    0.0510 C.2       1 <0>        -0.2273
     11 C11        -6.0526   -0.8903    0.0564 C.2       1 <0>         0.5504
     12 O1         -6.0367   -2.1037   -0.0445 O.2       1 <0>        -0.5498
     13 N1         -7.2268   -0.2391    0.1731 N.am      1 <0>        -0.6114
     14 C12        -8.4868   -0.9842    0.2988 C.3       1 <0>         0.1103
     15 C13        -9.2283   -0.4922    1.5458 C.3       1 <0>        -0.1357
     16 C14        -9.4014    1.0263    1.4655 C.3       1 <0>        -0.1216
     17 C15        -8.0263    1.6968    1.4252 C.3       1 <0>        -0.1375
     18 C16        -7.2706    1.2295    0.1830 C.3       1 <0>         0.1038
     19 O2          3.7112   -0.3808   -0.0017 O.3       1 <0>        -0.3073
     20 C17         4.4727    0.7688   -0.4157 C.3       1 <0>         0.2125
     21 O3          3.6665    1.8845    0.0060 O.3       1 <0>        -0.3065
     22 H1         -0.9587    1.9221    0.0376 H         1 <0>         0.1433
     23 H2          1.1513    3.1785    0.0239 H         1 <0>         0.1399
     24 H3          1.2471   -1.7639    0.0089 H         1 <0>         0.1409
     25 H4         -1.2416   -1.8390    0.0239 H         1 <0>         0.1315
     26 H5         -2.4577    0.9795    0.0397 H         1 <0>         0.1251
     27 H6         -3.6349   -1.9042    0.0385 H         1 <0>         0.1318
     28 H7         -4.8544    0.9162    0.0543 H         1 <0>         0.1308
     29 H8         -9.1026   -0.8125   -0.5840 H         1 <0>         0.0669
     30 H9         -8.2736   -2.0487    0.3967 H         1 <0>         0.0927
     31 H10       -10.2077   -0.9678    1.5980 H         1 <0>         0.0762
     32 H11        -8.6521   -0.7461    2.4355 H         1 <0>         0.0664
     33 H12        -9.9564    1.2812    0.5626 H         1 <0>         0.0651
     34 H13        -9.9505    1.3759    2.3398 H         1 <0>         0.0667
     35 H14        -8.1502    2.7792    1.3916 H         1 <0>         0.0771
     36 H15        -7.4615    1.4222    2.3161 H         1 <0>         0.0677
     37 H16        -6.2552    1.6252    0.2045 H         1 <0>         0.0890
     38 H17        -7.7850    1.5858   -0.7095 H         1 <0>         0.0704
     39 H18         5.4416    0.7862    0.0834 H         1 <0>         0.1348
     40 H19         4.5986    0.7750   -1.4984 H         1 <0>         0.0873
@<TRIPOS>BOND
     1    1    6 ar
     2    1    2 ar
     3    1   22 1
     4    2    3 ar
     5    2   23 1
     6    3   21 1
     7    3    4 ar
     8    4    5 ar
     9    4   19 1
    10    5    6 ar
    11    5   24 1
    12    6    7 1
    13    7    8 2
    14    7   25 1
    15    8    9 1
    16    8   26 1
    17    9   10 2
    18    9   27 1
    19   10   11 1
    20   10   28 1
    21   11   12 2
    22   11   13 am
    23   13   18 1
    24   13   14 1
    25   14   15 1
    26   14   29 1
    27   14   30 1
    28   15   16 1
    29   15   31 1
    30   15   32 1
    31   16   17 1
    32   16   33 1
    33   16   34 1
    34   17   18 1
    35   17   35 1
    36   17   36 1
    37   18   37 1
    38   18   38 1
    39   19   20 1
    40   20   21 1
    41   20   39 1
    42   20   40 1
