@<TRIPOS>MOLECULE
ZINC09296550
   59    62     0     0     0
SMALL
USER_CHARGES
3-methoxy-4-[[2-[[2-methoxy-4-[(4-oxo-2-thioxo-thiazolidin-5-ylidene)methyl]phenoxy]methyl]phenyl]methoxy]benzaldehyde
@<TRIPOS>ATOM
      1 C1          2.8327    0.1380    7.7290 C.3       1 <0>         0.0239
      2 O1          2.2358    0.1050    6.4310 O.3       1 <0>        -0.3035
      3 C2          2.8442   -0.6669    5.4911 C.ar      1 <0>         0.0915
      4 C3          3.9833   -1.3779    5.8136 C.ar      1 <0>        -0.1320
      5 C4          4.6103   -2.1668    4.8414 C.ar      1 <0>        -0.1086
      6 C5          4.0751   -2.2346    3.5493 C.ar      1 <0>        -0.0318
      7 C6          2.9351   -1.5263    3.2386 C.ar      1 <0>        -0.1845
      8 C7          2.3144   -0.7444    4.2037 C.ar      1 <0>         0.1374
      9 O2          1.1904   -0.0483    3.8909 O.3       1 <0>        -0.2913
     10 C8          0.7047   -0.1679    2.5523 C.3       1 <0>         0.0967
     11 C9         -0.5392    0.6678    2.3928 C.ar      1 <0>        -0.0860
     12 C10        -1.0278    1.3917    3.4646 C.ar      1 <0>        -0.0932
     13 C11        -2.1684    2.1584    3.3182 C.ar      1 <0>        -0.1146
     14 C12        -2.8208    2.2015    2.1000 C.ar      1 <0>        -0.1146
     15 C13        -2.3301    1.4808    1.0275 C.ar      1 <0>        -0.0934
     16 C14        -1.1919    0.7101    1.1753 C.ar      1 <0>        -0.0865
     17 C15        -0.6593   -0.0790    0.0070 C.3       1 <0>         0.0964
     18 O3         -1.5005    0.1265   -1.1297 O.3       1 <0>        -0.2909
     19 C16        -1.1582   -0.5182   -2.2743 C.ar      1 <0>         0.1397
     20 C17        -0.0332   -1.3328   -2.3004 C.ar      1 <0>        -0.1913
     21 C18         0.3189   -1.9896   -3.4580 C.ar      1 <0>        -0.0491
     22 C19        -0.4576   -1.8367   -4.6129 C.ar      1 <0>        -0.1932
     23 C20        -1.5912   -1.0149   -4.5858 C.ar      1 <0>        -0.1230
     24 C21        -1.9403   -0.3651   -3.4191 C.ar      1 <0>         0.0881
     25 O4         -3.0438    0.4290   -3.3873 O.3       1 <0>        -0.3043
     26 C22        -3.7982    0.5401   -4.5958 C.3       1 <0>         0.0234
     27 C23        -0.0842   -2.5357   -5.8494 C.2       1 <0>         0.3843
     28 O5          0.8983   -3.2468   -5.8710 O.2       1 <0>        -0.4586
     29 C24         5.8250   -2.9209    5.1760 C.2       1 <0>         0.1089
     30 C25         6.8357   -3.0145    4.2746 C.2       1 <0>        -0.2558
     31 C26         7.0127   -2.3203    2.9834 C.2       1 <0>         0.5379
     32 O6          6.1914   -1.5239    2.5679 O.2       1 <0>        -0.4481
     33 N1          8.1088   -2.6073    2.3017 N.am      1 <0>        -0.6295
     34 C27         9.0165   -3.4901    2.7660 C.2       1 <0>         0.2790
     35 S1         10.4831   -3.9894    2.0377 S.2       1 <0>        -0.3205
     36 S2          8.3221   -4.0061    4.3280 S.3       1 <0>         0.0830
     37 H1          3.8509    0.5192    7.6510 H         1 <0>         0.0559
     38 H2          2.2499    0.7890    8.3805 H         1 <0>         0.1038
     39 H3          2.8528   -0.8691    8.1453 H         1 <0>         0.0569
     40 H4          4.3919   -1.3220    6.8118 H         1 <0>         0.1440
     41 H5          4.5555   -2.8422    2.7967 H         1 <0>         0.1284
     42 H6          2.5229   -1.5796    2.2418 H         1 <0>         0.1392
     43 H7          0.4707   -1.2116    2.3426 H         1 <0>         0.0789
     44 H8          1.4680    0.1803    1.8564 H         1 <0>         0.0789
     45 H9         -0.5180    1.3583    4.4161 H         1 <0>         0.1376
     46 H10        -2.5499    2.7242    4.1553 H         1 <0>         0.1267
     47 H11        -3.7118    2.8009    1.9855 H         1 <0>         0.1267
     48 H12        -2.8376    1.5174    0.0748 H         1 <0>         0.1374
     49 H13        -0.6444   -1.1389    0.2611 H         1 <0>         0.0792
     50 H14         0.3525    0.2533   -0.2249 H         1 <0>         0.0792
     51 H15         0.5665   -1.4515   -1.4101 H         1 <0>         0.1404
     52 H16         1.1936   -2.6228   -3.4751 H         1 <0>         0.1392
     53 H17        -2.1937   -0.8940   -5.4739 H         1 <0>         0.1460
     54 H18        -4.6495    1.2011   -4.4333 H         1 <0>         0.1039
     55 H19        -3.1652    0.9497   -5.3830 H         1 <0>         0.0571
     56 H20        -4.1554   -0.4459   -4.8931 H         1 <0>         0.0571
     57 H21        -0.6843   -2.4167   -6.7393 H         1 <0>         0.1059
     58 H22         5.9143   -3.4011    6.1392 H         1 <0>         0.1612
     59 H23         8.2634   -2.1733    1.4481 H         1 <0>         0.4304
@<TRIPOS>BOND
     1    1    2 1
     2    1   37 1
     3    1   38 1
     4    1   39 1
     5    2    3 1
     6    3    8 ar
     7    3    4 ar
     8    4    5 ar
     9    4   40 1
    10    5    6 ar
    11    5   29 1
    12    6    7 ar
    13    6   41 1
    14    7    8 ar
    15    7   42 1
    16    8    9 1
    17    9   10 1
    18   10   11 1
    19   10   43 1
    20   10   44 1
    21   11   16 ar
    22   11   12 ar
    23   12   13 ar
    24   12   45 1
    25   13   14 ar
    26   13   46 1
    27   14   15 ar
    28   14   47 1
    29   15   16 ar
    30   15   48 1
    31   16   17 1
    32   17   18 1
    33   17   49 1
    34   17   50 1
    35   18   19 1
    36   19   24 ar
    37   19   20 ar
    38   20   21 ar
    39   20   51 1
    40   21   22 ar
    41   21   52 1
    42   22   23 ar
    43   22   27 1
    44   23   24 ar
    45   23   53 1
    46   24   25 1
    47   25   26 1
    48   26   54 1
    49   26   55 1
    50   26   56 1
    51   27   28 2
    52   27   57 1
    53   29   30 2
    54   29   58 1
    55   30   36 1
    56   30   31 1
    57   31   32 2
    58   31   33 am
    59   33   34 1
    60   33   59 1
    61   34   35 2
    62   34   36 1
