@<TRIPOS>MOLECULE
ZINC01230938
   23    24     0     0     0
SMALL
USER_CHARGES
3-amino-5-[(4-chlorophenyl)methylene]-2-thioxo-thiazolidin-4-one
@<TRIPOS>ATOM
      1 C1          3.3783    3.8104   -0.7362 C.ar      1 <0>        -0.0714
      2 C2          4.4023    4.7272   -0.8371 C.ar      1 <0>        -0.1060
      3 C3          5.6623    4.4202   -0.3492 C.ar      1 <0>        -0.0073
      4 C4          5.9017    3.1931    0.2480 C.ar      1 <0>        -0.1124
      5 C5          4.8863    2.2680    0.3609 C.ar      1 <0>        -0.0588
      6 C6          3.6109    2.5708   -0.1295 C.ar      1 <0>        -0.0993
      7 C7          2.5230    1.5896   -0.0135 C.2       1 <0>         0.0976
      8 C8          1.2528    1.9446   -0.3308 C.2       1 <0>        -0.2428
      9 C9          0.0395    1.1074   -0.4386 C.2       1 <0>         0.5498
     10 O1          0.0695   -0.0917   -0.2336 O.2       1 <0>        -0.4384
     11 N1         -1.0792    1.7273   -0.7749 N.am      1 <0>        -0.3579
     12 C10        -1.1088    3.0572   -0.9967 C.2       1 <0>         0.2244
     13 S1         -2.4466    4.0326   -1.4322 S.2       1 <0>        -0.3341
     14 S2          0.5862    3.5535   -0.7341 S.3       1 <0>         0.0998
     15 N2         -2.2322    1.0049   -0.8952 N.3       1 <0>        -0.5985
     16 Cl1         6.9475    5.5792   -0.4863 Cl        1 <0>        -0.0505
     17 H1          2.3978    4.0493   -1.1209 H         1 <0>         0.1360
     18 H2          4.2233    5.6858   -1.3013 H         1 <0>         0.1467
     19 H3          6.8863    2.9610    0.6263 H         1 <0>         0.1463
     20 H4          5.0742    1.3120    0.8269 H         1 <0>         0.1480
     21 H5          2.7347    0.5859    0.3245 H         1 <0>         0.1701
     22 H6         -3.0055    1.5987   -1.1551 H         1 <0>         0.3893
     23 H7         -2.1186    0.2497   -1.5547 H         1 <0>         0.3694
@<TRIPOS>BOND
     1    1    6 ar
     2    1    2 ar
     3    1   17 1
     4    2    3 ar
     5    2   18 1
     6    3    4 ar
     7    3   16 1
     8    4    5 ar
     9    4   19 1
    10    5    6 ar
    11    5   20 1
    12    6    7 1
    13    7    8 2
    14    7   21 1
    15    8   14 1
    16    8    9 1
    17    9   10 2
    18    9   11 am
    19   11   12 1
    20   11   15 1
    21   12   13 2
    22   12   14 1
    23   15   22 1
    24   15   23 1
@<TRIPOS>MOLECULE
ZINC02022844
   24    25     0     0     0
SMALL
USER_CHARGES
5-[(4-chlorophenyl)methylene]-3-methyl-2-thioxo-thiazolidin-4-one
@<TRIPOS>ATOM
      1 C1          4.8324    0.8346    1.0473 C.3       1 <0>         0.0490
      2 N1          3.5441    1.5082    0.8667 N.am      1 <0>        -0.5226
      3 C2          2.4856    0.7956    0.5194 C.2       1 <0>         0.5457
      4 O1          2.5532   -0.4068    0.3450 O.2       1 <0>        -0.4548
      5 C3          1.2163    1.5346    0.3533 C.2       1 <0>        -0.2434
      6 C4         -0.0126    1.0758    0.0080 C.2       1 <0>         0.0908
      7 C5         -1.1739    1.9750    0.0599 C.ar      1 <0>        -0.0981
      8 C6         -1.0545    3.2454    0.6347 C.ar      1 <0>        -0.0730
      9 C7         -2.1468    4.0849    0.6754 C.ar      1 <0>        -0.1061
     10 C8         -3.3636    3.6698    0.1586 C.ar      1 <0>        -0.0085
     11 C9         -3.4909    2.4115   -0.4074 C.ar      1 <0>        -0.1126
     12 C10        -2.4062    1.5629   -0.4601 C.ar      1 <0>        -0.0606
     13 Cl1        -4.7354    4.7319    0.2199 Cl        1 <0>        -0.0514
     14 S1          1.7479    3.2004    0.7251 S.3       1 <0>         0.0784
     15 C11         3.4647    2.8405    1.0590 C.2       1 <0>         0.2566
     16 S2          4.7105    3.9259    1.5072 S.2       1 <0>        -0.3305
     17 H1          5.3724    0.8234    0.1006 H         1 <0>         0.0888
     18 H2          5.4199    1.3683    1.7944 H         1 <0>         0.1084
     19 H3          4.6635   -0.1891    1.3814 H         1 <0>         0.0995
     20 H4         -0.1369    0.0510   -0.3094 H         1 <0>         0.1681
     21 H5         -0.1078    3.5687    1.0417 H         1 <0>         0.1375
     22 H6         -2.0552    5.0672    1.1147 H         1 <0>         0.1462
     23 H7         -4.4423    2.0950   -0.8085 H         1 <0>         0.1457
     24 H8         -2.5068    0.5825   -0.9018 H         1 <0>         0.1471
@<TRIPOS>BOND
     1    1    2 1
     2    1   17 1
     3    1   18 1
     4    1   19 1
     5    2   15 1
     6    2    3 am
     7    3    4 2
     8    3    5 1
     9    5    6 2
    10    5   14 1
    11    6    7 1
    12    6   20 1
    13    7   12 ar
    14    7    8 ar
    15    8    9 ar
    16    8   21 1
    17    9   10 ar
    18    9   22 1
    19   10   11 ar
    20   10   13 1
    21   11   12 ar
    22   11   23 1
    23   12   24 1
    24   14   15 1
    25   15   16 2
@<TRIPOS>MOLECULE
ZINC12408973
   21    22     0     0     0
SMALL
USER_CHARGES
(5Z)-5-[(3-fluorophenyl)methylene]-2-thioxo-thiazolidin-4-one
@<TRIPOS>ATOM
      1 C1         -1.3045    3.7323    0.2441 C.ar      1 <0>        -0.0836
      2 C2         -0.0780    4.3108   -0.0062 C.ar      1 <0>        -0.0977
      3 C3          1.0961    3.6000    0.2655 C.ar      1 <0>        -0.0721
      4 C4          1.0162    2.3053    0.7901 C.ar      1 <0>        -0.1120
      5 C5         -0.2192    1.7396    1.0354 C.ar      1 <0>         0.1014
      6 C6         -1.3773    2.4497    0.7579 C.ar      1 <0>        -0.1234
      7 F1         -0.2998    0.4895    1.5414 F         1 <0>        -0.1307
      8 C7          2.4071    4.2102    0.0007 C.2       1 <0>         0.0913
      9 C8          2.4845    5.3875   -0.6678 C.2       1 <0>        -0.2425
     10 C9          3.6516    6.2654   -0.8988 C.2       1 <0>         0.5472
     11 O1          4.7561    5.9871   -0.4707 O.2       1 <0>        -0.4554
     12 N1          3.4334    7.3683   -1.5951 N.am      1 <0>        -0.6278
     13 C10         2.2078    7.6726   -2.0680 C.2       1 <0>         0.2576
     14 S1          1.7303    9.0394   -2.9817 S.2       1 <0>        -0.3218
     15 S2          1.2050    6.3011   -1.5187 S.3       1 <0>         0.0914
     16 H1         -2.2110    4.2804    0.0342 H         1 <0>         0.1468
     17 H2         -0.0238    5.3104   -0.4115 H         1 <0>         0.1358
     18 H3          1.9180    1.7502    1.0021 H         1 <0>         0.1497
     19 H4         -2.3412    2.0010    0.9478 H         1 <0>         0.1464
     20 H5          3.3086    3.7208    0.3386 H         1 <0>         0.1690
     21 H6          4.1719    7.9726   -1.7693 H         1 <0>         0.4303
@<TRIPOS>BOND
     1    1    6 ar
     2    1    2 ar
     3    1   16 1
     4    2    3 ar
     5    2   17 1
     6    3    4 ar
     7    3    8 1
     8    4    5 ar
     9    4   18 1
    10    5    6 ar
    11    5    7 1
    12    6   19 1
    13    8    9 2
    14    8   20 1
    15    9   15 1
    16    9   10 1
    17   10   11 2
    18   10   12 am
    19   12   13 1
    20   12   21 1
    21   13   14 2
    22   13   15 1
@<TRIPOS>MOLECULE
ZINC09188397
   34    36     0     0     0
SMALL
USER_CHARGES
3-methyl-5-[(4-phenylphenyl)methylene]-2-thioxo-thiazolidin-4-one
@<TRIPOS>ATOM
      1 C1         -2.3658    1.0163    0.6063 C.3       1 <0>         0.0493
      2 N1         -1.1071    1.7659    0.5911 N.am      1 <0>        -0.5227
      3 C2          0.0139    1.1398    0.2747 C.2       1 <0>         0.5457
      4 O1          0.0281   -0.0446   -0.0046 O.2       1 <0>        -0.4575
      5 C3          1.2477    1.9535    0.2717 C.2       1 <0>        -0.2512
      6 C4          2.5237    1.5893   -0.0137 C.2       1 <0>         0.0962
      7 C5          3.5735    2.6109   -0.1154 C.ar      1 <0>        -0.1072
      8 C6          3.2337    3.9697   -0.1026 C.ar      1 <0>        -0.0762
      9 C7          4.2127    4.9181   -0.1925 C.ar      1 <0>        -0.1109
     10 C8          5.5497    4.5341   -0.3078 C.ar      1 <0>        -0.0050
     11 C9          5.8906    3.1806   -0.3260 C.ar      1 <0>        -0.1174
     12 C10         4.9160    2.2282   -0.2311 C.ar      1 <0>        -0.0656
     13 C11         6.6093    5.5653   -0.4114 C.ar      1 <0>        -0.0621
     14 C12         7.9466    5.1862   -0.5214 C.ar      1 <0>        -0.1033
     15 C13         8.9282    6.1507   -0.6229 C.ar      1 <0>        -0.1189
     16 C14         8.5887    7.4917   -0.6046 C.ar      1 <0>        -0.1098
     17 C15         7.2641    7.8740   -0.4904 C.ar      1 <0>        -0.1182
     18 C16         6.2732    6.9184   -0.3935 C.ar      1 <0>        -0.1032
     19 S1          0.5972    3.5495    0.7463 S.3       1 <0>         0.0813
     20 C17        -1.1176    3.0775    0.9044 C.2       1 <0>         0.2565
     21 S2         -2.4533    4.0553    1.3410 S.2       1 <0>        -0.3393
     22 H1         -2.5279    0.5988    1.6001 H         1 <0>         0.0880
     23 H2         -3.1894    1.6841    0.3540 H         1 <0>         0.1079
     24 H3         -2.3163    0.2083   -0.1236 H         1 <0>         0.0991
     25 H4          2.7669    0.5481   -0.1661 H         1 <0>         0.1654
     26 H5          2.1990    4.2673   -0.0176 H         1 <0>         0.1309
     27 H6          3.9516    5.9660   -0.1790 H         1 <0>         0.1372
     28 H7          6.9258    2.8861   -0.4157 H         1 <0>         0.1367
     29 H8          5.1803    1.1812   -0.2450 H         1 <0>         0.1390
     30 H9          8.2133    4.1396   -0.5309 H         1 <0>         0.1274
     31 H10         9.9640    5.8582   -0.7126 H         1 <0>         0.1271
     32 H11         9.3608    8.2431   -0.6794 H         1 <0>         0.1256
     33 H12         7.0050    8.9223   -0.4767 H         1 <0>         0.1275
     34 H13         5.2395    7.2181   -0.3037 H         1 <0>         0.1278
@<TRIPOS>BOND
     1    1    2 1
     2    1   22 1
     3    1   23 1
     4    1   24 1
     5    2   20 1
     6    2    3 am
     7    3    4 2
     8    3    5 1
     9    5    6 2
    10    5   19 1
    11    6    7 1
    12    6   25 1
    13    7   12 ar
    14    7    8 ar
    15    8    9 ar
    16    8   26 1
    17    9   10 ar
    18    9   27 1
    19   10   11 ar
    20   10   13 1
    21   11   12 ar
    22   11   28 1
    23   12   29 1
    24   13   18 ar
    25   13   14 ar
    26   14   15 ar
    27   14   30 1
    28   15   16 ar
    29   15   31 1
    30   16   17 ar
    31   16   32 1
    32   17   18 ar
    33   17   33 1
    34   18   34 1
    35   19   20 1
    36   20   21 2
@<TRIPOS>MOLECULE
ZINC01251594
   24    25     0     0     0
SMALL
USER_CHARGES
5-[(3-fluorophenyl)methylene]-3-methyl-2-thioxo-thiazolidin-4-one
@<TRIPOS>ATOM
      1 C1         -4.5605    2.2745   -1.5710 C.3       1 <0>         0.0490
      2 N1         -3.1241    2.4844   -1.3734 N.am      1 <0>        -0.5227
      3 C2         -2.4159    1.5585   -0.7489 C.2       1 <0>         0.5455
      4 O1         -2.9261    0.5350   -0.3331 O.2       1 <0>        -0.4536
      5 C3         -0.9722    1.8307   -0.5822 C.2       1 <0>        -0.2398
      6 C4         -0.0126    1.0758    0.0080 C.2       1 <0>         0.0892
      7 C5          1.4015    1.4592   -0.1120 C.ar      1 <0>        -0.0711
      8 C6          1.7799    2.4876   -0.9826 C.ar      1 <0>        -0.0986
      9 C7          3.1071    2.8457   -1.0863 C.ar      1 <0>        -0.0836
     10 C8          4.0671    2.1844   -0.3403 C.ar      1 <0>        -0.1240
     11 C9          3.7026    1.1608    0.5203 C.ar      1 <0>         0.1012
     12 C10         2.3763    0.7942    0.6391 C.ar      1 <0>        -0.1124
     13 F1          4.6466    0.5201    1.2440 F         1 <0>        -0.1309
     14 S1         -0.8411    3.4321   -1.3658 S.3       1 <0>         0.0814
     15 C11        -2.5545    3.6170   -1.8329 C.2       1 <0>         0.2562
     16 S2         -3.2964    4.9206   -2.6582 S.2       1 <0>        -0.3296
     17 H1         -5.1076    2.6828   -0.7212 H         1 <0>         0.0889
     18 H2         -4.8790    2.7778   -2.4839 H         1 <0>         0.1085
     19 H3         -4.7636    1.2069   -1.6549 H         1 <0>         0.0996
     20 H4         -0.2869    0.1905    0.5624 H         1 <0>         0.1684
     21 H5          1.0332    3.0024   -1.5689 H         1 <0>         0.1363
     22 H6          3.3991    3.6420   -1.7549 H         1 <0>         0.1465
     23 H7          5.1057    2.4672   -0.4294 H         1 <0>         0.1462
     24 H8          2.0928   -0.0037    1.3095 H         1 <0>         0.1494
@<TRIPOS>BOND
     1    1    2 1
     2    1   17 1
     3    1   18 1
     4    1   19 1
     5    2   15 1
     6    2    3 am
     7    3    4 2
     8    3    5 1
     9    5    6 2
    10    5   14 1
    11    6    7 1
    12    6   20 1
    13    7   12 ar
    14    7    8 ar
    15    8    9 ar
    16    8   21 1
    17    9   10 ar
    18    9   22 1
    19   10   11 ar
    20   10   23 1
    21   11   12 ar
    22   11   13 1
    23   12   24 1
    24   14   15 1
    25   15   16 2
@<TRIPOS>MOLECULE
ZINC01206161
   30    32     0     0     0
SMALL
USER_CHARGES
3-methyl-5-(2-naphthylmethylene)-2-thioxo-thiazolidin-4-one
@<TRIPOS>ATOM
      1 C1          7.2891   -6.7058    1.7507 C.3       1 <0>         0.0495
      2 N1          6.1369   -5.8334    1.5105 N.am      1 <0>        -0.5232
      3 C2          6.3018   -4.7232    0.8113 C.2       1 <0>         0.5450
      4 O1          7.3870   -4.4061    0.3611 O.2       1 <0>        -0.4574
      5 C3          5.1003   -3.8874    0.6042 C.2       1 <0>        -0.2498
      6 C4          4.9681   -2.7127   -0.0618 C.2       1 <0>         0.0969
      7 C5          3.6339   -2.1371   -0.2782 C.ar      1 <0>        -0.1026
      8 C6          2.4902   -2.9502   -0.1438 C.ar      1 <0>        -0.1009
      9 C7          1.2489   -2.4406   -0.3393 C.ar      1 <0>        -0.0938
     10 C8          1.0886   -1.0843   -0.6808 C.ar      1 <0>        -0.0320
     11 C9         -0.1878   -0.5365   -0.8881 C.ar      1 <0>        -0.1108
     12 C10        -0.3130    0.7787   -1.2180 C.ar      1 <0>        -0.1012
     13 C11         0.8084    1.5948   -1.3543 C.ar      1 <0>        -0.1144
     14 C12         2.0615    1.1001   -1.1614 C.ar      1 <0>        -0.0983
     15 C13         2.2303   -0.2542   -0.8194 C.ar      1 <0>        -0.0622
     16 C14         3.5074   -0.7953   -0.6142 C.ar      1 <0>        -0.0454
     17 S1          3.8710   -4.8461    1.4791 S.3       1 <0>         0.0827
     18 C15         4.9324   -6.1813    2.0072 C.2       1 <0>         0.2609
     19 S2          4.5216   -7.5653    2.9274 S.2       1 <0>        -0.3374
     20 H1          7.7836   -6.4083    2.6754 H         1 <0>         0.0883
     21 H2          6.9514   -7.7387    1.8353 H         1 <0>         0.1081
     22 H3          7.9896   -6.6195    0.9200 H         1 <0>         0.0991
     23 H4          5.8437   -2.2008   -0.4329 H         1 <0>         0.1651
     24 H5          2.6041   -3.9917    0.1183 H         1 <0>         0.1332
     25 H6          0.3821   -3.0760   -0.2324 H         1 <0>         0.1376
     26 H7         -1.0667   -1.1560   -0.7865 H         1 <0>         0.1327
     27 H8         -1.2963    1.1947   -1.3809 H         1 <0>         0.1283
     28 H9          0.6812    2.6346   -1.6168 H         1 <0>         0.1284
     29 H10         2.9218    1.7439   -1.2700 H         1 <0>         0.1324
     30 H11         4.3850   -0.1742   -0.7163 H         1 <0>         0.1413
@<TRIPOS>BOND
     1    1    2 1
     2    1   20 1
     3    1   21 1
     4    1   22 1
     5    2   18 1
     6    2    3 am
     7    3    4 2
     8    3    5 1
     9    5    6 2
    10    5   17 1
    11    6    7 1
    12    6   23 1
    13    7   16 ar
    14    7    8 ar
    15    8    9 ar
    16    8   24 1
    17    9   10 ar
    18    9   25 1
    19   10   15 ar
    20   10   11 ar
    21   11   12 ar
    22   11   26 1
    23   12   13 ar
    24   12   27 1
    25   13   14 ar
    26   13   28 1
    27   14   15 ar
    28   14   29 1
    29   15   16 ar
    30   16   30 1
    31   17   18 1
    32   18   19 2
@<TRIPOS>MOLECULE
ZINC12407068
   27    28     0     0     0
SMALL
USER_CHARGES
(5Z)-3-methyl-5-(o-tolylmethylene)-2-thioxo-thiazolidin-4-one
@<TRIPOS>ATOM
      1 C1          6.3983    2.6152    0.1479 C.3       1 <0>        -0.1295
      2 C2          6.0587    1.1469    0.1416 C.ar      1 <0>        -0.0387
      3 C3          7.0622    0.2048    0.2233 C.ar      1 <0>        -0.1249
      4 C4          6.7528   -1.1441    0.2113 C.ar      1 <0>        -0.0825
      5 C5          5.4350   -1.5590    0.1232 C.ar      1 <0>        -0.1230
      6 C6          4.4196   -0.6300    0.0462 C.ar      1 <0>        -0.0843
      7 C7          4.7239    0.7360    0.0577 C.ar      1 <0>        -0.1082
      8 C8          3.6473    1.7336   -0.0240 C.2       1 <0>         0.0970
      9 C9          2.4178    1.3698   -0.4657 C.2       1 <0>        -0.2514
     10 C10         1.1546    2.1381   -0.4765 C.2       1 <0>         0.5449
     11 O1          1.0942    3.2758   -0.0492 O.2       1 <0>        -0.4560
     12 N1          0.0938    1.5251   -0.9742 N.am      1 <0>        -0.5234
     13 C11         0.1652    0.2640   -1.4463 C.2       1 <0>         0.2632
     14 S1         -1.0850   -0.6897   -2.1234 S.2       1 <0>        -0.3378
     15 S2          1.8788   -0.1705   -1.1955 S.3       1 <0>         0.0821
     16 C12        -1.1872    2.2346   -1.0191 C.3       1 <0>         0.0466
     17 H1          6.4122    2.9804    1.1748 H         1 <0>         0.0823
     18 H2          7.3792    2.7632   -0.3037 H         1 <0>         0.0779
     19 H3          5.6490    3.1638   -0.4227 H         1 <0>         0.0716
     20 H4          8.0928    0.5204    0.2922 H         1 <0>         0.1331
     21 H5          7.5438   -1.8770    0.2707 H         1 <0>         0.1323
     22 H6          5.2019   -2.6135    0.1145 H         1 <0>         0.1341
     23 H7          3.3921   -0.9553   -0.0231 H         1 <0>         0.1332
     24 H8          3.8355    2.7563    0.2678 H         1 <0>         0.1643
     25 H9         -1.9456    1.5876   -1.4598 H         1 <0>         0.1172
     26 H10        -1.4865    2.5085   -0.0074 H         1 <0>         0.0900
     27 H11        -1.0825    3.1357   -1.6235 H         1 <0>         0.0900
@<TRIPOS>BOND
     1    1    2 1
     2    1   17 1
     3    1   18 1
     4    1   19 1
     5    2    7 ar
     6    2    3 ar
     7    3    4 ar
     8    3   20 1
     9    4    5 ar
    10    4   21 1
    11    5    6 ar
    12    5   22 1
    13    6    7 ar
    14    6   23 1
    15    7    8 1
    16    8    9 2
    17    8   24 1
    18    9   15 1
    19    9   10 1
    20   10   11 2
    21   10   12 am
    22   12   13 1
    23   12   16 1
    24   13   14 2
    25   13   15 1
    26   16   25 1
    27   16   26 1
    28   16   27 1
@<TRIPOS>MOLECULE
ZINC05214039
   24    25     0     0     0
SMALL
USER_CHARGES
3-amino-5-[(2-hydroxyphenyl)methylene]-2-thioxo-thiazolidin-4-one
@<TRIPOS>ATOM
      1 C1          1.1089   -0.5708    1.0401 C.ar      1 <0>        -0.1246
      2 C2          2.3248    0.0364    0.7701 C.ar      1 <0>        -0.0689
      3 C3          2.3685    1.3191    0.2581 C.ar      1 <0>        -0.1481
      4 C4          1.1930    2.0095    0.0112 C.ar      1 <0>         0.1548
      5 C5         -0.0424    1.3989    0.2829 C.ar      1 <0>        -0.1334
      6 C6         -0.0711    0.0988    0.8011 C.ar      1 <0>        -0.0733
      7 C7         -1.2952    2.1171    0.0197 C.2       1 <0>         0.1114
      8 C8         -2.4625    1.4313   -0.0809 C.2       1 <0>        -0.2509
      9 C9         -3.8455    1.9375   -0.1860 C.2       1 <0>         0.5494
     10 O1         -4.0911    3.1296   -0.1932 O.2       1 <0>        -0.4406
     11 N1         -4.8034    1.0303   -0.2763 N.am      1 <0>        -0.3579
     12 C10        -4.5274   -0.2896   -0.2612 C.2       1 <0>         0.2306
     13 S1         -5.6186   -1.6052   -0.3589 S.2       1 <0>        -0.3382
     14 S2         -2.7484   -0.3330   -0.1148 S.3       1 <0>         0.0999
     15 N2         -6.1025    1.4395   -0.3810 N.3       1 <0>        -0.5979
     16 O2          1.2349    3.2694   -0.4918 O.3       1 <0>        -0.4917
     17 H1          1.0862   -1.5739    1.4395 H         1 <0>         0.1386
     18 H2          3.2445   -0.4966    0.9609 H         1 <0>         0.1381
     19 H3          3.3207    1.7842    0.0500 H         1 <0>         0.1408
     20 H4         -1.0165   -0.3786    1.0127 H         1 <0>         0.1364
     21 H5         -1.2883    3.1911   -0.0939 H         1 <0>         0.1670
     22 H6         -6.7271    0.6490   -0.4376 H         1 <0>         0.3891
     23 H7         -6.3539    2.0449    0.3860 H         1 <0>         0.3690
     24 H8          1.2660    3.9614    0.1830 H         1 <0>         0.4003
@<TRIPOS>BOND
     1    1    6 ar
     2    1    2 ar
     3    1   17 1
     4    2    3 ar
     5    2   18 1
     6    3    4 ar
     7    3   19 1
     8    4    5 ar
     9    4   16 1
    10    5    6 ar
    11    5    7 1
    12    6   20 1
    13    7    8 2
    14    7   21 1
    15    8   14 1
    16    8    9 1
    17    9   10 2
    18    9   11 am
    19   11   12 1
    20   11   15 1
    21   12   13 2
    22   12   14 1
    23   15   22 1
    24   15   23 1
    25   16   24 1
@<TRIPOS>MOLECULE
ZINC01199578
   28    29     0     0     0
SMALL
USER_CHARGES
5-[(4-methoxyphenyl)methylene]-3-methyl-2-thioxo-thiazolidin-4-one
@<TRIPOS>ATOM
      1 C1          4.9454    1.0499   -0.1610 C.3       1 <0>         0.0494
      2 N1          3.6146    1.6472   -0.2969 N.am      1 <0>        -0.5224
      3 C2          2.5468    0.9130   -0.0334 C.2       1 <0>         0.5461
      4 O1          2.6404   -0.2482    0.3193 O.2       1 <0>        -0.4596
      5 C3          1.2351    1.5729   -0.1892 C.2       1 <0>        -0.2610
      6 C4         -0.0126    1.0758    0.0080 C.2       1 <0>         0.1074
      7 C5         -1.1768    1.9685   -0.0540 C.ar      1 <0>        -0.1470
      8 C6         -0.9960    3.3549   -0.1326 C.ar      1 <0>        -0.0384
      9 C7         -2.0911    4.1869   -0.1949 C.ar      1 <0>        -0.2086
     10 C8         -3.3746    3.6536   -0.1699 C.ar      1 <0>         0.1649
     11 C9         -3.5601    2.2785   -0.0866 C.ar      1 <0>        -0.1562
     12 C10        -2.4722    1.4368   -0.0288 C.ar      1 <0>        -0.0296
     13 O2         -4.4511    4.4790   -0.2267 O.3       1 <0>        -0.3088
     14 C11        -4.1896    5.8814   -0.3113 C.3       1 <0>         0.0212
     15 S1          1.7416    3.2042   -0.7164 S.3       1 <0>         0.0762
     16 C12         3.5063    2.9334   -0.6875 C.2       1 <0>         0.2592
     17 S2          4.7577    4.0372   -1.0703 S.2       1 <0>        -0.3434
     18 H1          5.2404    0.6004   -1.1092 H         1 <0>         0.0880
     19 H2          5.6638    1.8221    0.1141 H         1 <0>         0.1077
     20 H3          4.9221    0.2829    0.6131 H         1 <0>         0.0989
     21 H4         -0.1493    0.0230    0.2060 H         1 <0>         0.1650
     22 H5          0.0007    3.7705   -0.1479 H         1 <0>         0.1324
     23 H6         -1.9528    5.2560   -0.2597 H         1 <0>         0.1407
     24 H7         -4.5595    1.8695   -0.0676 H         1 <0>         0.1434
     25 H8         -2.6174    0.3686    0.0356 H         1 <0>         0.1449
     26 H9         -3.6231    6.1987    0.5641 H         1 <0>         0.0614
     27 H10        -3.6129    6.0897   -1.2125 H         1 <0>         0.0617
     28 H11        -5.1335    6.4252   -0.3501 H         1 <0>         0.1067
@<TRIPOS>BOND
     1    1    2 1
     2    1   18 1
     3    1   19 1
     4    1   20 1
     5    2   16 1
     6    2    3 am
     7    3    4 2
     8    3    5 1
     9    5    6 2
    10    5   15 1
    11    6    7 1
    12    6   21 1
    13    7   12 ar
    14    7    8 ar
    15    8    9 ar
    16    8   22 1
    17    9   10 ar
    18    9   23 1
    19   10   11 ar
    20   10   13 1
    21   11   12 ar
    22   11   24 1
    23   12   25 1
    24   13   14 1
    25   14   26 1
    26   14   27 1
    27   14   28 1
    28   15   16 1
    29   16   17 2
