@<TRIPOS>MOLECULE
ZINC03875959
   61    65     0     0     0
SMALL
USER_CHARGES

@<TRIPOS>ATOM
      1 C1         -0.1412    1.4640    0.0296 C.3       1 <0>        -0.1488
      2 C2         -0.0601   -0.0639    0.0229 C.3       1 <0>        -0.0443
      3 C3         -1.4735   -0.6492    0.0337 C.3       1 <0>        -0.1058
      4 C4         -1.3929   -2.1771    0.0281 C.3       1 <0>        -0.1540
      5 C5         -0.6340   -2.6524    1.2686 C.3       1 <0>         0.1045
      6 H1         -0.5767   -3.7409    1.2646 H         1 <0>         0.0504
      7 C6          0.7797   -2.0673    1.2567 C.3       1 <0>        -0.1093
      8 C7          0.6988   -0.5394    1.2632 C.3       1 <0>        -0.0694
      9 H2          0.1750   -0.2071    2.1595 H         1 <0>         0.0783
     10 C8          2.1121    0.0464    1.2515 C.3       1 <0>        -0.1169
     11 C9          2.8475   -0.4193   -0.0065 C.3       1 <0>        -0.1187
     12 C10         2.0877    0.0545   -1.2476 C.3       1 <0>        -0.1002
     13 H3          2.0154    1.1416   -1.2169 H         1 <0>         0.0827
     14 C11         0.6750   -0.5298   -1.2357 C.3       1 <0>        -0.0685
     15 H4          0.7278   -1.6184   -1.2476 H         1 <0>         0.0778
     16 C12        -0.0711   -0.0222   -2.4742 C.3       1 <0>        -0.1216
     17 C13         0.6353   -0.5522   -3.7191 C.3       1 <0>        -0.1105
     18 C14         2.0669   -0.0169   -3.7991 C.3       1 <0>        -0.0306
     19 C15         2.8255   -0.3440   -2.5023 C.3       1 <0>         0.1501
     20 C16         3.0775   -1.8609   -2.5847 C.3       1 <0>        -0.1487
     21 C17         3.4037   -2.0908   -4.0784 C.3       1 <0>        -0.1135
     22 C18         2.8066   -0.8784   -4.8571 C.3       1 <0>        -0.0381
     23 H5          2.0978   -1.2567   -5.5937 H         1 <0>         0.0911
     24 C19         3.8732   -0.0594   -5.5374 C.2       1 <0>        -0.0514
     25 C20         3.8949    0.3101   -6.8162 C.2       1 <0>        -0.2530
     26 C21         5.1073    1.0960   -7.0658 C.2       1 <0>         0.4942
     27 O1          5.4187    1.5794   -8.1365 O.2       1 <0>        -0.4622
     28 O2          5.8229    1.2023   -5.9311 O.3       1 <0>        -0.3260
     29 C22         5.1195    0.5053   -4.8976 C.3       1 <0>         0.0604
     30 O3          4.0868    0.3269   -2.5383 O.3       1 <0>        -0.5595
     31 C23         2.0931    1.4701   -4.1582 C.3       1 <0>        -0.1387
     32 O4         -1.3204   -2.2158    2.4434 O.3       1 <0>        -0.5629
     33 H6          0.8658    1.8813    0.0218 H         1 <0>         0.0607
     34 H7         -0.6819    1.8030   -0.8540 H         1 <0>         0.0566
     35 H8         -0.6651    1.7961    0.9259 H         1 <0>         0.0533
     36 H9         -1.9978   -0.3163    0.9295 H         1 <0>         0.0678
     37 H10        -2.0138   -0.3106   -0.8504 H         1 <0>         0.0636
     38 H11        -2.4000   -2.5940    0.0363 H         1 <0>         0.0621
     39 H12        -0.8692   -2.5100   -0.8680 H         1 <0>         0.0724
     40 H13         1.3208   -2.4063    2.1401 H         1 <0>         0.0662
     41 H14         1.3030   -2.3997    0.3602 H         1 <0>         0.0777
     42 H15         2.0542    1.1349    1.2564 H         1 <0>         0.0663
     43 H16         2.6532   -0.2925    2.1349 H         1 <0>         0.0619
     44 H17         3.8539   -0.0006   -0.0149 H         1 <0>         0.0603
     45 H18         2.9070   -1.5076   -0.0106 H         1 <0>         0.0663
     46 H19        -1.0995   -0.3832   -2.4554 H         1 <0>         0.0694
     47 H20        -0.0633    1.0677   -2.4850 H         1 <0>         0.0704
     48 H21         0.6609   -1.6412   -3.6810 H         1 <0>         0.0671
     49 H22         0.0845   -0.2377   -4.6056 H         1 <0>         0.0684
     50 H23         3.9238   -2.1441   -1.9589 H         1 <0>         0.0753
     51 H24         2.1837   -2.4147   -2.2972 H         1 <0>         0.0784
     52 H25         4.4834   -2.1011   -4.2275 H         1 <0>         0.0683
     53 H26         2.9709   -3.0332   -4.4143 H         1 <0>         0.0743
     54 H27         3.1411    0.0697   -7.5512 H         1 <0>         0.1630
     55 H28         4.8500    1.1931   -4.0961 H         1 <0>         0.1464
     56 H29         5.7380   -0.3023   -4.5061 H         1 <0>         0.1112
     57 H30         4.6581    0.1310   -1.7831 H         1 <0>         0.3746
     58 H31         1.4877    2.0272   -3.4433 H         1 <0>         0.0609
     59 H32         3.1202    1.8337   -4.1257 H         1 <0>         0.0680
     60 H33         1.6902    1.6088   -5.1615 H         1 <0>         0.0568
     61 H34        -2.2251   -2.5493    2.5172 H         1 <0>         0.3754
@<TRIPOS>BOND
     1    1    2 1
     2    1   33 1
     3    1   34 1
     4    1   35 1
     5    2    8 1
     6    2   14 1
     7    2    3 1
     8    3    4 1
     9    3   36 1
    10    3   37 1
    11    4    5 1
    12    4   38 1
    13    4   39 1
    14    5    6 1
    15    5    7 1
    16    5   32 1
    17    7    8 1
    18    7   40 1
    19    7   41 1
    20    8    9 1
    21    8   10 1
    22   10   11 1
    23   10   42 1
    24   10   43 1
    25   11   12 1
    26   11   44 1
    27   11   45 1
    28   12   13 1
    29   12   19 1
    30   12   14 1
    31   14   15 1
    32   14   16 1
    33   16   17 1
    34   16   46 1
    35   16   47 1
    36   17   18 1
    37   17   48 1
    38   17   49 1
    39   18   22 1
    40   18   19 1
    41   18   31 1
    42   19   20 1
    43   19   30 1
    44   20   21 1
    45   20   50 1
    46   20   51 1
    47   21   22 1
    48   21   52 1
    49   21   53 1
    50   22   23 1
    51   22   24 1
    52   24   29 1
    53   24   25 2
    54   25   26 1
    55   25   54 1
    56   26   27 2
    57   26   28 1
    58   28   29 1
    59   29   55 1
    60   29   56 1
    61   30   57 1
    62   31   58 1
    63   31   59 1
    64   31   60 1
    65   32   61 1
@<TRIPOS>MOLECULE
ZINC03802462
   61    65     0     0     0
SMALL
USER_CHARGES
17-(3-furyl)-10,13-dimethyl-2,3,4,5,6,7,8,9,11,12,15,16-dodecahydro-1H-cyclopenta[a]phenanthrene-3,14,17-triol
@<TRIPOS>ATOM
      1 C1         -6.7920    5.8482   -0.8694 C.3       1 <0>        -0.1488
      2 C2         -7.2669    4.7120    0.0385 C.3       1 <0>        -0.0444
      3 C3         -8.5372    4.0939   -0.5482 C.3       1 <0>        -0.1052
      4 C4         -9.0227    2.9630    0.3605 C.3       1 <0>        -0.1543
      5 C5         -9.3225    3.5207    1.7534 C.3       1 <0>         0.1048
      6 H1         -9.6698    2.7152    2.4005 H         1 <0>         0.0504
      7 C6         -8.0477    4.1318    2.3389 C.3       1 <0>        -0.1093
      8 C7         -7.5640    5.2656    1.4330 C.3       1 <0>        -0.0689
      9 H2         -8.3385    6.0292    1.3626 H         1 <0>         0.0778
     10 C8         -6.2929    5.8824    2.0196 C.3       1 <0>        -0.1164
     11 C9         -5.2036    4.8124    2.1155 C.3       1 <0>        -0.1180
     12 C10        -4.9058    4.2610    0.7194 C.3       1 <0>        -0.0989
     13 H3         -4.6050    5.0896    0.0783 H         1 <0>         0.0803
     14 C11        -6.1745    3.6448    0.1318 C.3       1 <0>        -0.0667
     15 H4         -6.5137    2.8272    0.7678 H         1 <0>         0.0755
     16 C12        -5.8542    3.1257   -1.2742 C.3       1 <0>        -0.1239
     17 C13        -4.8122    2.0167   -1.1583 C.3       1 <0>        -0.0958
     18 C14        -3.5085    2.5561   -0.5665 C.3       1 <0>        -0.0146
     19 C15        -3.7740    3.2643    0.7753 C.3       1 <0>         0.1508
     20 C16        -4.0549    2.1023    1.7460 C.3       1 <0>        -0.1457
     21 C17        -3.0377    1.0200    1.3165 C.3       1 <0>        -0.1433
     22 C18        -2.6654    1.3224   -0.1470 C.3       1 <0>         0.2066
     23 C19        -1.1959    1.6397   -0.2523 C.2       1 <0>        -0.1901
     24 C20        -0.4097    2.3185    0.7069 C.2       1 <0>        -0.1725
     25 C21         0.8403    2.3793    0.2137 C.2       1 <0>        -0.0580
     26 O1          0.8514    1.7817   -0.9891 O.3       1 <0>        -0.1794
     27 C22        -0.3815    1.3346   -1.2784 C.2       1 <0>        -0.0352
     28 O2         -2.9862    0.2037   -0.9762 O.3       1 <0>        -0.5521
     29 O3         -2.5781    3.9337    1.1798 O.3       1 <0>        -0.5457
     30 C23        -2.7566    3.4566   -1.5486 C.3       1 <0>        -0.1263
     31 O4        -10.3349    4.5246    1.6571 O.3       1 <0>        -0.5629
     32 H5         -5.8872    6.2915   -0.4537 H         1 <0>         0.0602
     33 H6         -6.5801    5.4545   -1.8635 H         1 <0>         0.0569
     34 H7         -7.5705    6.6081   -0.9379 H         1 <0>         0.0527
     35 H8         -9.3115    4.8575   -0.6229 H         1 <0>         0.0672
     36 H9         -8.3228    3.6959   -1.5400 H         1 <0>         0.0639
     37 H10        -9.9286    2.5242   -0.0579 H         1 <0>         0.0618
     38 H11        -8.2493    2.1985    0.4340 H         1 <0>         0.0729
     39 H12        -7.2743    3.3669    2.4082 H         1 <0>         0.0779
     40 H13        -8.2593    4.5260    3.3328 H         1 <0>         0.0655
     41 H14        -6.5051    6.2749    3.0141 H         1 <0>         0.0613
     42 H15        -5.9510    6.6921    1.3750 H         1 <0>         0.0659
     43 H16        -5.5452    4.0029    2.7606 H         1 <0>         0.0652
     44 H17        -4.2980    5.2523    2.5332 H         1 <0>         0.0592
     45 H18        -6.7602    2.7300   -1.7333 H         1 <0>         0.0669
     46 H19        -5.4575    3.9384   -1.8827 H         1 <0>         0.0674
     47 H20        -5.1991    1.2266   -0.5147 H         1 <0>         0.0652
     48 H21        -4.6125    1.6071   -2.1485 H         1 <0>         0.0705
     49 H22        -5.0756    1.7394    1.6252 H         1 <0>         0.0765
     50 H23        -3.8754    2.4106    2.7760 H         1 <0>         0.0705
     51 H24        -3.4910    0.0314    1.3899 H         1 <0>         0.0710
     52 H25        -2.1493    1.0707    1.9460 H         1 <0>         0.0745
     53 H26        -0.7470    2.7092    1.6555 H         1 <0>         0.1510
     54 H27         1.6905    2.8323    0.7018 H         1 <0>         0.1971
     55 H28        -0.6690    0.8135   -2.1797 H         1 <0>         0.1977
     56 H29        -2.5002   -0.6024   -0.7545 H         1 <0>         0.3751
     57 H30        -2.6258    4.3251    2.0628 H         1 <0>         0.3671
     58 H31        -2.4761    2.8790   -2.4294 H         1 <0>         0.0510
     59 H32        -3.3990    4.2851   -1.8468 H         1 <0>         0.0524
     60 H33        -1.8590    3.8472   -1.0692 H         1 <0>         0.0708
     61 H34       -11.1714    4.2058    1.2913 H         1 <0>         0.3750
@<TRIPOS>BOND
     1    1    2 1
     2    1   32 1
     3    1   33 1
     4    1   34 1
     5    2    8 1
     6    2   14 1
     7    2    3 1
     8    3    4 1
     9    3   35 1
    10    3   36 1
    11    4    5 1
    12    4   37 1
    13    4   38 1
    14    5    6 1
    15    5    7 1
    16    5   31 1
    17    7    8 1
    18    7   39 1
    19    7   40 1
    20    8    9 1
    21    8   10 1
    22   10   11 1
    23   10   41 1
    24   10   42 1
    25   11   12 1
    26   11   43 1
    27   11   44 1
    28   12   13 1
    29   12   19 1
    30   12   14 1
    31   14   15 1
    32   14   16 1
    33   16   17 1
    34   16   45 1
    35   16   46 1
    36   17   18 1
    37   17   47 1
    38   17   48 1
    39   18   22 1
    40   18   19 1
    41   18   30 1
    42   19   20 1
    43   19   29 1
    44   20   21 1
    45   20   49 1
    46   20   50 1
    47   21   22 1
    48   21   51 1
    49   21   52 1
    50   22   23 1
    51   22   28 1
    52   23   27 2
    53   23   24 1
    54   24   25 2
    55   24   53 1
    56   25   26 1
    57   25   54 1
    58   26   27 1
    59   27   55 1
    60   28   56 1
    61   29   57 1
    62   30   58 1
    63   30   59 1
    64   30   60 1
    65   31   61 1
@<TRIPOS>MOLECULE
ZINC04392967
   59    62     0     0     0
SMALL
USER_CHARGES
(3E,5S,8R,9S,10R,13S,14S)-3-(2-aminoethoxyimino)-10,13-dimethyl-1,2,4,5,7,8,9,11,12,14,15,16-dodecahydrocyclopenta[a]phenanthrene-6,17-dione
@<TRIPOS>ATOM
      1 C1         -3.8754   -0.6157   -0.6680 C.3       1 <0>        -0.1640
      2 C2         -4.1866    0.8819   -0.6341 C.3       1 <0>        -0.0476
      3 C3         -5.1324    1.1777    0.5310 C.3       1 <0>        -0.1045
      4 C4         -6.3868    0.3072    0.3961 C.3       1 <0>        -0.1216
      5 C5         -6.9877    0.5301   -0.9737 C.2       1 <0>         0.1651
      6 N1         -8.2291    0.8103   -1.1066 N.2       1 <0>        -0.3317
      7 O1         -9.0576    0.9150    0.0370 O.3       1 <0>        -0.2722
      8 C6        -10.4192    1.2324   -0.2589 C.3       1 <0>         0.0413
      9 C7        -11.2171    1.3197    1.0437 C.3       1 <0>         0.0067
     10 C8         -6.0860    0.4134   -2.1837 C.3       1 <0>        -0.0610
     11 C9         -4.8534    1.2925   -1.9504 C.3       1 <0>        -0.1131
     12 H1         -5.1241    2.2539   -1.9012 H         1 <0>         0.1005
     13 C10        -3.8624    1.0828   -3.0724 C.2       1 <0>         0.3665
     14 O2         -4.1602    0.4461   -4.0543 O.2       1 <0>        -0.4395
     15 C11        -2.4869    1.6949   -2.9284 C.3       1 <0>        -0.1569
     16 C12        -1.8997    1.2822   -1.5741 C.3       1 <0>        -0.0702
     17 H2         -1.7034    0.2101   -1.5642 H         1 <0>         0.0963
     18 C13        -2.8770    1.6480   -0.4464 C.3       1 <0>        -0.0747
     19 H3         -3.0935    2.7150   -0.4984 H         1 <0>         0.0767
     20 C14        -2.2904    1.3426    0.9290 C.3       1 <0>        -0.1180
     21 C15        -0.9240    2.0187    1.1224 C.3       1 <0>        -0.0992
     22 C16        -0.0187    1.5258    0.0104 C.3       1 <0>        -0.1233
     23 C17        -0.6123    2.0484   -1.3251 C.3       1 <0>        -0.0806
     24 H4         -0.7973    3.1211   -1.2689 H         1 <0>         0.0875
     25 C18         0.5357    1.7514   -2.2980 C.3       1 <0>        -0.1171
     26 C19         1.7891    2.1430   -1.4685 C.3       1 <0>        -0.1766
     27 C20         1.3868    2.0510   -0.0002 C.2       1 <0>         0.3795
     28 O3          2.0616    2.3415    0.9582 O.2       1 <0>        -0.4329
     29 C21         0.0021   -0.0041    0.0020 C.3       1 <0>        -0.1454
     30 H5         -3.2027   -0.8283   -1.4988 H         1 <0>         0.0646
     31 H6         -3.4008   -0.9094    0.2682 H         1 <0>         0.0713
     32 H7         -4.8012   -1.1763   -0.7975 H         1 <0>         0.0630
     33 H8         -4.6320    0.9518    1.4726 H         1 <0>         0.0880
     34 H9         -5.4158    2.2300    0.5117 H         1 <0>         0.0683
     35 H10        -6.1171   -0.7427    0.5105 H         1 <0>         0.0994
     36 H11        -7.1098    0.5867    1.1624 H         1 <0>         0.0794
     37 H12       -10.4646    2.1899   -0.7777 H         1 <0>         0.0812
     38 H13       -10.8439    0.4547   -0.8937 H         1 <0>         0.1039
     39 H14       -12.2715    1.4737    0.8142 H         1 <0>         0.1513
     40 H15       -11.0990    0.3928    1.6050 H         1 <0>         0.1429
     41 H16       -11.2328    2.5242    2.7132 H         1 <0>         0.4412
     42 H17        -9.7309    2.3585    2.0185 H         1 <0>         0.4409
     43 H18        -6.6175    0.7539   -3.0723 H         1 <0>         0.0964
     44 H19        -5.7782   -0.6241   -2.3139 H         1 <0>         0.1099
     45 H20        -2.5585    2.6911   -2.9779 H         1 <0>         0.0926
     46 H21        -1.8418    1.3362   -3.7305 H         1 <0>         0.0978
     47 H22        -2.9766    1.7021    1.6959 H         1 <0>         0.0697
     48 H23        -2.1736    0.2640    1.0342 H         1 <0>         0.0758
     49 H24        -0.5102    1.7366    2.0906 H         1 <0>         0.0736
     50 H25        -1.0280    3.1022    1.0636 H         1 <0>         0.0687
     51 H26         0.4548    2.3693   -3.1924 H         1 <0>         0.0802
     52 H27         0.5587    0.6931   -2.5581 H         1 <0>         0.0804
     53 H28         2.0706    3.0721   -1.7083 H         1 <0>         0.0899
     54 H29         2.6053    1.4510   -1.6761 H         1 <0>         0.1001
     55 H30         0.5066   -0.3655    0.8980 H         1 <0>         0.0623
     56 H31        -1.0204   -0.3812   -0.0163 H         1 <0>         0.0790
     57 H32         0.5348   -0.3554   -0.8817 H         1 <0>         0.0659
     58 N2        -10.7266    2.4644    1.8313 N.4       1 <0>        -0.6471
     59 H33       -10.8772    3.3295    1.2992 H         1 <0>         0.4396
@<TRIPOS>BOND
     1    1    2 1
     2    1   30 1
     3    1   31 1
     4    1   32 1
     5    2   11 1
     6    2   18 1
     7    2    3 1
     8    3    4 1
     9    3   33 1
    10    3   34 1
    11    4    5 1
    12    4   35 1
    13    4   36 1
    14    5    6 2
    15    5   10 1
    16    6    7 1
    17    7    8 1
    18    8    9 1
    19    8   37 1
    20    8   38 1
    21    9   39 1
    22    9   40 1
    23    9   58 1
    24   10   11 1
    25   10   43 1
    26   10   44 1
    27   11   12 1
    28   11   13 1
    29   13   14 2
    30   13   15 1
    31   15   16 1
    32   15   45 1
    33   15   46 1
    34   16   17 1
    35   16   23 1
    36   16   18 1
    37   18   19 1
    38   18   20 1
    39   20   21 1
    40   20   47 1
    41   20   48 1
    42   21   22 1
    43   21   49 1
    44   21   50 1
    45   22   27 1
    46   22   23 1
    47   22   29 1
    48   23   24 1
    49   23   25 1
    50   25   26 1
    51   25   51 1
    52   25   52 1
    53   26   27 1
    54   26   53 1
    55   26   54 1
    56   27   28 2
    57   29   55 1
    58   29   56 1
    59   29   57 1
    60   41   58 1
    61   42   58 1
    62   58   59 1
