@<TRIPOS>MOLECULE
ZINC04280929
   27    28     0     0     0
SMALL
USER_CHARGES
2-chloro-N-(3,5-dichlorophenyl)-4-(trifluoromethyl)pyrimidine-5-carboxamide
@<TRIPOS>ATOM
      1 C1          0.3089    2.9834    0.5692 C.ar      1 <0>        -0.1263
      2 C2         -0.6415    3.8908    1.0188 C.ar      1 <0>         0.1656
      3 C3         -1.7387    3.4420    1.7424 C.ar      1 <0>        -0.1055
      4 C4         -1.8821    2.0941    2.0132 C.ar      1 <0>        -0.0053
      5 C5         -0.9336    1.1921    1.5640 C.ar      1 <0>        -0.1101
      6 C6          0.1636    1.6373    0.8477 C.ar      1 <0>        -0.0058
      7 Cl1         1.3548    0.5032    0.2922 Cl        1 <0>        -0.0451
      8 Cl2        -3.2529    1.5324    2.9181 Cl        1 <0>        -0.0433
      9 N1         -0.4938    5.2539    0.7438 N.am      1 <0>        -0.6563
     10 C7         -1.5799    6.0139    0.5003 C.2       1 <0>         0.5668
     11 O1         -2.6924    5.5349    0.6035 O.2       1 <0>        -0.4759
     12 C8         -1.4184    7.4291    0.1078 C.ar      1 <0>        -0.2008
     13 C9         -0.3465    8.1912    0.5880 C.ar      1 <0>         0.2135
     14 N2         -0.2399    9.4528    0.2113 N.ar      1 <0>        -0.4771
     15 C10        -1.1251    9.9951   -0.6045 C.ar      1 <0>         0.3886
     16 N3         -2.1500    9.3127   -1.0802 N.ar      1 <0>        -0.4632
     17 C11        -2.3295    8.0437   -0.7590 C.ar      1 <0>         0.1663
     18 C12        -3.4994    7.2719   -1.3127 C.3       1 <0>         0.5270
     19 F1         -4.4137    7.0110   -0.2865 F         1 <0>        -0.1434
     20 F2         -4.1235    8.0250   -2.3130 F         1 <0>        -0.1539
     21 F3         -3.0471    6.0632   -1.8528 F         1 <0>        -0.1577
     22 Cl3        -0.9347   11.6576   -1.0666 Cl        1 <0>         0.0685
     23 H1          1.1631    3.3298    0.0063 H         1 <0>         0.1467
     24 H2         -2.4794    4.1455    2.0929 H         1 <0>         0.1587
     25 H3         -1.0475    0.1394    1.7767 H         1 <0>         0.1491
     26 H4          0.3904    5.6525    0.7284 H         1 <0>         0.4180
     27 H5          0.3817    7.7544    1.2553 H         1 <0>         0.2010
@<TRIPOS>BOND
     1    1    6 ar
     2    1    2 ar
     3    1   23 1
     4    2    3 ar
     5    2    9 1
     6    3    4 ar
     7    3   24 1
     8    4    5 ar
     9    4    8 1
    10    5    6 ar
    11    5   25 1
    12    6    7 1
    13    9   10 am
    14    9   26 1
    15   10   11 2
    16   10   12 1
    17   12   17 ar
    18   12   13 ar
    19   13   14 ar
    20   13   27 1
    21   14   15 ar
    22   15   16 ar
    23   15   22 1
    24   16   17 ar
    25   17   18 1
    26   18   19 1
    27   18   20 1
    28   18   21 1
