@<TRIPOS>MOLECULE
ZINC03813668
   24    24     0     0     0
SMALL
USER_CHARGES
5-(hydroxymethyl)piperidine-3,4-diol
@<TRIPOS>ATOM
      1 C1         -0.0127    1.0858    0.0080 C.3       1 <0>         0.0019
      2 C2         -0.7286    1.5791    1.2674 C.3       1 <0>        -0.1023
      3 H1         -0.7316    2.6691    1.2810 H         1 <0>         0.1126
      4 C3         -2.1703    1.0639    1.2644 C.3       1 <0>         0.1089
      5 H2         -2.1688   -0.0258    1.2907 H         1 <0>         0.0820
      6 C4         -2.8727    1.5441   -0.0087 C.3       1 <0>         0.0566
      7 H3         -2.9100    2.6334   -0.0156 H         1 <0>         0.0901
      8 C5         -2.0949    1.0518   -1.2313 C.3       1 <0>        -0.0409
      9 O1         -4.2019    1.0209   -0.0465 O.3       1 <0>        -0.5391
     10 O2         -2.8602    1.5683    2.4096 O.3       1 <0>        -0.5462
     11 C6         -0.0015    1.0541    2.5071 C.3       1 <0>         0.0845
     12 O3          1.3073    1.6242    2.5688 O.3       1 <0>        -0.5791
     13 H4          0.0021   -0.0041    0.0020 H         1 <0>         0.1346
     14 H5          1.0099    1.4629    0.0003 H         1 <0>         0.1504
     15 H6         -2.5844    1.4040   -2.1392 H         1 <0>         0.1385
     16 H7         -2.0703   -0.0380   -1.2313 H         1 <0>         0.1401
     17 H8         -4.7056    1.2828   -0.8292 H         1 <0>         0.4002
     18 H9         -3.7828    1.2851    2.4693 H         1 <0>         0.4024
     19 H10        -0.5609    1.3308    3.4008 H         1 <0>         0.0787
     20 H11         0.0774   -0.0315    2.4494 H         1 <0>         0.0582
     21 H12         1.8268    1.3350    3.3314 H         1 <0>         0.4003
     22 N1         -0.7177    1.5794   -1.1903 N.4       1 <0>        -0.5113
     23 H13        -0.2128    1.2727   -2.0301 H         1 <0>         0.4429
     24 H14        -0.7491    2.6054   -1.1656 H         1 <0>         0.4358
@<TRIPOS>BOND
     1    1    2 1
     2    1   13 1
     3    1   14 1
     4    1   22 1
     5    2    3 1
     6    2    4 1
     7    2   11 1
     8    4    5 1
     9    4    6 1
    10    4   10 1
    11    6    7 1
    12    6    8 1
    13    6    9 1
    14    8   15 1
    15    8   16 1
    16    8   22 1
    17    9   17 1
    18   10   18 1
    19   11   12 1
    20   11   19 1
    21   11   20 1
    22   12   21 1
    23   22   23 1
    24   22   24 1
@<TRIPOS>MOLECULE
ZINC13601808
   24    24     0     0     0
SMALL
USER_CHARGES
(2R,3R,4S)-2-(hydroxymethyl)piperidine-3,4-diol
@<TRIPOS>ATOM
      1 C1         -3.5450   -2.1286   -1.1647 C.3       1 <0>        -0.1820
      2 C2         -3.5034   -0.6009   -1.2450 C.3       1 <0>        -0.0019
      3 C3         -1.4333   -0.5336    0.0129 C.3       1 <0>         0.0420
      4 H1         -1.9700   -0.1108    0.8622 H         1 <0>         0.1588
      5 C4         -1.4130   -2.0593    0.1308 C.3       1 <0>         0.1082
      6 H2         -0.8648   -2.4821   -0.7111 H         1 <0>         0.0927
      7 C5         -2.8507   -2.5863    0.1210 C.3       1 <0>         0.0582
      8 H3         -2.8397   -3.6754    0.1623 H         1 <0>         0.0909
      9 O1         -3.5553   -2.0726    1.2531 O.3       1 <0>        -0.5518
     10 O2         -0.7747   -2.4350    1.3529 O.3       1 <0>        -0.5374
     11 C6          0.0021   -0.0041    0.0020 C.3       1 <0>         0.0543
     12 O3         -0.0173    1.4248    0.0099 O.3       1 <0>        -0.5810
     13 H4         -3.0302   -2.5525   -2.0269 H         1 <0>         0.1009
     14 H5         -4.5817   -2.4652   -1.1580 H         1 <0>         0.1210
     15 H6         -3.9844   -0.2725   -2.1664 H         1 <0>         0.1377
     16 H7         -4.0303   -0.1778   -0.3897 H         1 <0>         0.1370
     17 H8         -4.4748   -2.3663    1.3106 H         1 <0>         0.3948
     18 H9         -0.7264   -3.3904    1.4939 H         1 <0>         0.4049
     19 H10         0.5123   -0.3556   -0.8948 H         1 <0>         0.0701
     20 H11         0.5293   -0.3651    0.8851 H         1 <0>         0.1040
     21 H12         0.8606    1.8301    0.0037 H         1 <0>         0.4108
     22 N1         -2.1017   -0.1408   -1.2423 N.4       1 <0>        -0.5070
     23 H13        -2.0813    0.8820   -1.3306 H         1 <0>         0.4479
     24 H14        -1.6057   -0.5628   -2.0361 H         1 <0>         0.4269
@<TRIPOS>BOND
     1    1    7 1
     2    1    2 1
     3    1   13 1
     4    1   14 1
     5    2   15 1
     6    2   16 1
     7    2   22 1
     8    3    4 1
     9    3    5 1
    10    3   11 1
    11    3   22 1
    12    5    6 1
    13    5    7 1
    14    5   10 1
    15    7    8 1
    16    7    9 1
    17    9   17 1
    18   10   18 1
    19   11   12 1
    20   11   19 1
    21   11   20 1
    22   12   21 1
    23   22   23 1
    24   22   24 1
