@<TRIPOS>MOLECULE
ZINC13829435
   56    60     0     0     0
SMALL
USER_CHARGES

@<TRIPOS>ATOM
      1 C1          0.0439    1.0576    0.0477 C.ar      1 <0>        -0.0548
      2 C2          1.1881    1.8266    0.0060 C.ar      1 <0>        -0.1369
      3 C3          2.4358    1.2185    0.0265 C.ar      1 <0>         0.1234
      4 C4          2.5359   -0.1647    0.0896 C.ar      1 <0>        -0.1995
      5 C5          1.3952   -0.9388    0.1320 C.ar      1 <0>        -0.0580
      6 C6          0.1412   -0.3312    0.1110 C.ar      1 <0>        -0.0592
      7 C7         -1.0881   -1.1614    0.1566 C.2       1 <0>        -0.1585
      8 C8         -1.9646   -1.0805    1.2597 C.2       1 <0>         0.1980
      9 N1         -3.0493   -1.8176    1.2926 N.2       1 <0>        -0.4493
     10 C9         -3.3451   -2.6531    0.2919 C.2       1 <0>         0.2732
     11 C10        -4.4158   -3.5333    0.0816 C.2       1 <0>        -0.1957
     12 C11        -4.2010   -4.1587   -1.1524 C.2       1 <0>         0.1200
     13 N2         -3.0857   -3.7040   -1.6687 N.2       1 <0>        -0.3012
     14 N3         -2.5231   -2.7639   -0.7981 N.pl3     1 <0>        -0.3101
     15 C12        -1.3888   -2.0101   -0.8722 C.2       1 <0>         0.1869
     16 C13        -5.5586   -3.7596    0.9936 C.ar      1 <0>         0.0464
     17 C14        -5.3530   -4.0194    2.3539 C.ar      1 <0>        -0.1527
     18 C15        -6.4462   -4.2244    3.1677 C.ar      1 <0>         0.1023
     19 N4         -7.6722   -4.1787    2.6803 N.ar      1 <0>        -0.4876
     20 C16        -7.9103   -3.9369    1.4045 C.ar      1 <0>         0.1030
     21 C17        -6.8758   -3.7142    0.5214 C.ar      1 <0>        -0.1653
     22 O1          3.5614    1.9786   -0.0156 O.3       1 <0>        -0.3268
     23 C18         4.8121    1.2877    0.0088 C.3       1 <0>         0.0248
     24 C19         5.9562    2.3021   -0.0452 C.3       1 <0>        -0.0012
     25 N5          5.9224    3.1430    1.1588 N.4       1 <0>        -0.3842
     26 C20         6.9194    4.2131    1.0347 C.3       1 <0>        -0.0070
     27 C21         6.8328    5.1395    2.2495 C.3       1 <0>        -0.1467
     28 C22         7.1050    4.3311    3.5214 C.3       1 <0>        -0.1393
     29 C23         6.1060    3.1732    3.6021 C.3       1 <0>        -0.1454
     30 C24         6.2195    2.3197    2.3372 C.3       1 <0>        -0.0130
     31 H1         -0.9266    1.5314    0.0358 H         1 <0>         0.1407
     32 H2          1.1133    2.9028   -0.0431 H         1 <0>         0.1389
     33 H3          3.5080   -0.6350    0.1051 H         1 <0>         0.1321
     34 H4          1.4737   -2.0148    0.1807 H         1 <0>         0.1339
     35 H5         -1.7420   -0.4114    2.0777 H         1 <0>         0.1828
     36 H6         -4.8483   -4.8956   -1.6046 H         1 <0>         0.2069
     37 H7         -0.7356   -2.0858   -1.7289 H         1 <0>         0.1821
     38 H8         -4.3527   -4.0590    2.7593 H         1 <0>         0.1304
     39 H9         -6.2979   -4.4255    4.2184 H         1 <0>         0.1563
     40 H10        -8.9296   -3.9091    1.0488 H         1 <0>         0.1580
     41 H11        -7.0781   -3.5120   -0.5201 H         1 <0>         0.1350
     42 H12         4.8870    0.7041    0.9263 H         1 <0>         0.0878
     43 H13         4.8761    0.6217   -0.8517 H         1 <0>         0.1106
     44 H14         6.9084    1.7737   -0.0928 H         1 <0>         0.1496
     45 H15         5.8443    2.9293   -0.9297 H         1 <0>         0.1430
     46 H16         7.9164    3.7758    0.9820 H         1 <0>         0.1293
     47 H17         6.7263    4.7855    0.1274 H         1 <0>         0.1312
     48 H18         7.5751    5.9323    2.1563 H         1 <0>         0.1133
     49 H19         5.8362    5.5775    2.3030 H         1 <0>         0.0881
     50 H20         8.1202    3.9352    3.4914 H         1 <0>         0.0821
     51 H21         6.9890    4.9742    4.3938 H         1 <0>         0.0950
     52 H22         6.3287    2.5606    4.4758 H         1 <0>         0.1125
     53 H23         5.0943    3.5705    3.6837 H         1 <0>         0.0881
     54 H24         5.5097    1.4943    2.3915 H         1 <0>         0.1271
     55 H25         7.2315    1.9228    2.2568 H         1 <0>         0.1303
     56 H26         5.0048    3.5508    1.2574 H         1 <0>         0.4293
@<TRIPOS>BOND
     1    1    6 ar
     2    1    2 ar
     3    1   31 1
     4    2    3 ar
     5    2   32 1
     6    3    4 ar
     7    3   22 1
     8    4    5 ar
     9    4   33 1
    10    5    6 ar
    11    5   34 1
    12    6    7 1
    13    7   15 2
    14    7    8 1
    15    8    9 2
    16    8   35 1
    17    9   10 1
    18   10   14 1
    19   10   11 2
    20   11   12 1
    21   11   16 1
    22   12   13 2
    23   12   36 1
    24   13   14 1
    25   14   15 1
    26   15   37 1
    27   16   21 ar
    28   16   17 ar
    29   17   18 ar
    30   17   38 1
    31   18   19 ar
    32   18   39 1
    33   19   20 ar
    34   20   21 ar
    35   20   40 1
    36   21   41 1
    37   22   23 1
    38   23   24 1
    39   23   42 1
    40   23   43 1
    41   24   25 1
    42   24   44 1
    43   24   45 1
    44   25   30 1
    45   25   26 1
    46   25   56 1
    47   26   27 1
    48   26   46 1
    49   26   47 1
    50   27   28 1
    51   27   48 1
    52   27   49 1
    53   28   29 1
    54   28   50 1
    55   28   51 1
    56   29   30 1
    57   29   52 1
    58   29   53 1
    59   30   54 1
    60   30   55 1
@<TRIPOS>MOLECULE
ZINC40977335
   43    47     0     0     0
SMALL
USER_CHARGES

@<TRIPOS>ATOM
      1 C1         -0.0173    1.4248    0.0099 C.3       1 <0>         0.0247
      2 O1          0.0021   -0.0041    0.0020 O.3       1 <0>        -0.3148
      3 C2          0.6057   -0.6071   -1.0556 C.ar      1 <0>         0.1407
      4 C3          1.1724    0.1636   -2.0616 C.ar      1 <0>        -0.2063
      5 C4          1.7854   -0.4456   -3.1365 C.ar      1 <0>        -0.0541
      6 C5          1.8359   -1.8362   -3.2119 C.ar      1 <0>        -0.0869
      7 C6          1.2665   -2.6073   -2.2002 C.ar      1 <0>        -0.0578
      8 C7          0.6595   -1.9925   -1.1251 C.ar      1 <0>        -0.1490
      9 C8          2.4943   -2.4948   -4.3674 C.2       1 <0>        -0.1389
     10 C9          1.9656   -2.3516   -5.6681 C.2       1 <0>         0.1987
     11 N1          2.5531   -2.9372   -6.6845 N.2       1 <0>        -0.4533
     12 C10         3.6543   -3.6745   -6.5124 C.2       1 <0>         0.2724
     13 C11         4.4609   -4.3923   -7.4081 C.2       1 <0>        -0.2029
     14 C12         5.4891   -4.9790   -6.6592 C.2       1 <0>         0.1143
     15 N2          5.3345   -4.6524   -5.3997 N.2       1 <0>        -0.3055
     16 N3          4.2025   -3.8404   -5.2678 N.pl3     1 <0>        -0.3075
     17 C13         3.6240   -3.2432   -4.1863 C.2       1 <0>         0.1766
     18 C14         4.2626   -4.5083   -8.8677 C.ar      1 <0>         0.0299
     19 C15         3.9605   -5.7350   -9.4394 C.ar      1 <0>        -0.1062
     20 C16         3.7731   -5.8475  -10.8108 C.ar      1 <0>        -0.0957
     21 C17         3.8799   -4.7638  -11.6303 C.ar      1 <0>        -0.0953
     22 C18         4.1846   -3.5004  -11.0955 C.ar      1 <0>         0.1283
     23 C19         4.3730   -3.3673   -9.6983 C.ar      1 <0>        -0.0836
     24 C20         4.6717   -2.1031   -9.1669 C.ar      1 <0>        -0.0388
     25 C21         4.7629   -1.0452  -10.0289 C.ar      1 <0>        -0.1811
     26 C22         4.5608   -1.2415  -11.3922 C.ar      1 <0>         0.1324
     27 N4          4.2935   -2.4268  -11.8858 N.ar      1 <0>        -0.4755
     28 H1          1.0053    1.8021    0.0021 H         1 <0>         0.0579
     29 H2         -0.5445    1.7859   -0.8732 H         1 <0>         0.0584
     30 H3         -0.5275    1.7763    0.9067 H         1 <0>         0.1033
     31 H4          1.1330    1.2413   -2.0027 H         1 <0>         0.1340
     32 H5          2.2255    0.1545   -3.9192 H         1 <0>         0.1295
     33 H6          1.3042   -3.6852   -2.2560 H         1 <0>         0.1326
     34 H7          0.2216   -2.5894   -0.3388 H         1 <0>         0.1367
     35 H8          1.0763   -1.7597   -5.8268 H         1 <0>         0.1825
     36 H9          6.2797   -5.5993   -7.0551 H         1 <0>         0.2032
     37 H10         4.0496   -3.3635   -3.2010 H         1 <0>         0.1825
     38 H11         3.8707   -6.6101   -8.8130 H         1 <0>         0.1282
     39 H12         3.5385   -6.8122  -11.2361 H         1 <0>         0.1323
     40 H13         3.7305   -4.8763  -12.6940 H         1 <0>         0.1353
     41 H14         4.8250   -1.9692   -8.1063 H         1 <0>         0.1251
     42 H15         4.9909   -0.0589   -9.6525 H         1 <0>         0.1344
     43 H16         4.6354   -0.3975  -12.0619 H         1 <0>         0.1590
@<TRIPOS>BOND
     1    1    2 1
     2    1   28 1
     3    1   29 1
     4    1   30 1
     5    2    3 1
     6    3    8 ar
     7    3    4 ar
     8    4    5 ar
     9    4   31 1
    10    5    6 ar
    11    5   32 1
    12    6    7 ar
    13    6    9 1
    14    7    8 ar
    15    7   33 1
    16    8   34 1
    17    9   17 2
    18    9   10 1
    19   10   11 2
    20   10   35 1
    21   11   12 1
    22   12   16 1
    23   12   13 2
    24   13   14 1
    25   13   18 1
    26   14   15 2
    27   14   36 1
    28   15   16 1
    29   16   17 1
    30   17   37 1
    31   18   23 ar
    32   18   19 ar
    33   19   20 ar
    34   19   38 1
    35   20   21 ar
    36   20   39 1
    37   21   22 ar
    38   21   40 1
    39   22   27 ar
    40   22   23 ar
    41   23   24 ar
    42   24   25 ar
    43   24   41 1
    44   25   26 ar
    45   25   42 1
    46   26   27 ar
    47   26   43 1
@<TRIPOS>MOLECULE
ZINC40880920
   54    59     0     0     0
SMALL
USER_CHARGES

@<TRIPOS>ATOM
      1 C1          0.0135    1.3621   -0.0303 C.ar      1 <0>        -0.1185
      2 C2          1.2052    2.0823   -0.0419 C.ar      1 <0>        -0.1014
      3 C3          2.4100    1.4478   -0.0482 C.ar      1 <0>        -0.0920
      4 C4          2.4578    0.0432   -0.0429 C.ar      1 <0>         0.1292
      5 C5          1.2432   -0.6840   -0.0310 C.ar      1 <0>        -0.0854
      6 C6          0.0222   -0.0015   -0.0249 C.ar      1 <0>        -0.0822
      7 C7          1.3056   -2.1460   -0.0255 C.ar      1 <0>         0.0657
      8 C8          2.5719   -2.7295   -0.0324 C.ar      1 <0>        -0.1668
      9 C9          3.6966   -1.9196   -0.0439 C.ar      1 <0>         0.1402
     10 N1          3.6246   -0.6100   -0.0483 N.ar      1 <0>        -0.4786
     11 C10         0.0804   -2.9677   -0.0128 C.2       1 <0>        -0.1998
     12 C11        -0.3411   -3.8188    1.0187 C.2       1 <0>         0.1220
     13 N2         -1.4726   -4.3778    0.6691 N.2       1 <0>        -0.3017
     14 N3         -1.8427   -3.9212   -0.6008 N.pl3     1 <0>        -0.3084
     15 C12        -0.8862   -3.0401   -1.0289 C.2       1 <0>         0.2766
     16 N4         -0.9881   -2.4405   -2.2183 N.2       1 <0>        -0.4483
     17 C13        -2.0087   -2.6753   -3.0090 C.2       1 <0>         0.1973
     18 C14        -3.0208   -3.5731   -2.6084 C.2       1 <0>        -0.1519
     19 C15        -2.9166   -4.1957   -1.3952 C.2       1 <0>         0.1826
     20 C16        -4.1790   -3.8446   -3.4956 C.ar      1 <0>        -0.0760
     21 C17        -4.3689   -5.1201   -4.0245 C.ar      1 <0>        -0.0499
     22 C18        -5.4456   -5.3703   -4.8486 C.ar      1 <0>        -0.1824
     23 C19        -6.3411   -4.3515   -5.1524 C.ar      1 <0>         0.2068
     24 C20        -6.1535   -3.0788   -4.6259 C.ar      1 <0>        -0.1830
     25 C21        -5.0815   -2.8260   -3.7964 C.ar      1 <0>        -0.0467
     26 N5         -7.4302   -4.6068   -5.9879 N.pl3     1 <0>        -0.6443
     27 C22        -8.4553   -3.5797   -6.2295 C.3       1 <0>         0.0957
     28 C23        -8.6640   -3.4480   -7.7417 C.3       1 <0>        -0.0237
     29 N6         -8.9808   -4.7653   -8.3077 N.4       1 <0>        -0.5043
     30 C24        -7.8348   -5.6686   -8.1442 C.3       1 <0>        -0.0230
     31 C25        -7.5821   -5.9084   -6.6564 C.3       1 <0>         0.0958
     32 H1         -0.9287    1.8898   -0.0210 H         1 <0>         0.1245
     33 H2          1.1734    3.1618   -0.0464 H         1 <0>         0.1305
     34 H3          3.3250    2.0215   -0.0576 H         1 <0>         0.1371
     35 H4         -0.9076   -0.5510   -0.0156 H         1 <0>         0.1158
     36 H5          2.6756   -3.8045   -0.0284 H         1 <0>         0.1386
     37 H6          4.6710   -2.3854   -0.0487 H         1 <0>         0.1603
     38 H7          0.1818   -3.9861    1.9488 H         1 <0>         0.2067
     39 H8         -2.0742   -2.1808   -3.9669 H         1 <0>         0.1814
     40 H9         -3.6795   -4.8857   -1.0660 H         1 <0>         0.1817
     41 H10        -3.6730   -5.9118   -3.7893 H         1 <0>         0.1311
     42 H11        -5.5931   -6.3585   -5.2587 H         1 <0>         0.1281
     43 H12        -6.8504   -2.2886   -4.8632 H         1 <0>         0.1284
     44 H13        -4.9388   -1.8382   -3.3837 H         1 <0>         0.1329
     45 H14        -9.3906   -3.8769   -5.7552 H         1 <0>         0.0904
     46 H15        -8.1213   -2.6257   -5.8214 H         1 <0>         0.1281
     47 H16        -9.4876   -2.7611   -7.9365 H         1 <0>         0.1449
     48 H17        -7.7536   -3.0640   -8.2022 H         1 <0>         0.1352
     49 H18        -9.7821   -5.1509   -7.8309 H         1 <0>         0.4288
     50 H19        -8.0474   -6.6181   -8.6356 H         1 <0>         0.1452
     51 H20        -6.9496   -5.2175   -8.5925 H         1 <0>         0.1349
     52 H21        -6.6710   -6.4934   -6.5304 H         1 <0>         0.1276
     53 H22        -8.4277   -6.4448   -6.2259 H         1 <0>         0.0897
     54 H23        -9.1921   -4.6663   -9.2893 H         1 <0>         0.4345
@<TRIPOS>BOND
     1    1    6 ar
     2    1    2 ar
     3    1   32 1
     4    2    3 ar
     5    2   33 1
     6    3    4 ar
     7    3   34 1
     8    4   10 ar
     9    4    5 ar
    10    5    6 ar
    11    5    7 ar
    12    6   35 1
    13    7    8 ar
    14    7   11 1
    15    8    9 ar
    16    8   36 1
    17    9   10 ar
    18    9   37 1
    19   11   15 2
    20   11   12 1
    21   12   13 2
    22   12   38 1
    23   13   14 1
    24   14   19 1
    25   14   15 1
    26   15   16 1
    27   16   17 2
    28   17   18 1
    29   17   39 1
    30   18   19 2
    31   18   20 1
    32   19   40 1
    33   20   25 ar
    34   20   21 ar
    35   21   22 ar
    36   21   41 1
    37   22   23 ar
    38   22   42 1
    39   23   24 ar
    40   23   26 1
    41   24   25 ar
    42   24   43 1
    43   25   44 1
    44   26   31 1
    45   26   27 1
    46   27   28 1
    47   27   45 1
    48   27   46 1
    49   28   29 1
    50   28   47 1
    51   28   48 1
    52   29   30 1
    53   29   49 1
    54   29   54 1
    55   30   31 1
    56   30   50 1
    57   30   51 1
    58   31   52 1
    59   31   53 1
