@<TRIPOS>MOLECULE
ZINC00293947
   27    29     0     0     0
SMALL
USER_CHARGES

@<TRIPOS>ATOM
      1 C1         -0.0165    1.3620    0.0095 C.ar      1 <0>        -0.1255
      2 C2          1.1697    2.0834    0.0021 C.ar      1 <0>        -0.0919
      3 C3          2.3856    1.4362   -0.0134 C.ar      1 <0>        -0.1185
      4 C4          2.4281    0.0456   -0.0212 C.ar      1 <0>         0.0918
      5 C5          1.2234   -0.6807   -0.0132 C.ar      1 <0>        -0.0924
      6 C6          0.0021   -0.0041    0.0020 C.ar      1 <0>        -0.0869
      7 C7          1.6036   -2.0953   -0.0245 C.2       1 <0>        -0.2458
      8 C8          2.9451   -2.1410   -0.0380 C.2       1 <0>         0.1092
      9 N1          3.4551   -0.8713   -0.0363 N.pl3     1 <0>        -0.5825
     10 H1          4.3995   -0.6501   -0.0442 H         1 <0>         0.4259
     11 C9          0.6664   -3.2754   -0.0210 C.3       1 <0>         0.1770
     12 N2          0.2544   -3.5758   -1.3944 N.pl3     1 <0>        -0.3994
     13 C10        -0.8292   -3.0557   -2.0495 C.2       1 <0>         0.0312
     14 C11        -0.8354   -3.5965   -3.2828 C.2       1 <0>        -0.0010
     15 N3          0.2158   -4.4241   -3.3783 N.pl3     1 <0>        -0.4779
     16 C12         0.8759   -4.4130   -2.2526 C.cat     1 <0>         0.2832
     17 H2         -0.9613    1.8849    0.0259 H         1 <0>         0.1302
     18 H3          1.1388    3.1630    0.0081 H         1 <0>         0.1339
     19 H4          3.3028    2.0064   -0.0198 H         1 <0>         0.1275
     20 H5         -0.9246   -0.5587    0.0082 H         1 <0>         0.1197
     21 H6          3.5346   -3.0459   -0.0490 H         1 <0>         0.1778
     22 H7          1.1742   -4.1414    0.4036 H         1 <0>         0.1265
     23 H8         -0.2127   -3.0396    0.5787 H         1 <0>         0.1286
     24 H9         -1.5423   -2.3480   -1.6532 H         1 <0>         0.2184
     25 H10        -1.5597   -3.3984   -4.0590 H         1 <0>         0.2215
     26 H11         1.7698   -4.9812   -2.0414 H         1 <0>         0.2564
     27 H12         0.4503   -4.9458   -4.1617 H         1 <0>         0.4632
@<TRIPOS>BOND
     1    1    6 ar
     2    1    2 ar
     3    1   17 1
     4    2    3 ar
     5    2   18 1
     6    3    4 ar
     7    3   19 1
     8    4    9 1
     9    4    5 ar
    10    5    6 ar
    11    5    7 1
    12    6   20 1
    13    7    8 2
    14    7   11 1
    15    8    9 1
    16    8   21 1
    17    9   10 1
    18   11   12 1
    19   11   22 1
    20   11   23 1
    21   12   16 1
    22   12   13 1
    23   13   14 2
    24   13   24 1
    25   14   15 1
    26   14   25 1
    27   15   16 2
    28   15   27 1
    29   16   26 1
@<TRIPOS>MOLECULE
ZINC00293947
   26    28     0     0     0
SMALL
USER_CHARGES

@<TRIPOS>ATOM
      1 C1         -0.0165    1.3620    0.0095 C.ar      1 <0>        -0.1392
      2 C2          1.1697    2.0834    0.0021 C.ar      1 <0>        -0.0977
      3 C3          2.3856    1.4362   -0.0134 C.ar      1 <0>        -0.1268
      4 C4          2.4281    0.0456   -0.0212 C.ar      1 <0>         0.0931
      5 C5          1.2234   -0.6807   -0.0132 C.ar      1 <0>        -0.0917
      6 C6          0.0021   -0.0041    0.0020 C.ar      1 <0>        -0.0740
      7 C7          1.6036   -2.0953   -0.0245 C.2       1 <0>        -0.2095
      8 C8          2.9451   -2.1410   -0.0380 C.2       1 <0>         0.0854
      9 N1          3.4551   -0.8713   -0.0363 N.pl3     1 <0>        -0.5910
     10 H1          4.3995   -0.6501   -0.0442 H         1 <0>         0.4193
     11 C9          0.6664   -3.2754   -0.0210 C.3       1 <0>         0.1825
     12 N2          0.2544   -3.5758   -1.3944 N.pl3     1 <0>        -0.4523
     13 C10        -0.8295   -3.0561   -2.0493 C.2       1 <0>        -0.0492
     14 C11        -0.8355   -3.5967   -3.2827 C.2       1 <0>        -0.0336
     15 N3          0.2159   -4.4239   -3.3784 N.2       1 <0>        -0.4971
     16 C12         0.8762   -4.4126   -2.2528 C.2       1 <0>         0.1791
     17 H2         -0.9613    1.8849    0.0259 H         1 <0>         0.1246
     18 H3          1.1388    3.1630    0.0081 H         1 <0>         0.1274
     19 H4          3.3028    2.0064   -0.0198 H         1 <0>         0.1215
     20 H5         -0.9246   -0.5587    0.0082 H         1 <0>         0.1191
     21 H6          3.5346   -3.0459   -0.0490 H         1 <0>         0.1735
     22 H7          1.1742   -4.1414    0.4036 H         1 <0>         0.1012
     23 H8         -0.2127   -3.0396    0.5787 H         1 <0>         0.0985
     24 H9         -1.5429   -2.3487   -1.6529 H         1 <0>         0.1696
     25 H10        -1.5600   -3.3988   -4.0588 H         1 <0>         0.1669
     26 H11         1.7703   -4.9805   -2.0417 H         1 <0>         0.2003
@<TRIPOS>BOND
     1    1    6 ar
     2    1    2 ar
     3    1   17 1
     4    2    3 ar
     5    2   18 1
     6    3    4 ar
     7    3   19 1
     8    4    9 1
     9    4    5 ar
    10    5    6 ar
    11    5    7 1
    12    6   20 1
    13    7    8 2
    14    7   11 1
    15    8    9 1
    16    8   21 1
    17    9   10 1
    18   11   12 1
    19   11   22 1
    20   11   23 1
    21   12   16 1
    22   12   13 1
    23   13   14 2
    24   13   24 1
    25   14   15 1
    26   14   25 1
    27   15   16 2
    28   16   26 1
