@<TRIPOS>MOLECULE
ZINC00410207
   26    28     0     0     0
SMALL
USER_CHARGES
3-(2-iodophenyl)-4-oxa-2-azabicyclo[4.4.0]deca-2,7,9,11-tetraen-5-one
@<TRIPOS>ATOM
      1 C1          0.0282    4.1301    0.0249 C.ar      1 <0>        -0.1304
      2 C2         -1.1806    3.4467    0.0323 C.ar      1 <0>        -0.0668
      3 C3         -1.2131    2.0699    0.0305 C.ar      1 <0>        -0.0969
      4 C4         -0.0163    1.3506    0.0095 C.ar      1 <0>         0.1556
      5 C5          1.2126    2.0500    0.0015 C.ar      1 <0>        -0.2269
      6 C6          1.2228    3.4425    0.0093 C.ar      1 <0>        -0.0331
      7 C7          2.4534    1.2611   -0.0141 C.2       1 <0>         0.5287
      8 O1          3.5441    1.7994   -0.0216 O.2       1 <0>        -0.4356
      9 O2          2.3353   -0.0854   -0.0202 O.3       1 <0>        -0.3043
     10 C8          1.1256   -0.6706   -0.0123 C.2       1 <0>         0.3971
     11 N1          0.0021   -0.0041    0.0020 N.2       1 <0>        -0.4880
     12 C9          1.0629   -2.1460   -0.0196 C.ar      1 <0>        -0.0426
     13 C10         2.2396   -2.8981   -0.0348 C.ar      1 <0>        -0.0671
     14 C11         2.1737   -4.2756   -0.0417 C.ar      1 <0>        -0.1100
     15 C12         0.9454   -4.9133   -0.0334 C.ar      1 <0>        -0.0808
     16 C13        -0.2243   -4.1753   -0.0183 C.ar      1 <0>        -0.0920
     17 C14        -0.1735   -2.7958   -0.0055 C.ar      1 <0>        -0.0571
     18 I1         -1.9462   -1.6798    0.0262 I         1 <0>         0.0205
     19 H1          0.0324    5.2101    0.0310 H         1 <0>         0.1393
     20 H2         -2.1070    4.0018    0.0441 H         1 <0>         0.1400
     21 H3         -2.1592    1.5492    0.0407 H         1 <0>         0.1417
     22 H4          2.1597    3.9797    0.0036 H         1 <0>         0.1425
     23 H5          3.1989   -2.4021   -0.0417 H         1 <0>         0.1440
     24 H6          3.0830   -4.8582   -0.0531 H         1 <0>         0.1405
     25 H7          0.9000   -5.9924   -0.0384 H         1 <0>         0.1401
     26 H8         -1.1795   -4.6793   -0.0123 H         1 <0>         0.1414
@<TRIPOS>BOND
     1    1    6 ar
     2    1    2 ar
     3    1   19 1
     4    2    3 ar
     5    2   20 1
     6    3    4 ar
     7    3   21 1
     8    4   11 1
     9    4    5 ar
    10    5    6 ar
    11    5    7 1
    12    6   22 1
    13    7    8 2
    14    7    9 1
    15    9   10 1
    16   10   11 2
    17   10   12 1
    18   12   17 ar
    19   12   13 ar
    20   13   14 ar
    21   13   23 1
    22   14   15 ar
    23   14   24 1
    24   15   16 ar
    25   15   25 1
    26   16   17 ar
    27   16   26 1
    28   17   18 1
@<TRIPOS>MOLECULE
ZINC00001763
   45    47     0     0     0
SMALL
USER_CHARGES

@<TRIPOS>ATOM
      1 C1          0.4307    0.2502    2.0676 C.ar      1 <0>        -0.0153
      2 C2          1.6219    0.9331    2.1617 C.ar      1 <0>        -0.1193
      3 C3          2.6604    0.6489    1.2801 C.ar      1 <0>         0.1435
      4 C4          2.4990   -0.3267    0.3008 C.ar      1 <0>        -0.1724
      5 C5          1.3106   -1.0136    0.2008 C.ar      1 <0>        -0.0246
      6 C6          0.2649   -0.7307    1.0849 C.ar      1 <0>        -0.1135
      7 C7         -1.0096   -1.4644    0.9809 C.2       1 <0>         0.5087
      8 O1         -1.9176   -1.2170    1.7498 O.2       1 <0>        -0.4667
      9 O2         -1.1677   -2.4095    0.0332 O.3       1 <0>        -0.2923
     10 C8         -2.3923   -2.9828   -0.0978 C.ar      1 <0>         0.1259
     11 C9         -3.4217   -2.2783   -0.7313 C.ar      1 <0>        -0.1152
     12 C10        -4.6566   -2.8272   -0.8764 C.ar      1 <0>        -0.0682
     13 C11        -4.9108   -4.1213   -0.3857 C.ar      1 <0>        -0.0654
     14 C12        -6.1763   -4.7102   -0.5232 C.ar      1 <0>        -0.0099
     15 C13        -6.3918   -5.9856   -0.0291 C.ar      1 <0>        -0.1471
     16 C14        -5.3542   -6.6900    0.6072 C.ar      1 <0>        -0.0871
     17 C15        -4.1234   -6.1364    0.7499 C.ar      1 <0>        -0.0773
     18 C16        -3.8721   -4.8419    0.2575 C.ar      1 <0>        -0.0011
     19 C17        -2.6050   -4.2525    0.3893 C.ar      1 <0>        -0.1091
     20 C18        -7.7236   -6.6117   -0.1711 C.cat     1 <0>         0.5988
     21 N1         -7.9368   -7.8384    0.3023 N.pl3     1 <0>        -0.7582
     22 N2         -8.7104   -5.9491   -0.7725 N.pl3     1 <0>        -0.7622
     23 N3          3.8650    1.3431    1.3778 N.pl3     1 <0>        -0.6394
     24 C19         5.0543    0.6734    1.2516 C.cat     1 <0>         0.7482
     25 N4          6.2001    1.3513    1.2200 N.pl3     1 <0>        -0.7807
     26 N5          5.0638   -0.6552    1.1604 N.pl3     1 <0>        -0.7908
     27 H1         -0.3734    0.4685    2.7547 H         1 <0>         0.1604
     28 H2          1.7507    1.6909    2.9204 H         1 <0>         0.1556
     29 H3          3.3071   -0.5447   -0.3817 H         1 <0>         0.1475
     30 H4          1.1857   -1.7701   -0.5598 H         1 <0>         0.1596
     31 H5         -3.2326   -1.2847   -1.1100 H         1 <0>         0.1435
     32 H6         -5.4416   -2.2709   -1.3671 H         1 <0>         0.1506
     33 H7         -6.9764   -4.1730   -1.0105 H         1 <0>         0.1463
     34 H8         -5.5392   -7.6838    0.9873 H         1 <0>         0.1398
     35 H9         -3.3365   -6.6892    1.2415 H         1 <0>         0.1528
     36 H10        -1.8032   -4.7903    0.8733 H         1 <0>         0.1514
     37 H11        -7.2183   -8.3209    0.7403 H         1 <0>         0.4450
     38 H12        -8.5551   -5.0558   -1.1173 H         1 <0>         0.4433
     39 H13        -9.5841   -6.3598   -0.8657 H         1 <0>         0.4357
     40 H14         3.8617    2.3003    1.5351 H         1 <0>         0.4483
     41 H15         6.1931    2.3190    1.2864 H         1 <0>         0.4449
     42 H16         4.2274   -1.1445    1.1178 H         1 <0>         0.4412
     43 H17         5.9073   -1.1336    1.1367 H         1 <0>         0.4432
     44 H18        -8.8106   -8.2492    0.2091 H         1 <0>         0.4352
     45 H19         7.0417    0.8773    1.1307 H         1 <0>         0.4465
@<TRIPOS>BOND
     1    1    6 ar
     2    1    2 ar
     3    1   27 1
     4    2    3 ar
     5    2   28 1
     6    3    4 ar
     7    3   23 1
     8    4    5 ar
     9    4   29 1
    10    5    6 ar
    11    5   30 1
    12    6    7 1
    13    7    8 2
    14    7    9 1
    15    9   10 1
    16   10   19 ar
    17   10   11 ar
    18   11   12 ar
    19   11   31 1
    20   12   13 ar
    21   12   32 1
    22   13   18 ar
    23   13   14 ar
    24   14   15 ar
    25   14   33 1
    26   15   16 ar
    27   15   20 1
    28   16   17 ar
    29   16   34 1
    30   17   18 ar
    31   17   35 1
    32   18   19 ar
    33   19   36 1
    34   20   21 2
    35   20   22 1
    36   21   37 1
    37   21   44 1
    38   22   38 1
    39   22   39 1
    40   23   24 1
    41   23   40 1
    42   24   25 2
    43   24   26 1
    44   25   41 1
    45   25   45 1
    46   26   42 1
    47   26   43 1
