@<TRIPOS>MOLECULE
ZINC00005152
   28    27     0     0     0
SMALL
USER_CHARGES

@<TRIPOS>ATOM
      1 C1         -0.0284    1.4730    0.3254 C.3       1 <0>        -0.1526
      2 C2         -0.0192   -0.0501    0.1800 C.3       1 <0>        -0.1012
      3 C3          0.6151   -0.6772    1.4231 C.3       1 <0>        -0.1565
      4 C4         -1.4550   -0.5567    0.0292 C.3       1 <0>        -0.1297
      5 C5         -1.4383   -2.0610   -0.2495 C.3       1 <0>        -0.0924
      6 H1         -0.8692   -2.5686    0.5293 H         1 <0>         0.1204
      7 C6         -2.8727   -2.5933   -0.2618 C.3       1 <0>        -0.1975
      8 C7         -2.8509   -4.0925   -0.4137 C.2       1 <0>         0.4813
      9 O1         -1.7868   -4.6806   -0.5038 O.co2     1 <0>        -0.6916
     10 O2         -3.8974   -4.7171   -0.4466 O.co2     1 <0>        -0.6804
     11 C8         -0.7863   -2.3206   -1.6090 C.3       1 <0>        -0.0107
     12 N1         -1.4913   -1.5537   -2.6447 N.4       1 <0>        -0.6381
     13 H2          0.9945    1.8339    0.4328 H         1 <0>         0.0589
     14 H3         -0.4803    1.9198   -0.5602 H         1 <0>         0.0515
     15 H4         -0.6060    1.7503    1.2072 H         1 <0>         0.0597
     16 H5          0.5584   -0.3274   -0.7018 H         1 <0>         0.0646
     17 H6          0.6216   -1.7622    1.3195 H         1 <0>         0.0640
     18 H7          1.6379   -0.3162    1.5305 H         1 <0>         0.0574
     19 H8          0.0374   -0.3999    2.3049 H         1 <0>         0.0595
     20 H9         -2.0068   -0.3637    0.9492 H         1 <0>         0.0864
     21 H10        -1.9378   -0.0390   -0.7995 H         1 <0>         0.0490
     22 H11        -3.3660   -2.3301    0.6738 H         1 <0>         0.0816
     23 H12        -3.4171   -2.1514   -1.0964 H         1 <0>         0.0499
     24 H13         0.2584   -2.0114   -1.5759 H         1 <0>         0.1213
     25 H14        -0.8433   -3.3839   -1.8422 H         1 <0>         0.1618
     26 H15        -2.4413   -1.8852   -2.7206 H         1 <0>         0.4336
     27 H16        -1.4953   -0.5760   -2.3951 H         1 <0>         0.4206
     28 H17        -1.0217   -1.6729   -3.5297 H         1 <0>         0.4289
@<TRIPOS>BOND
     1    1    2 1
     2    1   13 1
     3    1   14 1
     4    1   15 1
     5    2    3 1
     6    2    4 1
     7    2   16 1
     8    3   17 1
     9    3   18 1
    10    3   19 1
    11    4    5 1
    12    4   20 1
    13    4   21 1
    14    5    6 1
    15    5    7 1
    16    5   11 1
    17    7    8 1
    18    7   22 1
    19    7   23 1
    20    8    9 2
    21    8   10 1
    22   11   12 1
    23   11   24 1
    24   11   25 1
    25   12   26 1
    26   12   27 1
    27   12   28 1
@<TRIPOS>MOLECULE
ZINC05760031
   28    27     0     0     0
SMALL
USER_CHARGES

@<TRIPOS>ATOM
      1 C1         -2.2188    1.7882   -0.0185 C.3       1 <0>        -0.1489
      2 C2         -1.7113    0.4947   -0.6589 C.3       1 <0>        -0.1005
      3 C3         -0.4837    0.7993   -1.5198 C.3       1 <0>        -0.1545
      4 C4         -1.3306   -0.5021    0.4376 C.3       1 <0>        -0.1237
      5 C5         -0.9380   -1.8364   -0.1999 C.3       1 <0>        -0.0929
      6 H1         -0.1555   -1.6691   -0.9400 H         1 <0>         0.0999
      7 C6         -2.1603   -2.4553   -0.8811 C.3       1 <0>        -0.1830
      8 C7         -1.7415   -3.6871   -1.6415 C.2       1 <0>         0.4857
      9 O1         -0.5597   -3.9703   -1.7401 O.co2     1 <0>        -0.7054
     10 O2         -2.5845   -4.4006   -2.1581 O.co2     1 <0>        -0.6821
     11 C8         -0.4217   -2.7865    0.8825 C.3       1 <0>        -0.0066
     12 N1          0.8296   -2.2579    1.4417 N.4       1 <0>        -0.6342
     13 H2         -2.4900    2.4983   -0.7997 H         1 <0>         0.0580
     14 H3         -3.0934    1.5712    0.5948 H         1 <0>         0.0552
     15 H4         -1.4346    2.2167    0.6056 H         1 <0>         0.0513
     16 H5         -2.4955    0.0663   -1.2831 H         1 <0>         0.0825
     17 H6         -0.1200   -0.1228   -1.9732 H         1 <0>         0.0622
     18 H7         -0.7557    1.5067   -2.3032 H         1 <0>         0.0585
     19 H8          0.2993    1.2310   -0.8963 H         1 <0>         0.0499
     20 H9         -0.4886   -0.1104    1.0083 H         1 <0>         0.0479
     21 H10        -2.1811   -0.6533    1.1024 H         1 <0>         0.0726
     22 H11        -2.8979   -2.7276   -0.1262 H         1 <0>         0.0667
     23 H12        -2.5963   -1.7330   -1.5712 H         1 <0>         0.0806
     24 H13        -1.1655   -2.8733    1.6746 H         1 <0>         0.1204
     25 H14        -0.2387   -3.7686    0.4467 H         1 <0>         0.1533
     26 H15         1.4858   -2.0863    0.6946 H         1 <0>         0.4342
     27 H16         0.6420   -1.3948    1.9294 H         1 <0>         0.4224
     28 H17         1.2207   -2.9296    2.0851 H         1 <0>         0.4303
@<TRIPOS>BOND
     1    1    2 1
     2    1   13 1
     3    1   14 1
     4    1   15 1
     5    2    3 1
     6    2    4 1
     7    2   16 1
     8    3   17 1
     9    3   18 1
    10    3   19 1
    11    4    5 1
    12    4   20 1
    13    4   21 1
    14    5    6 1
    15    5    7 1
    16    5   11 1
    17    7    8 1
    18    7   22 1
    19    7   23 1
    20    8    9 2
    21    8   10 1
    22   11   12 1
    23   11   24 1
    24   11   25 1
    25   12   26 1
    26   12   27 1
    27   12   28 1
@<TRIPOS>MOLECULE
ZINC01016776
   51    54     0     0     0
SMALL
USER_CHARGES
8-(4-ethoxyphenyl)-2,9-dimethyl-5-(1-piperidyl)-3,4,7,8-tetrazabicyclo[4.3.0]nona-2,4,6,9-tetraene
@<TRIPOS>ATOM
      1 C1         12.3994    4.5837   -0.7332 C.3       1 <0>        -0.1540
      2 C2         10.8944    4.3571   -0.8899 C.3       1 <0>         0.0509
      3 O1         10.1842    5.3022   -0.0872 O.3       1 <0>        -0.3093
      4 C3          8.8269    5.2369   -0.1126 C.ar      1 <0>         0.1487
      5 C4          8.0755    6.1252    0.6436 C.ar      1 <0>        -0.1348
      6 C5          6.6969    6.0591    0.6185 C.ar      1 <0>        -0.0723
      7 C6          6.0620    5.1033   -0.1638 C.ar      1 <0>         0.0824
      8 C7          6.8146    4.2111   -0.9163 C.ar      1 <0>        -0.0493
      9 C8          8.1930    4.2816   -0.8945 C.ar      1 <0>        -0.1944
     10 N1          4.6624    5.0353   -0.1893 N.pl3     1 <0>        -0.2696
     11 C9          3.8388    6.0959   -0.2558 C.2       1 <0>         0.1473
     12 C10         2.5443    5.6259   -0.2609 C.ar      1 <0>        -0.2331
     13 C11         1.2484    6.1843   -0.3131 C.ar      1 <0>         0.1640
     14 N2          0.2049    5.3953   -0.2975 N.ar      1 <0>        -0.2845
     15 N3          0.2500    4.1196   -0.2435 N.ar      1 <0>        -0.2915
     16 C12         1.3695    3.4233   -0.1827 C.ar      1 <0>         0.3219
     17 C13         2.6359    4.1540   -0.1904 C.ar      1 <0>         0.0761
     18 N4          3.9132    3.8519   -0.1497 N.2       1 <0>        -0.2511
     19 N5          1.3455    2.0392   -0.1191 N.pl3     1 <0>        -0.4577
     20 C14        -0.0341    1.5360   -0.1243 C.3       1 <0>         0.0629
     21 C15        -0.0207    0.0075   -0.2003 C.3       1 <0>        -0.1205
     22 C16         0.7420   -0.5518    1.0039 C.3       1 <0>        -0.1253
     23 C17         2.1602    0.0254    1.0129 C.3       1 <0>        -0.1158
     24 C18         2.0835    1.5533    1.0537 C.3       1 <0>         0.0581
     25 C19         1.0686    7.6788   -0.3860 C.3       1 <0>        -0.1036
     26 C20         4.2578    7.5423   -0.3150 C.3       1 <0>        -0.1073
     27 H1         12.9411    3.8627   -1.3455 H         1 <0>         0.0817
     28 H2         12.6500    5.5945   -1.0549 H         1 <0>         0.0682
     29 H3         12.6792    4.4552    0.3124 H         1 <0>         0.0682
     30 H4         10.6437    3.3462   -0.5682 H         1 <0>         0.0662
     31 H5         10.6146    4.4855   -1.9355 H         1 <0>         0.0661
     32 H6          8.5693    6.8687    1.2516 H         1 <0>         0.1470
     33 H7          6.1122    6.7503    1.2074 H         1 <0>         0.1416
     34 H8          6.3215    3.4649   -1.5217 H         1 <0>         0.1390
     35 H9          8.7784    3.5903   -1.4825 H         1 <0>         0.1417
     36 H10        -0.5640    1.9379   -0.9878 H         1 <0>         0.0911
     37 H11        -0.5385    1.8498    0.7896 H         1 <0>         0.0550
     38 H12        -1.0445   -0.3664   -0.1883 H         1 <0>         0.0758
     39 H13         0.4714   -0.3068   -1.1207 H         1 <0>         0.0723
     40 H14         0.2283   -0.2704    1.9232 H         1 <0>         0.0623
     41 H15         0.7913   -1.6383    0.9312 H         1 <0>         0.0691
     42 H16         2.6945   -0.3358    1.8916 H         1 <0>         0.0742
     43 H17         2.6866   -0.2886    0.1116 H         1 <0>         0.0749
     44 H18         1.5692    1.8670    1.9621 H         1 <0>         0.0466
     45 H19         3.0916    1.9678    1.0458 H         1 <0>         0.0894
     46 H20         1.0462    7.9916   -1.4299 H         1 <0>         0.0856
     47 H21         0.1314    7.9559    0.0966 H         1 <0>         0.0858
     48 H22         1.8983    8.1698    0.1227 H         1 <0>         0.0777
     49 H23         4.2479    7.9647    0.6898 H         1 <0>         0.0967
     50 H24         5.2637    7.6125   -0.7288 H         1 <0>         0.0852
     51 H25         3.5647    8.0957   -0.9486 H         1 <0>         0.1006
@<TRIPOS>BOND
     1    1    2 1
     2    1   27 1
     3    1   28 1
     4    1   29 1
     5    2    3 1
     6    2   30 1
     7    2   31 1
     8    3    4 1
     9    4    9 ar
    10    4    5 ar
    11    5    6 ar
    12    5   32 1
    13    6    7 ar
    14    6   33 1
    15    7    8 ar
    16    7   10 1
    17    8    9 ar
    18    8   34 1
    19    9   35 1
    20   10   18 1
    21   10   11 1
    22   11   12 2
    23   11   26 1
    24   12   17 ar
    25   12   13 ar
    26   13   14 ar
    27   13   25 1
    28   14   15 ar
    29   15   16 ar
    30   16   17 ar
    31   16   19 1
    32   17   18 2
    33   19   24 1
    34   19   20 1
    35   20   21 1
    36   20   36 1
    37   20   37 1
    38   21   22 1
    39   21   38 1
    40   21   39 1
    41   22   23 1
    42   22   40 1
    43   22   41 1
    44   23   24 1
    45   23   42 1
    46   23   43 1
    47   24   44 1
    48   24   45 1
    49   25   46 1
    50   25   47 1
    51   25   48 1
    52   26   49 1
    53   26   50 1
    54   26   51 1
@<TRIPOS>MOLECULE
ZINC13641418
   34    33     0     0     0
SMALL
USER_CHARGES
(3R)-3-(aminomethyl)-5-ethyl-heptanoic acid
@<TRIPOS>ATOM
      1 C1          2.2017    2.0695    1.2002 C.3       1 <0>        -0.1554
      2 C2          1.3848    2.2063   -0.0862 C.3       1 <0>        -0.1246
      3 C3          0.0654    1.4465    0.0643 C.3       1 <0>        -0.0852
      4 C4         -0.6843    1.4571   -1.2695 C.3       1 <0>        -0.1214
      5 C5          0.1098    0.6611   -2.3072 C.3       1 <0>        -0.1547
      6 C6         -0.7922    2.1213    1.1367 C.3       1 <0>        -0.1115
      7 C7         -2.0555    1.2920    1.3758 C.3       1 <0>        -0.1001
      8 H1         -2.5780    1.1449    0.4306 H         1 <0>         0.1012
      9 C8         -2.9713    2.0286    2.3554 C.3       1 <0>        -0.1704
     10 C9         -3.4777    3.2949    1.7143 C.2       1 <0>         0.4565
     11 O1         -3.2329    3.5241    0.5536 O.co2     1 <0>        -0.6247
     12 C10        -1.6698   -0.0675    1.9622 C.3       1 <0>        -0.0089
     13 H2          2.4711    1.0239    1.3501 H         1 <0>         0.0487
     14 H3          3.1077    2.6703    1.1209 H         1 <0>         0.0543
     15 H4          1.6084    2.4167    2.0460 H         1 <0>         0.0571
     16 H5          1.9497    1.7916   -0.9212 H         1 <0>         0.0646
     17 H6          1.1780    3.2597   -0.2750 H         1 <0>         0.0670
     18 H7          0.2704    0.4169    0.3576 H         1 <0>         0.0585
     19 H8         -1.6667    1.0037   -1.1377 H         1 <0>         0.0602
     20 H9         -0.8016    2.4852   -1.6121 H         1 <0>         0.0722
     21 H10         0.3090   -0.3393   -1.9230 H         1 <0>         0.0468
     22 H11        -0.4676    0.5882   -3.2288 H         1 <0>         0.0531
     23 H12         1.0537    1.1675   -2.5089 H         1 <0>         0.0564
     24 H13        -0.2240    2.1934    2.0641 H         1 <0>         0.0644
     25 H14        -1.0714    3.1207    0.8030 H         1 <0>         0.1044
     26 H15        -3.8156    1.3896    2.6142 H         1 <0>         0.0537
     27 H16        -2.4132    2.2765    3.2583 H         1 <0>         0.0784
     28 H17        -0.9631   -0.5630    1.2965 H         1 <0>         0.1319
     29 H18        -1.2090    0.0759    2.9396 H         1 <0>         0.1273
     30 H19        -3.3080   -1.0616    1.2097 H         1 <0>         0.4345
     31 H20        -2.6580   -1.7693    2.5671 H         1 <0>         0.4312
     32 O2         -4.2009    4.1682    2.4328 O.co2     1 <0>        -0.7568
     33 N1         -2.8869   -0.8831    2.1199 N.4       1 <0>        -0.6467
     34 H21        -3.5595   -0.3757    2.7066 H         1 <0>         0.4380
@<TRIPOS>BOND
     1    1    2 1
     2    1   13 1
     3    1   14 1
     4    1   15 1
     5    2    3 1
     6    2   16 1
     7    2   17 1
     8    3    4 1
     9    3    6 1
    10    3   18 1
    11    4    5 1
    12    4   19 1
    13    4   20 1
    14    5   21 1
    15    5   22 1
    16    5   23 1
    17    6    7 1
    18    6   24 1
    19    6   25 1
    20    7    8 1
    21    7    9 1
    22    7   12 1
    23    9   10 1
    24    9   26 1
    25    9   27 1
    26   10   11 2
    27   10   32 1
    28   12   28 1
    29   12   29 1
    30   12   33 1
    31   30   33 1
    32   31   33 1
    33   33   34 1
@<TRIPOS>MOLECULE
ZINC13641421
   34    33     0     0     0
SMALL
USER_CHARGES
(3S)-3-(aminomethyl)-5-ethyl-heptanoic acid
@<TRIPOS>ATOM
      1 C1         -0.4716    1.8475   -0.8823 C.3       1 <0>        -0.1905
      2 C2         -0.3301    1.0578    0.4205 C.3       1 <0>        -0.1381
      3 C3         -1.1328    1.7481    1.5251 C.3       1 <0>        -0.0948
      4 C4         -0.3940    1.6057    2.8573 C.3       1 <0>        -0.1264
      5 C5          0.9335    2.3632    2.7879 C.3       1 <0>        -0.1627
      6 C6         -2.5131    1.0972    1.6353 C.3       1 <0>        -0.1368
      7 C7         -3.3148    1.3833    0.3639 C.3       1 <0>        -0.1001
      8 H1         -2.7216    1.1103   -0.5088 H         1 <0>         0.1041
      9 C8         -4.6061    0.5630    0.3799 C.3       1 <0>        -0.1565
     10 C9         -5.3361    0.7498   -0.9252 C.2       1 <0>         0.4560
     11 O1         -4.8712    1.4657   -1.7803 O.co2     1 <0>        -0.6491
     12 C10        -3.6577    2.8731    0.3017 C.3       1 <0>        -0.0061
     13 H2         -1.4942    1.7619   -1.2498 H         1 <0>         0.0740
     14 H3         -0.2382    2.8962   -0.6986 H         1 <0>         0.0469
     15 H4          0.2167    1.4470   -1.6265 H         1 <0>         0.0810
     16 H5         -0.7082    0.0459    0.2749 H         1 <0>         0.0867
     17 H6          0.7206    1.0153    0.7073 H         1 <0>         0.0826
     18 H7         -1.2476    2.8049    1.2844 H         1 <0>         0.0595
     19 H8         -1.0067    2.0189    3.6585 H         1 <0>         0.0715
     20 H9         -0.2007    0.5513    3.0547 H         1 <0>         0.0806
     21 H10         1.5462    1.9500    1.9866 H         1 <0>         0.0630
     22 H11         0.7402    3.4176    2.5905 H         1 <0>         0.0505
     23 H12         1.4598    2.2618    3.7370 H         1 <0>         0.0638
     24 H13        -2.3982    0.0202    1.7577 H         1 <0>         0.0933
     25 H14        -3.0401    1.5067    2.4970 H         1 <0>         0.0775
     26 H15        -4.3650   -0.4916    0.5135 H         1 <0>         0.0842
     27 H16        -5.2392    0.8979    1.2015 H         1 <0>         0.0752
     28 H17        -4.3306    3.0564   -0.5360 H         1 <0>         0.1560
     29 H18        -4.1433    3.1732    1.2302 H         1 <0>         0.1167
     30 H19        -2.0178    3.4770   -0.7867 H         1 <0>         0.4267
     31 H20        -2.5972    4.6371    0.2547 H         1 <0>         0.4181
     32 O2         -6.5028    0.1210   -1.1377 O.co2     1 <0>        -0.7484
     33 N1         -2.4115    3.6423    0.1382 N.4       1 <0>        -0.6794
     34 H21        -1.7341    3.3424    0.8491 H         1 <0>         0.4210
@<TRIPOS>BOND
     1    1    2 1
     2    1   13 1
     3    1   14 1
     4    1   15 1
     5    2    3 1
     6    2   16 1
     7    2   17 1
     8    3    4 1
     9    3    6 1
    10    3   18 1
    11    4    5 1
    12    4   19 1
    13    4   20 1
    14    5   21 1
    15    5   22 1
    16    5   23 1
    17    6    7 1
    18    6   24 1
    19    6   25 1
    20    7    8 1
    21    7    9 1
    22    7   12 1
    23    9   10 1
    24    9   26 1
    25    9   27 1
    26   10   11 2
    27   10   32 1
    28   12   28 1
    29   12   29 1
    30   12   33 1
    31   30   33 1
    32   31   33 1
    33   33   34 1
@<TRIPOS>MOLECULE
ZINC13641463
   31    30     0     0     0
SMALL
USER_CHARGES

@<TRIPOS>ATOM
      1 C1         -0.3022    1.5407   -0.4091 C.3       1 <0>        -0.1604
      2 C2         -0.2582    0.0164   -0.2845 C.3       1 <0>        -0.1007
      3 H1         -1.2482   -0.3933   -0.4847 H         1 <0>         0.0914
      4 C3          0.7416   -0.5492   -1.2952 C.3       1 <0>        -0.0837
      5 H2          0.8713   -1.6171   -1.1194 H         1 <0>         0.0968
      6 C4          0.2141   -0.3262   -2.7139 C.3       1 <0>        -0.1836
      7 C5          1.1141   -1.0252   -3.7001 C.2       1 <0>         0.4876
      8 O1          2.0872   -1.6443   -3.3048 O.co2     1 <0>        -0.7112
      9 O2          0.8691   -0.9716   -4.8933 O.co2     1 <0>        -0.6800
     10 C6          2.0871    0.1612   -1.1338 C.3       1 <0>        -0.0090
     11 N1          2.8789   -0.5186   -0.0999 N.4       1 <0>        -0.6397
     12 C7          0.1758   -0.3673    1.1316 C.3       1 <0>        -0.0957
     13 C8         -0.8390    0.1745    2.1403 C.3       1 <0>        -0.1517
     14 C9          0.2468   -1.8912    1.2479 C.3       1 <0>        -0.1688
     15 H3          0.6442    1.9606   -0.0685 H         1 <0>         0.0511
     16 H4         -0.4677    1.8155   -1.4508 H         1 <0>         0.0704
     17 H5         -1.1146    1.9319    0.2033 H         1 <0>         0.0648
     18 H6         -0.7953   -0.7298   -2.7939 H         1 <0>         0.0766
     19 H7          0.1967    0.7417   -2.9315 H         1 <0>         0.0707
     20 H8          2.6271    0.1359   -2.0803 H         1 <0>         0.1485
     21 H9          1.9180    1.1970   -0.8395 H         1 <0>         0.1234
     22 H10         2.3631   -0.5272    0.7673 H         1 <0>         0.4170
     23 H11         3.0664   -1.4669   -0.3892 H         1 <0>         0.4375
     24 H12         1.1572    0.0591    1.3389 H         1 <0>         0.0475
     25 H13        -1.8205   -0.2519    1.9330 H         1 <0>         0.0640
     26 H14        -0.5299   -0.0989    3.1492 H         1 <0>         0.0581
     27 H15        -0.8897    1.2601    2.0574 H         1 <0>         0.0627
     28 H16         1.0197   -2.2710    0.5797 H         1 <0>         0.0521
     29 H17         0.4871   -2.1664    2.2749 H         1 <0>         0.0644
     30 H18        -0.7157   -2.3219    0.9721 H         1 <0>         0.0738
     31 H19         3.7510   -0.0286    0.0322 H         1 <0>         0.4259
@<TRIPOS>BOND
     1    1    2 1
     2    1   15 1
     3    1   16 1
     4    1   17 1
     5    2    3 1
     6    2    4 1
     7    2   12 1
     8    4    5 1
     9    4    6 1
    10    4   10 1
    11    6    7 1
    12    6   18 1
    13    6   19 1
    14    7    8 2
    15    7    9 1
    16   10   11 1
    17   10   20 1
    18   10   21 1
    19   11   22 1
    20   11   23 1
    21   11   31 1
    22   12   13 1
    23   12   14 1
    24   12   24 1
    25   13   25 1
    26   13   26 1
    27   13   27 1
    28   14   28 1
    29   14   29 1
    30   14   30 1
@<TRIPOS>MOLECULE
ZINC13641442
   34    33     0     0     0
SMALL
USER_CHARGES
(3R)-3-(aminomethyl)-3-ethyl-5-methyl-hexanoic acid
@<TRIPOS>ATOM
      1 C1         -0.5648    3.7395   -0.0780 C.3       1 <0>        -0.1549
      2 C2         -0.4476    2.2192   -0.2044 C.3       1 <0>        -0.1242
      3 C3         -1.5761    1.5534    0.5855 C.3       1 <0>        -0.0546
      4 C4         -1.4716    1.9522    2.0589 C.3       1 <0>        -0.1222
      5 C5         -0.0443    1.7084    2.5532 C.3       1 <0>        -0.1117
      6 C6          0.1446    2.3773    3.9163 C.3       1 <0>        -0.1505
      7 C7          0.1996    0.2038    2.6853 C.3       1 <0>        -0.1545
      8 C8         -2.9263    2.0089    0.0284 C.3       1 <0>        -0.1694
      9 C9         -3.0293    1.6160   -1.4228 C.2       1 <0>         0.4542
     10 O1         -2.1164    1.0316   -1.9568 O.co2     1 <0>        -0.6294
     11 C10        -1.4590    0.0331    0.4592 C.3       1 <0>        -0.0280
     12 H1          0.2392    4.2139   -0.6408 H         1 <0>         0.0564
     13 H2         -1.5267    4.0640   -0.4749 H         1 <0>         0.0603
     14 H3         -0.4903    4.0236    0.9716 H         1 <0>         0.0503
     15 H4          0.5143    1.8947    0.1925 H         1 <0>         0.0606
     16 H5         -0.5221    1.9351   -1.2541 H         1 <0>         0.1120
     17 H6         -1.7184    3.0083    2.1678 H         1 <0>         0.0891
     18 H7         -2.1671    1.3540    2.6475 H         1 <0>         0.0468
     19 H8          0.6641    2.1301    1.8403 H         1 <0>         0.0946
     20 H9         -0.5639    1.9556    4.6292 H         1 <0>         0.0529
     21 H10         1.1614    2.2036    4.2684 H         1 <0>         0.0585
     22 H11        -0.0292    3.4492    3.8221 H         1 <0>         0.0590
     23 H12         0.7135   -0.1605    1.7958 H         1 <0>         0.0681
     24 H13         0.8144    0.0112    3.5645 H         1 <0>         0.0694
     25 H14        -0.7553   -0.3113    2.7898 H         1 <0>         0.0297
     26 H15        -3.7303    1.5345    0.5911 H         1 <0>         0.0563
     27 H16        -3.0098    3.0919    0.1184 H         1 <0>         0.0912
     28 H17        -1.6617   -0.2626   -0.5702 H         1 <0>         0.1669
     29 H18        -0.4513   -0.2778    0.7348 H         1 <0>         0.1331
     30 H19        -2.3738   -1.6142    1.2885 H         1 <0>         0.4297
     31 H20        -2.3053   -0.3005    2.3060 H         1 <0>         0.4193
     32 O2         -4.1351    1.9153   -2.1223 O.co2     1 <0>        -0.7461
     33 N1         -2.4529   -0.6001    1.3437 N.4       1 <0>        -0.6486
     34 H21        -3.3954   -0.3210    1.0467 H         1 <0>         0.4356
@<TRIPOS>BOND
     1    1    2 1
     2    1   12 1
     3    1   13 1
     4    1   14 1
     5    2    3 1
     6    2   15 1
     7    2   16 1
     8    3    4 1
     9    3    8 1
    10    3   11 1
    11    4    5 1
    12    4   17 1
    13    4   18 1
    14    5    6 1
    15    5    7 1
    16    5   19 1
    17    6   20 1
    18    6   21 1
    19    6   22 1
    20    7   23 1
    21    7   24 1
    22    7   25 1
    23    8    9 1
    24    8   26 1
    25    8   27 1
    26    9   10 2
    27    9   32 1
    28   11   28 1
    29   11   29 1
    30   11   33 1
    31   30   33 1
    32   31   33 1
    33   33   34 1
@<TRIPOS>MOLECULE
ZINC13641445
   34    33     0     0     0
SMALL
USER_CHARGES
(3S)-3-(aminomethyl)-3-ethyl-5-methyl-hexanoic acid
@<TRIPOS>ATOM
      1 C1         -2.4735    2.6986   -1.6160 C.3       1 <0>        -0.1547
      2 C2         -2.3256    1.7987   -0.3876 C.3       1 <0>        -0.1240
      3 C3         -3.1737    2.3555    0.7576 C.3       1 <0>        -0.0548
      4 C4         -4.6464    2.3668    0.3429 C.3       1 <0>        -0.1241
      5 C5         -5.0437    0.9795   -0.1656 C.3       1 <0>        -0.1127
      6 C6         -5.1552    0.0155    1.0173 C.3       1 <0>        -0.1546
      7 C7         -6.3928    1.0660   -0.8820 C.3       1 <0>        -0.1506
      8 C8         -2.7234    3.7820    1.0789 C.3       1 <0>        -0.1688
      9 C9         -1.2729    3.7709    1.4874 C.2       1 <0>         0.4548
     10 O1         -0.6620    2.7289    1.5184 O.co2     1 <0>        -0.6298
     11 C10        -2.9995    1.4745    1.9964 C.3       1 <0>        -0.0261
     12 H1         -2.1369    3.7060   -1.3711 H         1 <0>         0.0608
     13 H2         -1.8693    2.3019   -2.4319 H         1 <0>         0.0564
     14 H3         -3.5198    2.7291   -1.9203 H         1 <0>         0.0499
     15 H4         -1.2794    1.7682   -0.0834 H         1 <0>         0.1118
     16 H5         -2.6623    0.7913   -0.6325 H         1 <0>         0.0606
     17 H6         -5.2638    2.6295    1.2019 H         1 <0>         0.0474
     18 H7         -4.7951    3.1005   -0.4494 H         1 <0>         0.0899
     19 H8         -4.2861    0.6164   -0.8601 H         1 <0>         0.0954
     20 H9         -5.2843    0.5839    1.9383 H         1 <0>         0.0280
     21 H10        -6.0136   -0.6404    0.8718 H         1 <0>         0.0718
     22 H11        -4.2473   -0.5838    1.0844 H         1 <0>         0.0696
     23 H12        -7.1318    1.5073   -0.2131 H         1 <0>         0.0534
     24 H13        -6.2922    1.6866   -1.7724 H         1 <0>         0.0595
     25 H14        -6.7156    0.0658   -1.1708 H         1 <0>         0.0588
     26 H15        -3.3276    4.1787    1.8948 H         1 <0>         0.0564
     27 H16        -2.8475    4.4096    0.1964 H         1 <0>         0.0911
     28 H17        -3.1974    0.4353    1.7338 H         1 <0>         0.1288
     29 H18        -1.9789    1.5675    2.3677 H         1 <0>         0.1699
     30 H19        -3.8455    1.3370    3.8682 H         1 <0>         0.4294
     31 H20        -3.8206    2.8824    3.2541 H         1 <0>         0.4320
     32 O2         -0.6581    4.9192    1.8115 O.co2     1 <0>        -0.7464
     33 N1         -3.9629    1.8996    3.0271 N.4       1 <0>        -0.6500
     34 H21        -4.9172    1.7730    2.6699 H         1 <0>         0.4208
@<TRIPOS>BOND
     1    1    2 1
     2    1   12 1
     3    1   13 1
     4    1   14 1
     5    2    3 1
     6    2   15 1
     7    2   16 1
     8    3    4 1
     9    3    8 1
    10    3   11 1
    11    4    5 1
    12    4   17 1
    13    4   18 1
    14    5    6 1
    15    5    7 1
    16    5   19 1
    17    6   20 1
    18    6   21 1
    19    6   22 1
    20    7   23 1
    21    7   24 1
    22    7   25 1
    23    8    9 1
    24    8   26 1
    25    8   27 1
    26    9   10 2
    27    9   32 1
    28   11   28 1
    29   11   29 1
    30   11   33 1
    31   30   33 1
    32   31   33 1
    33   33   34 1
@<TRIPOS>MOLECULE
ZINC13643095
   26    26     0     0     0
SMALL
USER_CHARGES
(1S,2R)-1-(aminomethyl)-2-isopropyl-cyclopropane-1-carboxylic acid
@<TRIPOS>ATOM
      1 C1          1.1979    6.0929    1.0638 C.3       1 <0>        -0.1567
      2 C2          2.2950    5.4559    0.2086 C.3       1 <0>        -0.0731
      3 C3          3.6491    6.0632    0.5809 C.3       1 <0>        -0.1464
      4 C4          2.3263    3.9470    0.4602 C.3       1 <0>        -0.0992
      5 H1          3.3172    3.4931    0.4746 H         1 <0>         0.1245
      6 C5          1.2692    3.3657    1.4013 C.3       1 <0>        -0.1574
      7 C6          1.1751    3.1126   -0.1047 C.3       1 <0>        -0.2148
      8 C7          0.0803    3.8504   -0.8779 C.3       1 <0>         0.0471
      9 C8          1.4978    1.7259   -0.5987 C.2       1 <0>         0.4928
     10 O1          2.6315    1.3121   -0.5395 O.co2     1 <0>        -0.5841
     11 H2          1.0852    7.1414    0.7881 H         1 <0>         0.0598
     12 H3          0.2565    5.5698    0.8957 H         1 <0>         0.0521
     13 H4          1.4703    6.0213    2.1167 H         1 <0>         0.0654
     14 H5          2.0897    5.6443   -0.8452 H         1 <0>         0.0735
     15 H6          4.4402    5.5498    0.0344 H         1 <0>         0.0606
     16 H7          3.6561    7.1218    0.3213 H         1 <0>         0.0569
     17 H8          3.8155    5.9507    1.6522 H         1 <0>         0.0587
     18 H9          0.5515    4.0582    1.8411 H         1 <0>         0.1053
     19 H10         1.5647    2.5293    2.0347 H         1 <0>         0.1027
     20 H11        -0.1384    4.7971   -0.3839 H         1 <0>         0.1230
     21 H12         0.4203    4.0417   -1.8957 H         1 <0>         0.1209
     22 H13        -1.4332    2.7799    0.0175 H         1 <0>         0.4234
     23 H14        -1.8730    3.4908   -1.4202 H         1 <0>         0.4151
     24 N1         -1.1256    3.0050   -0.9271 N.4       1 <0>        -0.6334
     25 H15        -0.9070    2.1339   -1.4248 H         1 <0>         0.4404
     26 O2          0.5259    0.9505   -1.1045 O.co2     1 <0>        -0.7571
@<TRIPOS>BOND
     1    1    2 1
     2    1   11 1
     3    1   12 1
     4    1   13 1
     5    2    3 1
     6    2    4 1
     7    2   14 1
     8    3   15 1
     9    3   16 1
    10    3   17 1
    11    4    5 1
    12    4    7 1
    13    4    6 1
    14    6    7 1
    15    6   18 1
    16    6   19 1
    17    7    8 1
    18    7    9 1
    19    8   20 1
    20    8   21 1
    21    8   24 1
    22    9   10 2
    23    9   26 1
    24   22   24 1
    25   23   24 1
    26   24   25 1
@<TRIPOS>MOLECULE
ZINC28476236
   26    26     0     0     0
SMALL
USER_CHARGES
(1R,2S)-1-(aminomethyl)-2-isopropyl-cyclopropane-1-carboxylic acid
@<TRIPOS>ATOM
      1 C1         -0.9272    2.1950    0.1530 C.3       1 <0>        -0.1513
      2 C2          0.4340    1.4969    0.1828 C.3       1 <0>        -0.0936
      3 C3          1.1888    1.9048    1.4495 C.3       1 <0>        -0.1486
      4 C4          0.2297   -0.0194    0.1768 C.3       1 <0>        -0.1519
      5 H1         -0.6294    0.0357    0.8616 H         1 <0>         0.1306
      6 C5          1.4766   -0.8998    0.0731 C.3       1 <0>        -0.1494
      7 C6          0.5318   -0.7678   -1.1230 C.3       1 <0>        -0.1508
      8 C7          1.0150    0.0573   -2.3174 C.3       1 <0>         0.0572
      9 N1          1.3793   -0.8432   -3.4193 N.4       1 <0>        -0.6660
     10 C8         -0.3340   -1.9544   -1.4601 C.2       1 <0>         0.4956
     11 O1         -1.2270   -2.2818   -0.7148 O.co2     1 <0>        -0.5723
     12 O2         -0.1132   -2.6474   -2.5882 O.co2     1 <0>        -0.7449
     13 H2         -1.4698    1.9017   -0.7578 H         1 <0>         0.0558
     14 H3         -0.7803    3.2851    0.1573 H         1 <0>         0.0569
     15 H4         -1.5100    1.9000    1.0381 H         1 <0>         0.0601
     16 H5          1.0169    1.7919   -0.7022 H         1 <0>         0.0573
     17 H6          2.1674    1.4029    1.4708 H         1 <0>         0.0549
     18 H7          0.6060    1.6098    2.3346 H         1 <0>         0.0590
     19 H8          1.3357    2.9949    1.4538 H         1 <0>         0.0565
     20 H9          2.3738   -0.2860    0.2410 H         1 <0>         0.1050
     21 H10         1.4286   -1.6944    0.8323 H         1 <0>         0.1046
     22 H11         0.2110    0.7323   -2.6460 H         1 <0>         0.1156
     23 H12         1.8935    0.6498   -2.0224 H         1 <0>         0.1100
     24 H13         1.7267   -0.2500   -4.2780 H         1 <0>         0.4223
     25 H14         0.5007   -1.4357   -3.7143 H         1 <0>         0.4455
     26 H15         2.1833   -1.5182   -3.0906 H         1 <0>         0.4421
@<TRIPOS>BOND
     1    1    2 1
     2    1   13 1
     3    1   14 1
     4    1   15 1
     5    2    3 1
     6    2    4 1
     7    2   16 1
     8    3   17 1
     9    3   18 1
    10    3   19 1
    11    4    5 1
    12    4    7 1
    13    4    6 1
    14    6    7 1
    15    6   20 1
    16    6   21 1
    17    7    8 1
    18    7   10 1
    19    8    9 1
    20    8   22 1
    21    8   23 1
    22    9   24 1
    23    9   25 1
    24    9   26 1
    25   10   11 2
    26   10   12 1
@<TRIPOS>MOLECULE
ZINC28476239
   26    26     0     0     0
SMALL
USER_CHARGES
(1R,2R)-1-(aminomethyl)-2-isopropyl-cyclopropane-1-carboxylic acid
@<TRIPOS>ATOM
      1 C1          1.6673    1.5265   -1.7784 C.3       1 <0>        -0.1452
      2 C2          0.1803    1.8332   -1.5897 C.3       1 <0>        -0.0973
      3 C3         -0.5817    1.4677   -2.8650 C.3       1 <0>        -0.1405
      4 C4         -0.3646    1.0145   -0.4176 C.3       1 <0>        -0.1718
      5 H1         -0.4677    0.1043   -1.0266 H         1 <0>         0.1345
      6 C5          0.1808    1.3280    0.9771 C.3       1 <0>        -0.1569
      7 C6         -1.2443    1.7407    0.6032 C.3       1 <0>        -0.1444
      8 C7         -2.3957    0.9528    1.2312 C.3       1 <0>         0.0528
      9 N1         -2.4005    1.1674    2.6845 N.4       1 <0>        -0.6796
     10 C8         -1.5072    3.2072    0.3766 C.2       1 <0>         0.4835
     11 O1         -2.0146    3.5775   -0.6555 O.co2     1 <0>        -0.5988
     12 O2         -1.1777    4.1019    1.3214 O.co2     1 <0>        -0.7479
     13 H2          2.2151    1.7893   -0.8614 H         1 <0>         0.0519
     14 H3          2.0590    2.1152   -2.6210 H         1 <0>         0.0556
     15 H4          1.7968    0.4545   -1.9884 H         1 <0>         0.0500
     16 H5          0.0508    2.9052   -1.3798 H         1 <0>         0.0814
     17 H6         -1.6508    1.6882   -2.7293 H         1 <0>         0.0626
     18 H7         -0.4522    0.3957   -3.0750 H         1 <0>         0.0448
     19 H8         -0.1900    2.0564   -3.7076 H         1 <0>         0.0535
     20 H9          0.4556    0.3905    1.4826 H         1 <0>         0.0976
     21 H10         1.0693    1.9703    0.8875 H         1 <0>         0.1046
     22 H11        -3.3502    1.2972    0.8065 H         1 <0>         0.1285
     23 H12        -2.2654   -0.1187    1.0192 H         1 <0>         0.1196
     24 H13        -3.2283    0.6009    3.1360 H         1 <0>         0.4447
     25 H14        -2.5308    2.2389    2.8965 H         1 <0>         0.4675
     26 H15        -1.4460    0.8230    3.1091 H         1 <0>         0.4493
@<TRIPOS>BOND
     1    1    2 1
     2    1   13 1
     3    1   14 1
     4    1   15 1
     5    2    3 1
     6    2    4 1
     7    2   16 1
     8    3   17 1
     9    3   18 1
    10    3   19 1
    11    4    5 1
    12    4    7 1
    13    4    6 1
    14    6    7 1
    15    6   20 1
    16    6   21 1
    17    7    8 1
    18    7   10 1
    19    8    9 1
    20    8   22 1
    21    8   23 1
    22    9   24 1
    23    9   25 1
    24    9   26 1
    25   10   11 2
    26   10   12 1
@<TRIPOS>MOLECULE
ZINC28476241
   26    26     0     0     0
SMALL
USER_CHARGES
(1S,2S)-1-(aminomethyl)-2-isopropyl-cyclopropane-1-carboxylic acid
@<TRIPOS>ATOM
      1 C1         -0.2186    3.1283    4.6790 C.3       1 <0>        -0.1498
      2 C2         -1.1281    2.6520    3.5446 C.3       1 <0>        -0.0842
      3 C3         -1.9270    3.8375    2.9994 C.3       1 <0>        -0.1589
      4 C4         -0.2751    2.0534    2.4243 C.3       1 <0>        -0.2069
      5 H1          0.4784    1.6670    3.1264 H         1 <0>         0.1300
      6 C5         -0.2289    2.8051    1.0924 C.3       1 <0>        -0.1307
      7 C6         -1.0060    1.4917    1.2031 C.3       1 <0>        -0.1458
      8 C7         -0.4065    0.2570    0.5271 C.3       1 <0>         0.0492
      9 N1         -0.4658   -0.8840    1.4503 N.4       1 <0>        -0.6790
     10 C8         -2.5109    1.5705    1.1958 C.2       1 <0>         0.4830
     11 O1         -3.1250    1.4918    2.2334 O.co2     1 <0>        -0.6066
     12 O2         -3.1691    1.7279    0.0366 O.co2     1 <0>        -0.7361
     13 H2          0.3557    2.2759    5.0709 H         1 <0>         0.0471
     14 H3         -0.8318    3.5587    5.4844 H         1 <0>         0.0563
     15 H4          0.4741    3.8927    4.2972 H         1 <0>         0.0506
     16 H5         -1.8209    1.8876    3.9264 H         1 <0>         0.0923
     17 H6         -2.5809    3.4950    2.1838 H         1 <0>         0.0812
     18 H7         -1.2343    4.6019    2.6176 H         1 <0>         0.0410
     19 H8         -2.5402    4.2679    3.8049 H         1 <0>         0.0456
     20 H9         -0.6608    3.8084    1.2224 H         1 <0>         0.1135
     21 H10         0.8153    2.8959    0.7586 H         1 <0>         0.0968
     22 H11        -0.9789    0.0228   -0.3826 H         1 <0>         0.1362
     23 H12         0.6413    0.4580    0.2594 H         1 <0>         0.1195
     24 H13        -0.0348   -1.7717    0.9643 H         1 <0>         0.4479
     25 H14        -1.5136   -1.0850    1.7180 H         1 <0>         0.4612
     26 H15         0.1066   -0.6497    2.3600 H         1 <0>         0.4467
@<TRIPOS>BOND
     1    1    2 1
     2    1   13 1
     3    1   14 1
     4    1   15 1
     5    2    3 1
     6    2    4 1
     7    2   16 1
     8    3   17 1
     9    3   18 1
    10    3   19 1
    11    4    5 1
    12    4    7 1
    13    4    6 1
    14    6    7 1
    15    6   20 1
    16    6   21 1
    17    7    8 1
    18    7   10 1
    19    8    9 1
    20    8   22 1
    21    8   23 1
    22    9   24 1
    23    9   25 1
    24    9   26 1
    25   10   11 2
    26   10   12 1
@<TRIPOS>MOLECULE
ZINC13643074
   32    32     0     0     0
SMALL
USER_CHARGES
(1S,2R)-1-(aminomethyl)-2-(1-ethylpropyl)cyclopropane-1-carboxylic acid
@<TRIPOS>ATOM
      1 C1         -2.3947    3.2154   -1.6806 C.3       1 <0>        -0.1568
      2 C2         -1.6394    2.5287   -0.5409 C.3       1 <0>        -0.1169
      3 C3         -0.4061    1.8180   -1.1017 C.3       1 <0>        -0.0620
      4 C4          0.3331    2.7568   -2.0573 C.3       1 <0>        -0.1192
      5 C5          0.7218    4.0372   -1.3153 C.3       1 <0>        -0.1595
      6 C6          0.5235    1.4256    0.0484 C.3       1 <0>        -0.1022
      7 H1          1.3038    2.1474    0.2897 H         1 <0>         0.1275
      8 C7         -0.0814    0.6263    1.2044 C.3       1 <0>        -0.1486
      9 C8          0.8592   -0.0583    0.2106 C.3       1 <0>        -0.2155
     10 C9          0.2396   -1.0362   -0.7897 C.3       1 <0>         0.0557
     11 C10         2.2433   -0.4101    0.6917 C.2       1 <0>         0.4937
     12 O1          3.0397    0.4659    0.9334 O.co2     1 <0>        -0.5781
     13 H2         -1.7975    4.0417   -2.0662 H         1 <0>         0.0615
     14 H3         -2.5790    2.4967   -2.4792 H         1 <0>         0.0517
     15 H4         -3.3455    3.5968   -1.3085 H         1 <0>         0.0528
     16 H5         -2.2917    1.7997   -0.0601 H         1 <0>         0.0586
     17 H6         -1.3277    3.2750    0.1899 H         1 <0>         0.0691
     18 H7         -0.7162    0.9223   -1.6399 H         1 <0>         0.0648
     19 H8          1.2323    2.2642   -2.4275 H         1 <0>         0.0618
     20 H9         -0.3162    3.0061   -2.8965 H         1 <0>         0.0670
     21 H10         1.2147    3.7786   -0.3781 H         1 <0>         0.0617
     22 H11         1.4016    4.6233   -1.9336 H         1 <0>         0.0530
     23 H12        -0.1740    4.6217   -1.1055 H         1 <0>         0.0566
     24 H13         0.3010    0.8223    2.2061 H         1 <0>         0.1025
     25 H14        -1.1416    0.3801    1.1455 H         1 <0>         0.0999
     26 H15        -0.8434   -0.9128   -0.7953 H         1 <0>         0.1153
     27 H16         0.6334   -0.8350   -1.7860 H         1 <0>         0.1182
     28 H17         0.2758   -2.6032    0.5451 H         1 <0>         0.4275
     29 H18         0.1755   -3.0780   -1.0456 H         1 <0>         0.4084
     30 N1          0.5988   -2.4117   -0.4018 N.4       1 <0>        -0.6275
     31 H19         1.6197   -2.5160   -0.4351 H         1 <0>         0.4361
     32 O2          2.5915   -1.6965    0.8518 O.co2     1 <0>        -0.7572
@<TRIPOS>BOND
     1    1    2 1
     2    1   13 1
     3    1   14 1
     4    1   15 1
     5    2    3 1
     6    2   16 1
     7    2   17 1
     8    3    4 1
     9    3    6 1
    10    3   18 1
    11    4    5 1
    12    4   19 1
    13    4   20 1
    14    5   21 1
    15    5   22 1
    16    5   23 1
    17    6    7 1
    18    6    9 1
    19    6    8 1
    20    8    9 1
    21    8   24 1
    22    8   25 1
    23    9   10 1
    24    9   11 1
    25   10   26 1
    26   10   27 1
    27   10   30 1
    28   11   12 2
    29   11   32 1
    30   28   30 1
    31   29   30 1
    32   30   31 1
@<TRIPOS>MOLECULE
ZINC13643107
   32    32     0     0     0
SMALL
USER_CHARGES
(1R,2R)-1-(aminomethyl)-2-(1-ethylpropyl)cyclopropane-1-carboxylic acid
@<TRIPOS>ATOM
      1 C1         -0.4833    2.7113   -2.6902 C.3       1 <0>        -0.1548
      2 C2         -0.5300    1.2851   -2.1381 C.3       1 <0>        -0.1129
      3 C3         -0.3255    1.3181   -0.6222 C.3       1 <0>        -0.0670
      4 C4         -1.3893    2.2131    0.0166 C.3       1 <0>        -0.1186
      5 C5         -2.7806    1.6884   -0.3436 C.3       1 <0>        -0.1537
      6 C6         -0.4473   -0.0997   -0.0602 C.3       1 <0>        -0.0946
      7 H1         -1.4650   -0.4646    0.0784 H         1 <0>         0.1077
      8 C7          0.6179   -1.1173   -0.4732 C.3       1 <0>        -0.1496
      9 C8          0.6092   -0.5526    0.9495 C.3       1 <0>        -0.2263
     10 C9          0.1564   -1.4835    2.0762 C.3       1 <0>         0.0554
     11 C10         1.6902    0.4319    1.3144 C.2       1 <0>         0.4814
     12 O1          1.6393    1.0224    2.3673 O.co2     1 <0>        -0.6302
     13 H2          0.4437    3.1918   -2.3772 H         1 <0>         0.0560
     14 H3         -0.5273    2.6811   -3.7789 H         1 <0>         0.0515
     15 H4         -1.3329    3.2770   -2.3078 H         1 <0>         0.0552
     16 H5          0.2596    0.6912   -2.5985 H         1 <0>         0.0613
     17 H6         -1.4987    0.8395   -2.3644 H         1 <0>         0.0606
     18 H7          0.6650    1.7140   -0.3978 H         1 <0>         0.0913
     19 H8         -1.2675    2.2059    1.0998 H         1 <0>         0.0607
     20 H9         -1.2778    3.2318   -0.3547 H         1 <0>         0.0655
     21 H10        -2.8846    1.6492   -1.4280 H         1 <0>         0.0584
     22 H11        -2.9101    0.6883    0.0702 H         1 <0>         0.0497
     23 H12        -3.5383    2.3538    0.0702 H         1 <0>         0.0501
     24 H13         0.3011   -2.1518   -0.6059 H         1 <0>         0.0913
     25 H14         1.4054   -0.7769   -1.1456 H         1 <0>         0.1158
     26 H15        -0.5245   -0.9484    2.7381 H         1 <0>         0.1299
     27 H16        -0.3544   -2.3472    1.6507 H         1 <0>         0.1196
     28 H17         1.7538   -1.1660    3.3356 H         1 <0>         0.4447
     29 H18         1.0819   -2.6812    3.4717 H         1 <0>         0.4268
     30 N1          1.3425   -1.9426    2.8204 N.4       1 <0>        -0.6405
     31 H19         2.0357   -2.3095    2.1577 H         1 <0>         0.4369
     32 O2          2.7097    0.6529    0.4696 O.co2     1 <0>        -0.7218
@<TRIPOS>BOND
     1    1    2 1
     2    1   13 1
     3    1   14 1
     4    1   15 1
     5    2    3 1
     6    2   16 1
     7    2   17 1
     8    3    4 1
     9    3    6 1
    10    3   18 1
    11    4    5 1
    12    4   19 1
    13    4   20 1
    14    5   21 1
    15    5   22 1
    16    5   23 1
    17    6    7 1
    18    6    9 1
    19    6    8 1
    20    8    9 1
    21    8   24 1
    22    8   25 1
    23    9   10 1
    24    9   11 1
    25   10   26 1
    26   10   27 1
    27   10   30 1
    28   11   12 2
    29   11   32 1
    30   28   30 1
    31   29   30 1
    32   30   31 1
@<TRIPOS>MOLECULE
ZINC21991120
   32    32     0     0     0
SMALL
USER_CHARGES
(1R,2S)-1-(aminomethyl)-2-(1-ethylpropyl)cyclopropane-1-carboxylic acid
@<TRIPOS>ATOM
      1 C1          1.2045    1.3624    0.5215 C.3       1 <0>        -0.1547
      2 C2          0.4002    1.8111    1.7432 C.3       1 <0>        -0.1231
      3 C3          0.2025    0.6239    2.6878 C.3       1 <0>        -0.0848
      4 C4          1.5559    0.1949    3.2580 C.3       1 <0>        -0.1207
      5 C5          1.3828   -1.0893    4.0715 C.3       1 <0>        -0.1776
      6 C6         -0.7269    1.0321    3.8326 C.3       1 <0>        -0.1487
      7 H1         -0.2498    2.0168    3.9455 H         1 <0>         0.1288
      8 C7         -1.1863   -0.0649    4.7950 C.3       1 <0>        -0.1735
      9 C8         -2.1706    0.5277    3.7846 C.3       1 <0>        -0.1523
     10 C9         -2.5743   -0.3464    2.5956 C.3       1 <0>         0.0576
     11 N1         -3.9436   -0.8401    2.7934 N.4       1 <0>        -0.6659
     12 C10        -3.2451    1.4421    4.3140 C.2       1 <0>         0.4953
     13 O1         -2.9512    2.5281    4.7545 O.co2     1 <0>        -0.5734
     14 O2         -4.5288    1.0501    4.2961 O.co2     1 <0>        -0.7460
     15 H2          1.3466    2.2160   -0.1576 H         1 <0>         0.0555
     16 H3          0.6598    0.5634   -0.0028 H         1 <0>         0.0507
     17 H4          2.1853    0.9852    0.8466 H         1 <0>         0.0576
     18 H5          0.9449    2.6101    2.2675 H         1 <0>         0.0662
     19 H6         -0.5806    2.1883    1.4181 H         1 <0>         0.0634
     20 H7         -0.2445   -0.2148    2.1339 H         1 <0>         0.0584
     21 H8          2.2607    0.0141    2.4330 H         1 <0>         0.0662
     22 H9          1.9488    0.9906    3.9081 H         1 <0>         0.0652
     23 H10         2.3559   -1.3976    4.4814 H         1 <0>         0.0559
     24 H11         0.9900   -1.8850    3.4214 H         1 <0>         0.0515
     25 H12         0.6781   -0.9085    4.8965 H         1 <0>         0.0809
     26 H13        -0.5829   -0.9704    4.6337 H         1 <0>         0.1323
     27 H14        -1.0597    0.2802    5.8318 H         1 <0>         0.1021
     28 H15        -2.5288    0.2482    1.6713 H         1 <0>         0.1149
     29 H16        -1.8846   -1.1997    2.5169 H         1 <0>         0.1093
     30 H17        -4.2338   -1.4686    1.9385 H         1 <0>         0.4218
     31 H18        -4.6332    0.0132    2.8720 H         1 <0>         0.4454
     32 H19        -3.9890   -1.4347    3.7178 H         1 <0>         0.4419
@<TRIPOS>BOND
     1    1    2 1
     2    1   15 1
     3    1   16 1
     4    1   17 1
     5    2    3 1
     6    2   18 1
     7    2   19 1
     8    3    4 1
     9    3    6 1
    10    3   20 1
    11    4    5 1
    12    4   21 1
    13    4   22 1
    14    5   23 1
    15    5   24 1
    16    5   25 1
    17    6    7 1
    18    6    9 1
    19    6    8 1
    20    8    9 1
    21    8   26 1
    22    8   27 1
    23    9   10 1
    24    9   12 1
    25   10   11 1
    26   10   28 1
    27   10   29 1
    28   11   30 1
    29   11   31 1
    30   11   32 1
    31   12   13 2
    32   12   14 1
@<TRIPOS>MOLECULE
ZINC21991123
   32    32     0     0     0
SMALL
USER_CHARGES
(1S,2S)-1-(aminomethyl)-2-(1-ethylpropyl)cyclopropane-1-carboxylic acid
@<TRIPOS>ATOM
      1 C1         -0.6206    1.2761   -1.0675 C.3       1 <0>        -0.1521
      2 C2          0.0182    0.7774    0.2303 C.3       1 <0>        -0.1250
      3 C3         -0.6617    1.4500    1.4246 C.3       1 <0>        -0.0736
      4 C4          0.0574    1.0478    2.7138 C.3       1 <0>        -0.1084
      5 C5          1.4717    1.6315    2.7122 C.3       1 <0>        -0.1459
      6 C6         -2.1238    1.0050    1.4961 C.3       1 <0>        -0.1682
      7 H1         -1.8774   -0.0402    1.2578 H         1 <0>         0.1328
      8 C7         -3.1886    1.9996    1.0291 C.3       1 <0>        -0.1466
      9 C8         -3.0239    1.6983    2.5209 C.3       1 <0>        -0.1532
     10 C9         -4.1072    0.8541    3.1952 C.3       1 <0>         0.0588
     11 N1         -4.8620    1.6893    4.1391 N.4       1 <0>        -0.6652
     12 C10        -2.4024    2.7672    3.3825 C.2       1 <0>         0.4952
     13 O1         -1.2880    3.1663    3.1402 O.co2     1 <0>        -0.5506
     14 O2         -3.0870    3.2758    4.4190 O.co2     1 <0>        -0.7407
     15 H2         -0.1318    0.7926   -1.9262 H         1 <0>         0.0492
     16 H3         -0.4970    2.3666   -1.1415 H         1 <0>         0.0531
     17 H4         -1.6922    1.0276   -1.0678 H         1 <0>         0.0526
     18 H5         -0.1054   -0.3131    0.3043 H         1 <0>         0.0536
     19 H6          1.0898    1.0258    0.2306 H         1 <0>         0.0654
     20 H7         -0.6163    2.5425    1.3050 H         1 <0>         0.0880
     21 H8         -0.4985    1.4359    3.5801 H         1 <0>         0.0781
     22 H9          0.1134   -0.0490    2.7755 H         1 <0>         0.0362
     23 H10         1.9887    1.3424    3.6391 H         1 <0>         0.0441
     24 H11         1.4156    2.7283    2.6505 H         1 <0>         0.0592
     25 H12         2.0275    1.2434    1.8459 H         1 <0>         0.0452
     26 H13        -2.7049    2.8305    0.4946 H         1 <0>         0.1036
     27 H14        -3.8945    1.4917    0.3555 H         1 <0>         0.1017
     28 H15        -4.7904    0.4556    2.4307 H         1 <0>         0.1066
     29 H16        -3.6376    0.0203    3.7377 H         1 <0>         0.1127
     30 H17        -5.6409    1.0824    4.6239 H         1 <0>         0.4155
     31 H18        -5.3315    2.5231    3.5965 H         1 <0>         0.4387
     32 H19        -4.1787    2.0878    4.9036 H         1 <0>         0.4394
@<TRIPOS>BOND
     1    1    2 1
     2    1   15 1
     3    1   16 1
     4    1   17 1
     5    2    3 1
     6    2   18 1
     7    2   19 1
     8    3    4 1
     9    3    6 1
    10    3   20 1
    11    4    5 1
    12    4   21 1
    13    4   22 1
    14    5   23 1
    15    5   24 1
    16    5   25 1
    17    6    7 1
    18    6    9 1
    19    6    8 1
    20    8    9 1
    21    8   26 1
    22    8   27 1
    23    9   10 1
    24    9   12 1
    25   10   11 1
    26   10   28 1
    27   10   29 1
    28   11   30 1
    29   11   31 1
    30   11   32 1
    31   12   13 2
    32   12   14 1
@<TRIPOS>MOLECULE
ZINC13643077
   35    35     0     0     0
SMALL
USER_CHARGES
(1R)-1-(aminomethyl)-2,2-dipropyl-cyclopropane-1-carboxylic acid
@<TRIPOS>ATOM
      1 C1          5.2553    2.8554    1.8775 C.3       1 <0>        -0.1542
      2 C2          3.9801    2.1776    1.3721 C.3       1 <0>        -0.1259
      3 C3          3.9230    2.2716   -0.1539 C.3       1 <0>        -0.0929
      4 C4          2.7288    1.4665   -0.6702 C.3       1 <0>        -0.0652
      5 C5          1.8881    2.0876   -1.7875 C.3       1 <0>        -0.1567
      6 C6          1.3293    2.0047   -0.3656 C.3       1 <0>        -0.2115
      7 C7          1.2307    3.3068    0.4317 C.3       1 <0>         0.0536
      8 C8          0.2385    0.9983   -0.1042 C.2       1 <0>         0.4911
      9 O1          0.4859   -0.1838   -0.1400 O.co2     1 <0>        -0.5833
     10 C9          2.9137   -0.0522   -0.6861 C.3       1 <0>        -0.0681
     11 C10         4.3321   -0.3884   -1.1510 C.3       1 <0>        -0.1260
     12 C11         4.4739   -1.9045   -1.3002 C.3       1 <0>        -0.1522
     13 H1          6.1254    2.3573    1.4500 H         1 <0>         0.0566
     14 H2          5.2529    3.9034    1.5779 H         1 <0>         0.0508
     15 H3          5.2959    2.7885    2.9647 H         1 <0>         0.0556
     16 H4          3.1099    2.6758    1.7996 H         1 <0>         0.0559
     17 H5          3.9825    1.1296    1.6718 H         1 <0>         0.0710
     18 H6          4.8431    1.8688   -0.5774 H         1 <0>         0.0826
     19 H7          3.8131    3.3149   -0.4499 H         1 <0>         0.0577
     20 H8          1.4667    1.4142   -2.5339 H         1 <0>         0.1050
     21 H9          2.1858    3.0697   -2.1548 H         1 <0>         0.0952
     22 H10         1.1371    3.0767    1.4931 H         1 <0>         0.1247
     23 H11         2.1284    3.9026    0.2669 H         1 <0>         0.1190
     24 H12        -0.0350    4.9290    0.5011 H         1 <0>         0.4204
     25 H13         0.0841    4.2338   -1.0050 H         1 <0>         0.4236
     26 H14         2.7569   -0.4478    0.3174 H         1 <0>         0.0728
     27 H15         2.1918   -0.4989   -1.3697 H         1 <0>         0.0819
     28 H16         4.5228    0.0907   -2.1113 H         1 <0>         0.0561
     29 H17         5.0507   -0.0269   -0.4155 H         1 <0>         0.0578
     30 H18         4.2831   -2.3835   -0.3399 H         1 <0>         0.0541
     31 H19         3.7552   -2.2660   -2.0357 H         1 <0>         0.0542
     32 H20         5.4843   -2.1440   -1.6314 H         1 <0>         0.0500
     33 N1          0.0340    4.0475   -0.0048 N.4       1 <0>        -0.6373
     34 H21        -0.8016    3.4834    0.1895 H         1 <0>         0.4485
     35 O2         -1.0092    1.4150    0.1629 O.co2     1 <0>        -0.7648
@<TRIPOS>BOND
     1    1    2 1
     2    1   13 1
     3    1   14 1
     4    1   15 1
     5    2    3 1
     6    2   16 1
     7    2   17 1
     8    3    4 1
     9    3   18 1
    10    3   19 1
    11    4    6 1
    12    4    5 1
    13    4   10 1
    14    5    6 1
    15    5   20 1
    16    5   21 1
    17    6    7 1
    18    6    8 1
    19    7   22 1
    20    7   23 1
    21    7   33 1
    22    8    9 2
    23    8   35 1
    24   10   11 1
    25   10   26 1
    26   10   27 1
    27   11   12 1
    28   11   28 1
    29   11   29 1
    30   12   30 1
    31   12   31 1
    32   12   32 1
    33   24   33 1
    34   25   33 1
    35   33   34 1
@<TRIPOS>MOLECULE
ZINC13643080
   35    35     0     0     0
SMALL
USER_CHARGES
(1S)-1-(aminomethyl)-2,2-dipropyl-cyclopropane-1-carboxylic acid
@<TRIPOS>ATOM
      1 C1         -0.7914   -0.6308    0.4910 C.3       1 <0>        -0.1540
      2 C2         -1.3322    0.0471    1.7515 C.3       1 <0>        -0.1208
      3 C3         -0.2128    0.8472    2.4206 C.3       1 <0>        -0.0898
      4 C4         -0.7816    1.6233    3.6102 C.3       1 <0>        -0.0708
      5 C5         -1.3167    0.8124    4.7921 C.3       1 <0>        -0.1474
      6 C6          0.0019    1.5772    4.9235 C.3       1 <0>        -0.2124
      7 C7          1.2942    0.7584    4.9468 C.3       1 <0>         0.0535
      8 C8          0.0038    2.8194    5.7767 C.2       1 <0>         0.4879
      9 O1         -0.4830    3.8421    5.3558 O.co2     1 <0>        -0.5640
     10 C9         -1.5035    2.9269    3.2631 C.3       1 <0>        -0.0803
     11 C10        -0.5053    3.9182    2.6616 C.3       1 <0>        -0.1030
     12 C11        -1.1963    5.2646    2.4365 C.3       1 <0>        -0.1467
     13 H1          0.0238   -1.3022    0.7609 H         1 <0>         0.0508
     14 H2         -0.4237    0.1277   -0.2001 H         1 <0>         0.0547
     15 H3         -1.5889   -1.2007    0.0143 H         1 <0>         0.0551
     16 H4         -2.1474    0.7185    1.4816 H         1 <0>         0.0667
     17 H5         -1.6999   -0.7113    2.4426 H         1 <0>         0.0606
     18 H6          0.5628    0.1652    2.7691 H         1 <0>         0.0559
     19 H7          0.2142    1.5461    1.7014 H         1 <0>         0.0747
     20 H8         -2.1829    1.2078    5.3227 H         1 <0>         0.1013
     21 H9         -1.2640   -0.2740    4.7220 H         1 <0>         0.0973
     22 H10         1.0698   -0.2814    4.7086 H         1 <0>         0.1167
     23 H11         1.9908    1.1578    4.2098 H         1 <0>         0.1177
     24 H12         1.2480    0.5305    6.9924 H         1 <0>         0.4338
     25 H13         2.7540    0.3018    6.3248 H         1 <0>         0.4095
     26 H14        -2.2937    2.7233    2.5405 H         1 <0>         0.0508
     27 H15        -1.9387    3.3530    4.1671 H         1 <0>         0.0942
     28 H16         0.3330    4.0499    3.3456 H         1 <0>         0.0687
     29 H17        -0.1403    3.5335    1.7093 H         1 <0>         0.0410
     30 H18        -0.4852    5.9708    2.0080 H         1 <0>         0.0455
     31 H19        -2.0347    5.1329    1.7525 H         1 <0>         0.0440
     32 H20        -1.5613    5.6493    3.3888 H         1 <0>         0.0596
     33 N1          1.9028    0.8599    6.2850 N.4       1 <0>        -0.6250
     34 H21         2.1365    1.8414    6.4759 H         1 <0>         0.4396
     35 O2          0.5463    2.7898    7.0041 O.co2     1 <0>        -0.7656
@<TRIPOS>BOND
     1    1    2 1
     2    1   13 1
     3    1   14 1
     4    1   15 1
     5    2    3 1
     6    2   16 1
     7    2   17 1
     8    3    4 1
     9    3   18 1
    10    3   19 1
    11    4    6 1
    12    4    5 1
    13    4   10 1
    14    5    6 1
    15    5   20 1
    16    5   21 1
    17    6    7 1
    18    6    8 1
    19    7   22 1
    20    7   23 1
    21    7   33 1
    22    8    9 2
    23    8   35 1
    24   10   11 1
    25   10   26 1
    26   10   27 1
    27   11   12 1
    28   11   28 1
    29   11   29 1
    30   12   30 1
    31   12   31 1
    32   12   32 1
    33   24   33 1
    34   25   33 1
    35   33   34 1
@<TRIPOS>MOLECULE
ZINC13641451
   28    27     0     0     0
SMALL
USER_CHARGES
(3S)-3-[(1R)-1-aminoethyl]hexanoic acid
@<TRIPOS>ATOM
      1 C1         -6.4163    1.4852   -0.1140 C.3       1 <0>        -0.1567
      2 C2         -5.0787    0.7484   -0.0201 C.3       1 <0>        -0.1307
      3 C3         -3.9366    1.7662    0.0073 C.3       1 <0>        -0.1285
      4 C4         -2.5962    1.0301   -0.0399 C.3       1 <0>        -0.0976
      5 H1         -2.5892    0.3418   -0.8850 H         1 <0>         0.1276
      6 C5         -1.4623    2.0449   -0.1993 C.3       1 <0>        -0.1688
      7 C6         -0.2260    1.3425   -0.6984 C.2       1 <0>         0.4502
      8 O1         -0.2921    0.1952   -1.0717 O.co2     1 <0>        -0.6252
      9 C7         -2.3994    0.2452    1.2587 C.3       1 <0>         0.0406
     10 H2         -3.2566   -0.4080    1.4219 H         1 <0>         0.1320
     11 C8         -1.1272   -0.5986    1.1567 C.3       1 <0>        -0.1739
     12 H3         -6.5326    2.1388    0.7505 H         1 <0>         0.0524
     13 H4         -6.4392    2.0817   -1.0261 H         1 <0>         0.0590
     14 H5         -7.2299    0.7602   -0.1335 H         1 <0>         0.0577
     15 H6         -4.9623    0.0949   -0.8846 H         1 <0>         0.0736
     16 H7         -5.0557    0.1520    0.8920 H         1 <0>         0.0566
     17 H8         -3.9960    2.3545    0.9230 H         1 <0>         0.0504
     18 H9         -4.0185    2.4275   -0.8553 H         1 <0>         0.0849
     19 H10        -1.2523    2.5094    0.7642 H         1 <0>         0.0494
     20 H11        -1.7588    2.8114   -0.9153 H         1 <0>         0.0884
     21 H12        -0.2580    0.0579    1.1170 H         1 <0>         0.0883
     22 H13        -1.0518   -1.2490    2.0282 H         1 <0>         0.0567
     23 H14        -1.1655   -1.2059    0.2524 H         1 <0>         0.1221
     24 H15        -1.4667    1.7740    2.2742 H         1 <0>         0.4349
     25 H16        -3.1154    1.7332    2.4882 H         1 <0>         0.4261
     26 O2          0.9475    1.9931   -0.7335 O.co2     1 <0>        -0.7537
     27 N1         -2.2737    1.1659    2.4024 N.4       1 <0>        -0.6476
     28 H17        -2.1485    0.6199    3.2629 H         1 <0>         0.4319
@<TRIPOS>BOND
     1    1    2 1
     2    1   12 1
     3    1   13 1
     4    1   14 1
     5    2    3 1
     6    2   15 1
     7    2   16 1
     8    3    4 1
     9    3   17 1
    10    3   18 1
    11    4    5 1
    12    4    6 1
    13    4    9 1
    14    6    7 1
    15    6   19 1
    16    6   20 1
    17    7    8 2
    18    7   26 1
    19    9   10 1
    20    9   11 1
    21    9   27 1
    22   11   21 1
    23   11   22 1
    24   11   23 1
    25   24   27 1
    26   25   27 1
    27   27   28 1
@<TRIPOS>MOLECULE
ZINC13643098
   29    29     0     0     0
SMALL
USER_CHARGES
(1S,2S)-1-(aminomethyl)-2-isobutyl-cyclopropane-1-carboxylic acid
@<TRIPOS>ATOM
      1 C1         -2.8299    1.4087   -2.5937 C.3       1 <0>        -0.1488
      2 C2         -1.5953    0.8211   -1.9071 C.3       1 <0>        -0.0954
      3 C3         -0.4535    0.7093   -2.9193 C.3       1 <0>        -0.1483
      4 C4         -1.1689    1.7343   -0.7560 C.3       1 <0>        -0.0885
      5 C5         -0.0127    1.0858    0.0080 C.3       1 <0>        -0.1036
      6 H1          0.0021   -0.0041    0.0020 H         1 <0>         0.1230
      7 C6          1.3347    1.8107   -0.0010 C.3       1 <0>        -0.1471
      8 C7          0.4844    1.7921    1.2709 C.3       1 <0>        -0.2175
      9 C8         -0.2128    3.0931    1.6736 C.3       1 <0>         0.0563
     10 C9          0.9570    0.9277    2.4113 C.2       1 <0>         0.4927
     11 O1          0.9340   -0.2758    2.3069 O.co2     1 <0>        -0.5780
     12 H2         -2.5921    2.3983   -2.9840 H         1 <0>         0.0530
     13 H3         -3.1337    0.7581   -3.4138 H         1 <0>         0.0565
     14 H4         -3.6433    1.4883   -1.8726 H         1 <0>         0.0535
     15 H5         -1.8331   -0.1685   -1.5168 H         1 <0>         0.0738
     16 H6          0.4260    0.2907   -2.4301 H         1 <0>         0.0592
     17 H7         -0.7573    0.0587   -3.7394 H         1 <0>         0.0536
     18 H8         -0.2157    1.6989   -3.3096 H         1 <0>         0.0520
     19 H9         -2.0111    1.8853   -0.0808 H         1 <0>         0.0660
     20 H10        -0.8464    2.6959   -1.1554 H         1 <0>         0.0641
     21 H11         2.2359    1.1976   -0.0129 H         1 <0>         0.1020
     22 H12         1.3973    2.7497   -0.5508 H         1 <0>         0.0995
     23 H13        -0.1062    3.8253    0.8732 H         1 <0>         0.1153
     24 H14        -1.2708    2.8989    1.8497 H         1 <0>         0.1173
     25 H15         1.3939    3.7448    2.7837 H         1 <0>         0.4305
     26 H16        -0.0435    4.4771    3.1883 H         1 <0>         0.4068
     27 N1          0.3947    3.5983    2.9174 N.4       1 <0>        -0.6249
     28 H17         0.2543    2.9093    3.6657 H         1 <0>         0.4370
     29 O2          1.4035    1.4949    3.5430 O.co2     1 <0>        -0.7599
@<TRIPOS>BOND
     1    1    2 1
     2    1   12 1
     3    1   13 1
     4    1   14 1
     5    2    3 1
     6    2    4 1
     7    2   15 1
     8    3   16 1
     9    3   17 1
    10    3   18 1
    11    4    5 1
    12    4   19 1
    13    4   20 1
    14    5    6 1
    15    5    8 1
    16    5    7 1
    17    7    8 1
    18    7   21 1
    19    7   22 1
    20    8    9 1
    21    8   10 1
    22    9   23 1
    23    9   24 1
    24    9   27 1
    25   10   11 2
    26   10   29 1
    27   25   27 1
    28   26   27 1
    29   27   28 1
@<TRIPOS>MOLECULE
ZINC13643104
   29    29     0     0     0
SMALL
USER_CHARGES
(1R,2S)-1-(aminomethyl)-2-isobutyl-cyclopropane-1-carboxylic acid
@<TRIPOS>ATOM
      1 C1          6.2734    2.6508    0.6286 C.3       1 <0>        -0.1485
      2 C2          5.0888    3.5956    0.4168 C.3       1 <0>        -0.0946
      3 C3          5.3497    4.4738   -0.8086 C.3       1 <0>        -0.1475
      4 C4          3.8160    2.7760    0.1951 C.3       1 <0>        -0.0850
      5 C5          2.6124    3.7166    0.1076 C.3       1 <0>        -0.1235
      6 H1          2.6995    4.6452    0.6717 H         1 <0>         0.1013
      7 C6          1.8459    3.7629   -1.2166 C.3       1 <0>        -0.1298
      8 C7          1.2248    3.0805    0.0039 C.3       1 <0>        -0.2182
      9 C8          0.0656    3.7966    0.6999 C.3       1 <0>         0.0519
     10 C9          1.1481    1.5755   -0.0043 C.2       1 <0>         0.4767
     11 O1          1.9545    0.9261    0.6185 O.co2     1 <0>        -0.6081
     12 H2          6.3964    2.0194   -0.2513 H         1 <0>         0.0552
     13 H3          7.1801    3.2347    0.7865 H         1 <0>         0.0517
     14 H4          6.0875    2.0251    1.5016 H         1 <0>         0.0551
     15 H5          4.9657    4.2270    1.2967 H         1 <0>         0.0625
     16 H6          6.2564    5.0577   -0.6508 H         1 <0>         0.0495
     17 H7          5.4727    3.8424   -1.6886 H         1 <0>         0.0540
     18 H8          4.5057    5.1469   -0.9596 H         1 <0>         0.0530
     19 H9          3.6783    2.0863    1.0279 H         1 <0>         0.0934
     20 H10         3.9043    2.2116   -0.7332 H         1 <0>         0.0637
     21 H11         2.1991    3.1232   -2.0254 H         1 <0>         0.1042
     22 H12         1.4290    4.7221   -1.5234 H         1 <0>         0.0973
     23 H13         0.1736    4.8735    0.5705 H         1 <0>         0.1231
     24 H14        -0.8780    3.4709    0.2621 H         1 <0>         0.1355
     25 H15         0.9321    3.7893    2.5674 H         1 <0>         0.4309
     26 H16        -0.7294    3.8568    2.5980 H         1 <0>         0.4296
     27 N1          0.0777    3.4465    2.1312 N.4       1 <0>        -0.6407
     28 H17         0.0381    2.4252    2.2291 H         1 <0>         0.4451
     29 O2          0.1839    0.9564   -0.7034 O.co2     1 <0>        -0.7375
@<TRIPOS>BOND
     1    1    2 1
     2    1   12 1
     3    1   13 1
     4    1   14 1
     5    2    3 1
     6    2    4 1
     7    2   15 1
     8    3   16 1
     9    3   17 1
    10    3   18 1
    11    4    5 1
    12    4   19 1
    13    4   20 1
    14    5    6 1
    15    5    8 1
    16    5    7 1
    17    7    8 1
    18    7   21 1
    19    7   22 1
    20    8    9 1
    21    8   10 1
    22    9   23 1
    23    9   24 1
    24    9   27 1
    25   10   11 2
    26   10   29 1
    27   25   27 1
    28   26   27 1
    29   27   28 1
@<TRIPOS>MOLECULE
ZINC21991225
   29    29     0     0     0
SMALL
USER_CHARGES
(1R,2R)-1-(aminomethyl)-2-isobutyl-cyclopropane-1-carboxylic acid
@<TRIPOS>ATOM
      1 C1          0.0211    0.2861   -0.5832 C.3       1 <0>        -0.1601
      2 C2         -0.4229    0.8622    0.7629 C.3       1 <0>        -0.0960
      3 C3          0.3836    0.2100    1.8877 C.3       1 <0>        -0.1516
      4 C4         -1.9118    0.5792    0.9726 C.3       1 <0>        -0.1084
      5 C5         -2.7274    1.3336   -0.0794 C.3       1 <0>        -0.1901
      6 H1         -1.9158    1.2937   -0.8208 H         1 <0>         0.1459
      7 C6         -3.6898    2.4154    0.4151 C.3       1 <0>        -0.1677
      8 C7         -4.2371    1.0877   -0.1127 C.3       1 <0>        -0.1246
      9 C8         -4.8157    0.1062    0.9085 C.3       1 <0>         0.0456
     10 N1         -4.6488    0.6526    2.2618 N.4       1 <0>        -0.6887
     11 C9         -4.9146    1.1002   -1.4588 C.2       1 <0>         0.4914
     12 O1         -4.2535    1.1784   -2.4671 O.co2     1 <0>        -0.6024
     13 O2         -6.2524    1.0245   -1.5375 O.co2     1 <0>        -0.7452
     14 H2         -0.5587    0.7550   -1.3919 H         1 <0>         0.0697
     15 H3         -0.1503   -0.8004   -0.5915 H         1 <0>         0.0583
     16 H4          1.0916    0.4896   -0.7339 H         1 <0>         0.0609
     17 H5         -0.2515    1.9487    0.7712 H         1 <0>         0.0764
     18 H6          0.0644    0.6242    2.8555 H         1 <0>         0.0518
     19 H7          1.4540    0.4135    1.7369 H         1 <0>         0.0612
     20 H8          0.2122   -0.8765    1.8794 H         1 <0>         0.0561
     21 H9         -2.0970   -0.5007    0.8751 H         1 <0>         0.0734
     22 H10        -2.2106    0.9133    1.9771 H         1 <0>         0.0346
     23 H11        -3.4800    2.6376    1.4718 H         1 <0>         0.0904
     24 H12        -3.5558    3.3275   -0.1850 H         1 <0>         0.1119
     25 H13        -5.8857   -0.0471    0.7043 H         1 <0>         0.1489
     26 H14        -4.2867   -0.8553    0.8335 H         1 <0>         0.1235
     27 H15        -5.0648   -0.0530    2.9960 H         1 <0>         0.4465
     28 H16        -5.1778    1.6141    2.3368 H         1 <0>         0.4543
     29 H17        -3.5788    0.8059    2.4659 H         1 <0>         0.4338
@<TRIPOS>BOND
     1    1    2 1
     2    1   14 1
     3    1   15 1
     4    1   16 1
     5    2    3 1
     6    2    4 1
     7    2   17 1
     8    3   18 1
     9    3   19 1
    10    3   20 1
    11    4    5 1
    12    4   21 1
    13    4   22 1
    14    5    6 1
    15    5    8 1
    16    5    7 1
    17    7    8 1
    18    7   23 1
    19    7   24 1
    20    8    9 1
    21    8   11 1
    22    9   10 1
    23    9   25 1
    24    9   26 1
    25   10   27 1
    26   10   28 1
    27   10   29 1
    28   11   12 2
    29   11   13 1
@<TRIPOS>MOLECULE
ZINC21991227
   29    29     0     0     0
SMALL
USER_CHARGES
(1S,2R)-1-(aminomethyl)-2-isobutyl-cyclopropane-1-carboxylic acid
@<TRIPOS>ATOM
      1 C1          1.8842   -0.0624    2.2247 C.3       1 <0>        -0.1477
      2 C2          1.5416    1.4276    2.2817 C.3       1 <0>        -0.0952
      3 C3          2.8031    2.2289    2.6097 C.3       1 <0>        -0.1499
      4 C4          0.9902    1.8764    0.9269 C.3       1 <0>        -0.1131
      5 C5         -0.3374    1.1658    0.6559 C.3       1 <0>        -0.1747
      6 H1         -0.5789    1.0856    1.7261 H         1 <0>         0.1364
      7 C6         -0.3986    0.2160   -0.5420 C.3       1 <0>        -0.1553
      8 C7         -1.1107    1.5688   -0.6022 C.3       1 <0>        -0.1473
      9 C8         -2.6387    1.5670   -0.5241 C.3       1 <0>         0.0535
     10 N1         -3.1889    0.8990   -1.7111 N.4       1 <0>        -0.6796
     11 C9         -0.5059    2.6351   -1.4788 C.2       1 <0>         0.4836
     12 O1         -0.2610    3.7262   -1.0213 O.co2     1 <0>        -0.6019
     13 O2         -0.2393    2.3726   -2.7679 O.co2     1 <0>        -0.7477
     14 H2          0.9772   -0.6384    1.9889 H         1 <0>         0.0528
     15 H3          2.2805   -0.3850    3.1988 H         1 <0>         0.0516
     16 H4          2.6412   -0.2350    1.4454 H         1 <0>         0.0543
     17 H5          0.7847    1.6001    3.0610 H         1 <0>         0.0660
     18 H6          2.5567    3.3002    2.6507 H         1 <0>         0.0568
     19 H7          3.5601    2.0563    1.8304 H         1 <0>         0.0553
     20 H8          3.1994    1.9063    3.5838 H         1 <0>         0.0534
     21 H9          0.8280    2.9643    0.9393 H         1 <0>         0.0836
     22 H10         1.7105    1.6221    0.1354 H         1 <0>         0.0559
     23 H11         0.6203    0.0209   -0.9077 H         1 <0>         0.1035
     24 H12        -0.8657   -0.7315   -0.2352 H         1 <0>         0.0966
     25 H13        -2.9589    1.0295    0.3806 H         1 <0>         0.1195
     26 H14        -3.0050    2.6034   -0.4838 H         1 <0>         0.1286
     27 H15        -4.2875    0.8977   -1.6549 H         1 <0>         0.4447
     28 H16        -2.8226   -0.1374   -1.7514 H         1 <0>         0.4493
     29 H17        -2.8686    1.4365   -2.6158 H         1 <0>         0.4674
@<TRIPOS>BOND
     1    1    2 1
     2    1   14 1
     3    1   15 1
     4    1   16 1
     5    2    3 1
     6    2    4 1
     7    2   17 1
     8    3   18 1
     9    3   19 1
    10    3   20 1
    11    4    5 1
    12    4   21 1
    13    4   22 1
    14    5    6 1
    15    5    8 1
    16    5    7 1
    17    7    8 1
    18    7   23 1
    19    7   24 1
    20    8    9 1
    21    8   11 1
    22    9   10 1
    23    9   25 1
    24    9   26 1
    25   10   27 1
    26   10   28 1
    27   10   29 1
    28   11   12 2
    29   11   13 1
@<TRIPOS>MOLECULE
ZINC28474933
   24    25     0     0     0
SMALL
USER_CHARGES
(1R)-1-(aminomethyl)spiro[2.3]hexane-1-carboxylic acid
@<TRIPOS>ATOM
      1 C1         -5.1602    1.6990   -2.8547 C.3       1 <0>        -0.1719
      2 C2         -3.6665    2.0394   -2.9998 C.3       1 <0>        -0.0926
      3 C3         -3.4578    1.3156   -1.6651 C.3       1 <0>        -0.1171
      4 C4         -4.7284    0.5153   -1.9713 C.3       1 <0>        -0.0946
      5 C5         -2.9963    1.8937   -0.3319 C.3       1 <0>        -0.1507
      6 C6         -2.1547    0.8289   -1.0409 C.3       1 <0>        -0.1512
      7 C7         -0.8466    1.2808   -1.6932 C.3       1 <0>         0.0576
      8 N1          0.0683    1.7827   -0.6592 N.4       1 <0>        -0.6784
      9 C8         -2.1409   -0.5563   -0.4476 C.2       1 <0>         0.4873
     10 O1         -2.8375   -1.4229   -0.9203 O.co2     1 <0>        -0.5926
     11 O2         -1.3545   -0.8273    0.6059 O.co2     1 <0>        -0.7574
     12 H1         -5.7110    1.3221   -3.7291 H         1 <0>         0.0675
     13 H2         -5.8090    2.3719   -2.2747 H         1 <0>         0.0750
     14 H3         -3.2755    1.5876   -3.9234 H         1 <0>         0.0874
     15 H4         -3.5419    3.1314   -3.0446 H         1 <0>         0.0668
     16 H5         -5.4719    0.3615   -1.1753 H         1 <0>         0.0623
     17 H6         -4.6561   -0.3939   -2.5862 H         1 <0>         0.0895
     18 H7         -2.8568    2.9802   -0.4320 H         1 <0>         0.1030
     19 H8         -3.7552    1.6909    0.4381 H         1 <0>         0.1062
     20 H9         -0.3821    0.4291   -2.2118 H         1 <0>         0.1270
     21 H10        -1.0557    2.0815   -2.4179 H         1 <0>         0.1169
     22 H11         1.0088    2.1076   -1.1282 H         1 <0>         0.4431
     23 H12         0.2774    0.9819    0.0654 H         1 <0>         0.4712
     24 H13        -0.3962    2.6344   -0.1407 H         1 <0>         0.4458
@<TRIPOS>BOND
     1    1    4 1
     2    1    2 1
     3    1   12 1
     4    1   13 1
     5    2    3 1
     6    2   14 1
     7    2   15 1
     8    3    6 1
     9    3    4 1
    10    3    5 1
    11    4   16 1
    12    4   17 1
    13    5    6 1
    14    5   18 1
    15    5   19 1
    16    6    7 1
    17    6    9 1
    18    7    8 1
    19    7   20 1
    20    7   21 1
    21    8   22 1
    22    8   23 1
    23    8   24 1
    24    9   10 2
    25    9   11 1
@<TRIPOS>MOLECULE
ZINC28474936
   24    25     0     0     0
SMALL
USER_CHARGES
(1S)-1-(aminomethyl)spiro[2.3]hexane-1-carboxylic acid
@<TRIPOS>ATOM
      1 C1          4.2441   -0.0754   -0.1928 C.3       1 <0>        -0.1668
      2 C2          2.7426   -0.3528   -0.0011 C.3       1 <0>        -0.0600
      3 C3          2.5600    1.1657    0.0969 C.3       1 <0>        -0.1379
      4 C4          3.8438    1.3111   -0.7274 C.3       1 <0>        -0.1255
      5 C5          2.0983    1.9928    1.2916 C.3       1 <0>        -0.1131
      6 C6          1.2724    1.9767    0.0024 C.3       1 <0>        -0.1580
      7 C7          1.2924    3.2358   -0.8665 C.3       1 <0>         0.0583
      8 N1          0.9016    2.8895   -2.2396 N.4       1 <0>        -0.6780
      9 C8         -0.0303    1.2192    0.0195 C.2       1 <0>         0.4764
     10 O1         -0.0269    0.0111   -0.0007 O.co2     1 <0>        -0.5951
     11 O2         -1.1944    1.8866    0.0517 O.co2     1 <0>        -0.7491
     12 H1          4.7949   -0.6235   -0.9714 H         1 <0>         0.0635
     13 H2          4.8841    0.0442    0.6938 H         1 <0>         0.0740
     14 H3          2.3529   -0.8856   -0.8810 H         1 <0>         0.0865
     15 H4          2.5956   -0.9711    0.8967 H         1 <0>         0.0677
     16 H5          4.5970    2.0528   -0.4232 H         1 <0>         0.0657
     17 H6          3.7846    1.2777   -1.8253 H         1 <0>         0.0749
     18 H7          1.9361    1.3309    2.1551 H         1 <0>         0.1069
     19 H8          2.8677    2.7384    1.5407 H         1 <0>         0.1038
     20 H9          0.5856    3.9737   -0.4591 H         1 <0>         0.1335
     21 H10         2.3062    3.6626   -0.8704 H         1 <0>         0.1142
     22 H11         0.9160    3.7948   -2.8643 H         1 <0>         0.4465
     23 H12        -0.1122    2.4628   -2.2357 H         1 <0>         0.4666
     24 H13         1.6084    2.1516   -2.6469 H         1 <0>         0.4450
@<TRIPOS>BOND
     1    1    4 1
     2    1    2 1
     3    1   12 1
     4    1   13 1
     5    2    3 1
     6    2   14 1
     7    2   15 1
     8    3    6 1
     9    3    4 1
    10    3    5 1
    11    4   16 1
    12    4   17 1
    13    5    6 1
    14    5   18 1
    15    5   19 1
    16    6    7 1
    17    6    9 1
    18    7    8 1
    19    7   20 1
    20    7   21 1
    21    8   22 1
    22    8   23 1
    23    8   24 1
    24    9   10 2
    25    9   11 1
@<TRIPOS>MOLECULE
ZINC38415863
   24    24     0     0     0
SMALL
USER_CHARGES

@<TRIPOS>ATOM
      1 C1          0.0402    1.4197    0.1898 C.3       1 <0>        -0.1551
      2 C2          0.0341   -0.1038    0.0498 C.3       1 <0>        -0.0778
      3 C3         -1.4007   -0.6213    0.1696 C.3       1 <0>        -0.1408
      4 C4          0.6043   -0.4928   -1.3156 C.3       1 <0>         0.0126
      5 H1          0.0409    0.0105   -2.1014 H         1 <0>         0.0965
      6 C5          2.0737   -0.0736   -1.3930 C.3       1 <0>        -0.0009
      7 N1          2.5867   -0.3339   -2.7447 N.4       1 <0>        -0.6324
      8 C6          0.4974   -1.9849   -1.4980 C.2       1 <0>         0.0078
      9 N2         -0.1684   -2.6185   -2.4525 N.2       1 <0>        -0.3764
     10 N3         -0.0138   -3.8842   -2.2613 N.2       1 <0>        -0.1782
     11 N4          0.7246   -4.0642   -1.2219 N.2       1 <0>        -0.1774
     12 N5          1.0559   -2.9158   -0.7382 N.2       1 <0>        -0.3743
     13 H2          1.0692    1.7784    0.2127 H         1 <0>         0.0524
     14 H3         -0.4809    1.8645   -0.6580 H         1 <0>         0.0582
     15 H4         -0.4635    1.7017    1.1144 H         1 <0>         0.0648
     16 H5          0.6459   -0.5435    0.8376 H         1 <0>         0.0839
     17 H6         -2.0124   -0.1817   -0.6182 H         1 <0>         0.0541
     18 H7         -1.4050   -1.7067    0.0699 H         1 <0>         0.0594
     19 H8         -1.8069   -0.3442    1.1424 H         1 <0>         0.0562
     20 H9          2.1603    0.9899   -1.1701 H         1 <0>         0.1328
     21 H10         2.6532   -0.6451   -0.6681 H         1 <0>         0.1366
     22 H11         2.5869   -1.3278   -2.9186 H         1 <0>         0.4378
     23 H12         1.9974    0.1260   -3.4224 H         1 <0>         0.4309
     24 H13         3.5280    0.0212   -2.8214 H         1 <0>         0.4292
@<TRIPOS>BOND
     1    1    2 1
     2    1   13 1
     3    1   14 1
     4    1   15 1
     5    2    3 1
     6    2    4 1
     7    2   16 1
     8    3   17 1
     9    3   18 1
    10    3   19 1
    11    4    5 1
    12    4    6 1
    13    4    8 1
    14    6    7 1
    15    6   20 1
    16    6   21 1
    17    7   22 1
    18    7   23 1
    19    7   24 1
    20    8    9 1
    21    8   12 2
    22    9   10 1
    23   10   11 2
    24   11   12 1
@<TRIPOS>MOLECULE
ZINC38415864
   24    24     0     0     0
SMALL
USER_CHARGES

@<TRIPOS>ATOM
      1 C1         -0.0106    1.5693    0.3146 C.3       1 <0>        -0.1408
      2 C2         -0.1888    0.0951   -0.0538 C.3       1 <0>        -0.0778
      3 C3         -1.6774   -0.2094   -0.2334 C.3       1 <0>        -0.1551
      4 C4          0.5527   -0.1974   -1.3598 C.3       1 <0>         0.0125
      5 H1          0.0993    0.3727   -2.1706 H         1 <0>         0.0964
      6 C5          0.4616   -1.6920   -1.6742 C.3       1 <0>        -0.0011
      7 N1          1.0566   -1.9523   -2.9919 N.4       1 <0>        -0.6328
      8 C6          1.9996    0.1982   -1.2153 C.2       1 <0>         0.0068
      9 N2          2.6501    1.0946   -1.9429 N.2       1 <0>        -0.3762
     10 N3          3.8631    1.1430   -1.5086 N.2       1 <0>        -0.1780
     11 N4          3.9940    0.3093   -0.5361 N.2       1 <0>        -0.1774
     12 N5          2.8649   -0.2791   -0.3326 N.2       1 <0>        -0.3731
     13 H2          1.0499    1.7863    0.4425 H         1 <0>         0.0594
     14 H3         -0.4159    2.1943   -0.4812 H         1 <0>         0.0540
     15 H4         -0.5389    1.7777    1.2450 H         1 <0>         0.0562
     16 H5          0.2165   -0.5299    0.7419 H         1 <0>         0.0841
     17 H6         -2.0576    0.3335   -1.0987 H         1 <0>         0.0581
     18 H7         -1.8133   -1.2798   -0.3876 H         1 <0>         0.0525
     19 H8         -2.2220    0.1012    0.6583 H         1 <0>         0.0648
     20 H9          1.0011   -2.2568   -0.9139 H         1 <0>         0.1365
     21 H10        -0.5843   -1.9988   -1.6809 H         1 <0>         0.1331
     22 H11         0.5318   -1.4622   -3.7007 H         1 <0>         0.4301
     23 H12         2.0129   -1.6305   -2.9986 H         1 <0>         0.4381
     24 H13         1.0338   -2.9431   -3.1814 H         1 <0>         0.4296
@<TRIPOS>BOND
     1    1    2 1
     2    1   13 1
     3    1   14 1
     4    1   15 1
     5    2    3 1
     6    2    4 1
     7    2   16 1
     8    3   17 1
     9    3   18 1
    10    3   19 1
    11    4    5 1
    12    4    6 1
    13    4    8 1
    14    6    7 1
    15    6   20 1
    16    6   21 1
    17    7   22 1
    18    7   23 1
    19    7   24 1
    20    8    9 1
    21    8   12 2
    22    9   10 1
    23   10   11 2
    24   11   12 1
@<TRIPOS>MOLECULE
ZINC13643083
   27    28     0     0     0
SMALL
USER_CHARGES
(1R)-1-(aminomethyl)spiro[2.4]heptane-1-carboxylic acid
@<TRIPOS>ATOM
      1 C1          0.1858    5.8238   -0.3253 C.3       1 <0>        -0.1303
      2 C2          1.3703    5.7008   -1.3163 C.3       1 <0>        -0.1226
      3 C3          2.1737    4.4884   -0.7986 C.3       1 <0>        -0.0923
      4 C4          1.1917    3.6323    0.0128 C.3       1 <0>        -0.0810
      5 C5         -0.1715    4.3446   -0.0312 C.3       1 <0>        -0.0737
      6 C6          1.6447    2.8898    1.2662 C.3       1 <0>        -0.1416
      7 C7          1.2786    2.1093    0.0012 C.3       1 <0>        -0.2103
      8 C8          2.4215    1.4719   -0.7916 C.3       1 <0>         0.0558
      9 C9         -0.0161    1.3381    0.0094 C.2       1 <0>         0.4929
     10 O1         -1.0706    1.9279    0.0176 O.co2     1 <0>        -0.5706
     11 H1          0.4965    6.3345    0.5862 H         1 <0>         0.0647
     12 H2         -0.6547    6.3389   -0.7904 H         1 <0>         0.0677
     13 H3          1.9825    6.6023   -1.2927 H         1 <0>         0.0661
     14 H4          1.0049    5.5132   -2.3260 H         1 <0>         0.0663
     15 H5          2.9909    4.8258   -0.1611 H         1 <0>         0.0698
     16 H6          2.5667    3.9135   -1.6371 H         1 <0>         0.0619
     17 H7         -0.7908    3.9353   -0.8295 H         1 <0>         0.0857
     18 H8         -0.6789    4.2580    0.9296 H         1 <0>         0.0683
     19 H9          0.9491    2.8454    2.1042 H         1 <0>         0.1031
     20 H10         2.6999    2.9497    1.5331 H         1 <0>         0.0996
     21 H11         2.3420    1.7609   -1.8396 H         1 <0>         0.1169
     22 H12         3.3760    1.8140   -0.3917 H         1 <0>         0.1152
     23 H13         3.0841   -0.4351   -1.1948 H         1 <0>         0.4067
     24 H14         2.3458   -0.2798    0.2873 H         1 <0>         0.4304
     25 N1          2.3168    0.0056   -0.6901 N.4       1 <0>        -0.6244
     26 H15         1.4267   -0.2985   -1.1017 H         1 <0>         0.4368
     27 O2          0.0021   -0.0041    0.0020 O.co2     1 <0>        -0.7614
@<TRIPOS>BOND
     1    1    5 1
     2    1    2 1
     3    1   11 1
     4    1   12 1
     5    2    3 1
     6    2   13 1
     7    2   14 1
     8    3    4 1
     9    3   15 1
    10    3   16 1
    11    4    7 1
    12    4    5 1
    13    4    6 1
    14    5   17 1
    15    5   18 1
    16    6    7 1
    17    6   19 1
    18    6   20 1
    19    7    8 1
    20    7    9 1
    21    8   21 1
    22    8   22 1
    23    8   25 1
    24    9   10 2
    25    9   27 1
    26   23   25 1
    27   24   25 1
    28   25   26 1
@<TRIPOS>MOLECULE
ZINC13643086
   27    28     0     0     0
SMALL
USER_CHARGES
(1S)-1-(aminomethyl)spiro[2.4]heptane-1-carboxylic acid
@<TRIPOS>ATOM
      1 C1          1.4865   -0.4249   -0.0313 C.3       1 <0>        -0.1299
      2 C2          0.0021   -0.0041    0.0020 C.3       1 <0>        -0.1217
      3 C3         -0.0188    1.5365    0.0105 C.3       1 <0>        -0.0915
      4 C4          1.4479    1.9879   -0.0011 C.3       1 <0>        -0.0831
      5 C5          2.2440    0.7929    0.5578 C.3       1 <0>        -0.0697
      6 C6          2.0089    2.8655   -1.1101 C.3       1 <0>        -0.1382
      7 C7          1.8490    3.4225    0.3078 C.3       1 <0>        -0.2092
      8 C8          0.7268    4.4344    0.5475 C.3       1 <0>         0.0565
      9 C9          3.1020    3.6363    1.1174 C.2       1 <0>         0.4929
     10 O1          3.7465    2.6867    1.4952 O.co2     1 <0>        -0.5707
     11 H1          1.6461   -1.3083    0.5870 H         1 <0>         0.0663
     12 H2          1.8063   -0.6131   -1.0562 H         1 <0>         0.0639
     13 H3         -0.4749   -0.3889    0.9034 H         1 <0>         0.0644
     14 H4         -0.5131   -0.3796   -0.8821 H         1 <0>         0.0638
     15 H5         -0.5320    1.9088   -0.8761 H         1 <0>         0.0646
     16 H6         -0.5150    1.8992    0.9107 H         1 <0>         0.0666
     17 H7          2.2086    0.7802    1.6471 H         1 <0>         0.0756
     18 H8          3.2756    0.8135    0.2062 H         1 <0>         0.0764
     19 H9          3.0203    2.6537   -1.4570 H         1 <0>         0.1033
     20 H10         1.3146    3.2193   -1.8723 H         1 <0>         0.0999
     21 H11         0.0976    4.4964   -0.3405 H         1 <0>         0.1151
     22 H12         0.1246    4.1145    1.3979 H         1 <0>         0.1165
     23 H13         1.9231    6.0441    0.0824 H         1 <0>         0.4305
     24 H14         0.5871    6.4402    0.9902 H         1 <0>         0.4066
     25 N1          1.3215    5.7484    0.8494 N.4       1 <0>        -0.6245
     26 H15         1.8824    5.6761    1.7064 H         1 <0>         0.4369
     27 O2          3.5021    4.8817    1.4187 O.co2     1 <0>        -0.7614
@<TRIPOS>BOND
     1    1    5 1
     2    1    2 1
     3    1   11 1
     4    1   12 1
     5    2    3 1
     6    2   13 1
     7    2   14 1
     8    3    4 1
     9    3   15 1
    10    3   16 1
    11    4    7 1
    12    4    5 1
    13    4    6 1
    14    5   17 1
    15    5   18 1
    16    6    7 1
    17    6   19 1
    18    6   20 1
    19    7    8 1
    20    7    9 1
    21    8   21 1
    22    8   22 1
    23    8   25 1
    24    9   10 2
    25    9   27 1
    26   23   25 1
    27   24   25 1
    28   25   26 1
@<TRIPOS>MOLECULE
ZINC13641457
   31    30     0     0     0
SMALL
USER_CHARGES

@<TRIPOS>ATOM
      1 C1          0.6084   -0.2920   -1.5317 C.3       1 <0>        -0.1752
      2 C2          0.1024    0.3492   -0.2379 C.3       1 <0>         0.0275
      3 H1         -0.9868    0.3150   -0.2172 H         1 <0>         0.1618
      4 C3          0.6596   -0.4176    0.9631 C.3       1 <0>        -0.0892
      5 H2          0.4146   -1.4751    0.8645 H         1 <0>         0.1228
      6 C4          2.1794   -0.2490    1.0154 C.3       1 <0>        -0.1309
      7 C5          2.7510   -1.1200    2.1359 C.3       1 <0>        -0.0967
      8 C6          2.5168   -2.5953    1.8050 C.3       1 <0>        -0.1544
      9 C7          4.2527   -0.8593    2.2690 C.3       1 <0>        -0.1491
     10 C8          0.0410    0.1313    2.2503 C.3       1 <0>        -0.1974
     11 C9         -1.4327   -0.1827    2.2731 C.2       1 <0>         0.4809
     12 O1         -1.9206   -0.8818    1.4015 O.co2     1 <0>        -0.6907
     13 O2         -2.1371    0.2623    3.1632 O.co2     1 <0>        -0.6835
     14 N1          0.5497    1.7471   -0.1767 N.4       1 <0>        -0.6369
     15 H3          0.2765   -1.3292   -1.5771 H         1 <0>         0.1047
     16 H4          0.2114    0.2543   -2.3873 H         1 <0>         0.0736
     17 H5          1.6976   -0.2578   -1.5523 H         1 <0>         0.0740
     18 H6          2.6118   -0.5534    0.0622 H         1 <0>         0.0729
     19 H7          2.4227    0.7960    1.2075 H         1 <0>         0.0518
     20 H8          2.2551   -0.8752    3.0752 H         1 <0>         0.0792
     21 H9          2.8852   -3.2142    2.6232 H         1 <0>         0.0573
     22 H10         1.4500   -2.7720    1.6676 H         1 <0>         0.0636
     23 H11         3.0484   -2.8509    0.8883 H         1 <0>         0.0537
     24 H12         4.4195    0.1917    2.5048 H         1 <0>         0.0522
     25 H13         4.6599   -1.4799    3.0673 H         1 <0>         0.0585
     26 H14         4.7486   -1.1041    1.3297 H         1 <0>         0.0536
     27 H15         0.5243   -0.3304    3.1114 H         1 <0>         0.0853
     28 H16         0.1830    1.2113    2.2898 H         1 <0>         0.0482
     29 H17         1.5545    1.7827   -0.2614 H         1 <0>         0.4210
     30 H18         0.1299    2.2679   -0.9320 H         1 <0>         0.4278
     31 H19         0.2720    2.1507    0.7054 H         1 <0>         0.4335
@<TRIPOS>BOND
     1    1    2 1
     2    1   15 1
     3    1   16 1
     4    1   17 1
     5    2    3 1
     6    2    4 1
     7    2   14 1
     8    4    5 1
     9    4    6 1
    10    4   10 1
    11    6    7 1
    12    6   18 1
    13    6   19 1
    14    7    8 1
    15    7    9 1
    16    7   20 1
    17    8   21 1
    18    8   22 1
    19    8   23 1
    20    9   24 1
    21    9   25 1
    22    9   26 1
    23   10   11 1
    24   10   27 1
    25   10   28 1
    26   11   12 2
    27   11   13 1
    28   14   29 1
    29   14   30 1
    30   14   31 1
@<TRIPOS>MOLECULE
ZINC13641424
   31    30     0     0     0
SMALL
USER_CHARGES
(3S)-3-(aminomethyl)-4-ethyl-hexanoic acid
@<TRIPOS>ATOM
      1 C1          0.5322   -0.2236   -2.4349 C.3       1 <0>        -0.1646
      2 C2         -0.3879    0.9878   -2.5985 C.3       1 <0>        -0.1260
      3 C3         -1.0586    1.3033   -1.2600 C.3       1 <0>        -0.0961
      4 C4         -1.8822    0.0967   -0.8054 C.3       1 <0>        -0.1272
      5 C5         -3.0172   -0.1504   -1.8012 C.3       1 <0>        -0.1541
      6 C6          0.0133    1.6128   -0.2130 C.3       1 <0>        -0.0966
      7 H1          0.6678    0.7491   -0.0967 H         1 <0>         0.1232
      8 C7         -0.6574    1.9283    1.1255 C.3       1 <0>        -0.1741
      9 C8          0.3982    2.1151    2.1847 C.2       1 <0>         0.4469
     10 O1          1.5573    1.8892    1.9289 O.co2     1 <0>        -0.6333
     11 C9          0.8369    2.8194   -0.6676 C.3       1 <0>        -0.0049
     12 H2          1.0262   -0.4353   -3.3832 H         1 <0>         0.0560
     13 H3          1.2828   -0.0096   -1.6740 H         1 <0>         0.0626
     14 H4         -0.0568   -1.0889   -2.1310 H         1 <0>         0.0633
     15 H5         -1.1514    0.7661   -3.3441 H         1 <0>         0.0722
     16 H6          0.1979    1.8478   -2.9230 H         1 <0>         0.0552
     17 H7         -1.7131    2.1671   -1.3763 H         1 <0>         0.0598
     18 H8         -1.2415   -0.7839   -0.7588 H         1 <0>         0.0738
     19 H9         -2.3011    0.2938    0.1814 H         1 <0>         0.0726
     20 H10        -3.6006    0.7625   -1.9211 H         1 <0>         0.0517
     21 H11        -2.5985   -0.4431   -2.7640 H         1 <0>         0.0558
     22 H12        -3.6612   -0.9467   -1.4279 H         1 <0>         0.0574
     23 H13        -1.2437    2.8424    1.0317 H         1 <0>         0.0544
     24 H14        -1.3125    1.1039    1.4069 H         1 <0>         0.0948
     25 H15         1.6273    3.0138    0.0574 H         1 <0>         0.1514
     26 H16         1.2803    2.6106   -1.6412 H         1 <0>         0.1272
     27 H17         0.4939    4.8177   -1.0248 H         1 <0>         0.4316
     28 H18        -0.7879    3.8348   -1.4209 H         1 <0>         0.4240
     29 O2          0.0509    2.5326    3.4122 O.co2     1 <0>        -0.7497
     30 N1         -0.0433    3.9986   -0.7452 N.4       1 <0>        -0.6471
     31 H19        -0.4600    4.1701    0.1774 H         1 <0>         0.4399
@<TRIPOS>BOND
     1    1    2 1
     2    1   12 1
     3    1   13 1
     4    1   14 1
     5    2    3 1
     6    2   15 1
     7    2   16 1
     8    3    4 1
     9    3    6 1
    10    3   17 1
    11    4    5 1
    12    4   18 1
    13    4   19 1
    14    5   20 1
    15    5   21 1
    16    5   22 1
    17    6    7 1
    18    6    8 1
    19    6   11 1
    20    8    9 1
    21    8   23 1
    22    8   24 1
    23    9   10 2
    24    9   29 1
    25   11   25 1
    26   11   26 1
    27   11   30 1
    28   27   30 1
    29   28   30 1
    30   30   31 1
@<TRIPOS>MOLECULE
ZINC13641427
   31    30     0     0     0
SMALL
USER_CHARGES
(3R)-3-(aminomethyl)-4-ethyl-hexanoic acid
@<TRIPOS>ATOM
      1 C1          2.5243    1.1563    3.0806 C.3       1 <0>        -0.1563
      2 C2          1.5230    1.8025    2.1211 C.3       1 <0>        -0.1274
      3 C3          0.1725    1.0932    2.2395 C.3       1 <0>        -0.1046
      4 C4         -0.3963    1.3106    3.6431 C.3       1 <0>        -0.1334
      5 C5         -0.6577    2.8022    3.8621 C.3       1 <0>        -0.1800
      6 C6         -0.7964    1.6647    1.2024 C.3       1 <0>        -0.0911
      7 H1         -1.0097    2.7069    1.4400 H         1 <0>         0.0995
      8 C7         -0.1644    1.5776   -0.1883 C.3       1 <0>        -0.1589
      9 C8         -1.0647    2.2506   -1.1921 C.2       1 <0>         0.4558
     10 O1         -2.1049    2.7487   -0.8322 O.co2     1 <0>        -0.6494
     11 C9         -2.0977    0.8603    1.2226 C.3       1 <0>        -0.0051
     12 H2          2.1395    1.2119    4.0989 H         1 <0>         0.0534
     13 H3          2.6708    0.1122    2.8040 H         1 <0>         0.0554
     14 H4          3.4760    1.6845    3.0225 H         1 <0>         0.0588
     15 H5          1.8910    1.7149    1.0988 H         1 <0>         0.0809
     16 H6          1.4038    2.8557    2.3754 H         1 <0>         0.0705
     17 H7          0.3059    0.0259    2.0629 H         1 <0>         0.0837
     18 H8         -1.3309    0.7591    3.7459 H         1 <0>         0.0506
     19 H9          0.3191    0.9545    4.3843 H         1 <0>         0.0963
     20 H10        -1.4041    3.1490    3.1475 H         1 <0>         0.0587
     21 H11        -1.0238    2.9618    4.8763 H         1 <0>         0.0668
     22 H12         0.2687    3.3583    3.7185 H         1 <0>         0.0833
     23 H13        -0.0327    0.5309   -0.4626 H         1 <0>         0.0742
     24 H14         0.8052    2.0755   -0.1786 H         1 <0>         0.0893
     25 H15        -2.7505    1.2053    0.4207 H         1 <0>         0.1571
     26 H16        -1.8737   -0.1968    1.0794 H         1 <0>         0.1167
     27 H17        -2.9299    2.0265    2.7011 H         1 <0>         0.4285
     28 H18        -3.6321    0.5261    2.5538 H         1 <0>         0.4211
     29 O2         -0.7108    2.2966   -2.4861 O.co2     1 <0>        -0.7490
     30 N1         -2.7517    1.0380    2.5310 N.4       1 <0>        -0.6678
     31 H19        -2.1351    0.6771    3.2684 H         1 <0>         0.4227
@<TRIPOS>BOND
     1    1    2 1
     2    1   12 1
     3    1   13 1
     4    1   14 1
     5    2    3 1
     6    2   15 1
     7    2   16 1
     8    3    4 1
     9    3    6 1
    10    3   17 1
    11    4    5 1
    12    4   18 1
    13    4   19 1
    14    5   20 1
    15    5   21 1
    16    5   22 1
    17    6    7 1
    18    6    8 1
    19    6   11 1
    20    8    9 1
    21    8   23 1
    22    8   24 1
    23    9   10 2
    24    9   29 1
    25   11   25 1
    26   11   26 1
    27   11   30 1
    28   27   30 1
    29   28   30 1
    30   30   31 1
@<TRIPOS>MOLECULE
ZINC13641430
   28    27     0     0     0
SMALL
USER_CHARGES
(2S)-2-(2-aminoethyl)-4-methyl-pentanoic acid
@<TRIPOS>ATOM
      1 C1         -1.7722    1.0394   -2.5346 C.3       1 <0>        -0.1436
      2 C2         -1.9981    1.3732   -1.0586 C.3       1 <0>        -0.0990
      3 C3         -3.2880    0.7062   -0.5766 C.3       1 <0>        -0.1464
      4 C4         -0.8179    0.8576   -0.2327 C.3       1 <0>        -0.0917
      5 C5         -0.9714    1.3175    1.2185 C.3       1 <0>        -0.1346
      6 H1         -1.9434    1.0029    1.5984 H         1 <0>         0.0802
      7 C6          0.1356    0.6939    2.0709 C.3       1 <0>        -0.1267
      8 C7         -0.0898    1.0523    3.5412 C.3       1 <0>        -0.0072
      9 C8         -0.8691    2.8197    1.2829 C.2       1 <0>         0.4591
     10 O1         -0.1064    3.4052    0.5513 O.co2     1 <0>        -0.6236
     11 H2         -2.6370    1.3592   -3.1159 H         1 <0>         0.0522
     12 H3         -0.8823    1.5575   -2.8921 H         1 <0>         0.0542
     13 H4         -1.6363   -0.0362   -2.6472 H         1 <0>         0.0488
     14 H5         -2.0810    2.4534   -0.9389 H         1 <0>         0.0778
     15 H6         -3.4489    0.9439    0.4749 H         1 <0>         0.0566
     16 H7         -4.1288    1.0734   -1.1650 H         1 <0>         0.0515
     17 H8         -3.2050   -0.3741   -0.6963 H         1 <0>         0.0478
     18 H9         -0.7976   -0.2316   -0.2684 H         1 <0>         0.0503
     19 H10         0.1120    1.2520   -0.6423 H         1 <0>         0.0700
     20 H11         0.1173   -0.3896    1.9541 H         1 <0>         0.0758
     21 H12         1.1031    1.0780    1.7475 H         1 <0>         0.0826
     22 H13        -0.0716    2.1359    3.6580 H         1 <0>         0.1441
     23 H14        -1.0573    0.6683    3.8645 H         1 <0>         0.1330
     24 H15         0.8465    0.6760    5.3356 H         1 <0>         0.4341
     25 H16         1.0187   -0.5446    4.2191 H         1 <0>         0.4286
     26 N1          0.9932    0.4654    4.3498 N.4       1 <0>        -0.6446
     27 H17         1.8911    0.8645    4.0520 H         1 <0>         0.4360
     28 O2         -1.6255    3.5071    2.1530 O.co2     1 <0>        -0.7653
@<TRIPOS>BOND
     1    1    2 1
     2    1   11 1
     3    1   12 1
     4    1   13 1
     5    2    3 1
     6    2    4 1
     7    2   14 1
     8    3   15 1
     9    3   16 1
    10    3   17 1
    11    4    5 1
    12    4   18 1
    13    4   19 1
    14    5    6 1
    15    5    7 1
    16    5    9 1
    17    7    8 1
    18    7   20 1
    19    7   21 1
    20    8   22 1
    21    8   23 1
    22    8   26 1
    23    9   10 2
    24    9   28 1
    25   24   26 1
    26   25   26 1
    27   26   27 1
@<TRIPOS>MOLECULE
ZINC13641448
   31    30     0     0     0
SMALL
USER_CHARGES

@<TRIPOS>ATOM
      1 C1          1.1957    1.4836   -0.1628 C.3       1 <0>        -0.1816
      2 C2          0.6114    0.0701   -0.1268 C.3       1 <0>         0.0206
      3 H1         -0.4640    0.1169   -0.2981 H         1 <0>         0.1704
      4 C3          0.8830   -0.5593    1.2411 C.3       1 <0>        -0.0833
      5 H2          0.5388   -1.5935    1.2399 H         1 <0>         0.0960
      6 C4          2.3849   -0.5219    1.5306 C.3       1 <0>        -0.1252
      7 C5          2.6723   -1.2740    2.8316 C.3       1 <0>        -0.1005
      8 C6          2.3448   -2.7570    2.6464 C.3       1 <0>        -0.1534
      9 C7          4.1508   -1.1196    3.1939 C.3       1 <0>        -0.1488
     10 C8          0.1357    0.2257    2.3210 C.3       1 <0>        -0.1837
     11 C9         -1.3494    0.0868    2.1060 C.2       1 <0>         0.4872
     12 O1         -1.7711   -0.5784    1.1753 O.co2     1 <0>        -0.7052
     13 O2         -2.1293    0.6396    2.8628 O.co2     1 <0>        -0.6808
     14 N1          1.2391   -0.7461   -1.1746 N.4       1 <0>        -0.6334
     15 H3          2.2711    1.4368    0.0085 H         1 <0>         0.0747
     16 H4          1.0023    1.9320   -1.1373 H         1 <0>         0.0729
     17 H5          0.7300    2.0892    0.6146 H         1 <0>         0.1059
     18 H6          2.9249   -0.9950    0.7105 H         1 <0>         0.0475
     19 H7          2.7100    0.5137    1.6302 H         1 <0>         0.0755
     20 H8          2.0572   -0.8633    3.6323 H         1 <0>         0.0827
     21 H9          2.6505   -3.3102    3.5345 H         1 <0>         0.0584
     22 H10         1.2719   -2.8760    2.4956 H         1 <0>         0.0612
     23 H11         2.8787   -3.1412    1.7773 H         1 <0>         0.0493
     24 H12         4.3841   -0.0631    3.3259 H         1 <0>         0.0550
     25 H13         4.3556   -1.6554    4.1208 H         1 <0>         0.0579
     26 H14         4.7659   -1.5303    2.3933 H         1 <0>         0.0512
     27 H15         0.3989   -0.1669    3.3032 H         1 <0>         0.0793
     28 H16         0.4143    1.2779    2.2637 H         1 <0>         0.0695
     29 H17         2.2423   -0.7125   -1.0714 H         1 <0>         0.4188
     30 H18         0.9242   -1.7010   -1.0910 H         1 <0>         0.4337
     31 H19         0.9820   -0.3853   -2.0811 H         1 <0>         0.4282
@<TRIPOS>BOND
     1    1    2 1
     2    1   15 1
     3    1   16 1
     4    1   17 1
     5    2    3 1
     6    2    4 1
     7    2   14 1
     8    4    5 1
     9    4    6 1
    10    4   10 1
    11    6    7 1
    12    6   18 1
    13    6   19 1
    14    7    8 1
    15    7    9 1
    16    7   20 1
    17    8   21 1
    18    8   22 1
    19    8   23 1
    20    9   24 1
    21    9   25 1
    22    9   26 1
    23   10   11 1
    24   10   27 1
    25   10   28 1
    26   11   12 2
    27   11   13 1
    28   14   29 1
    29   14   30 1
    30   14   31 1
@<TRIPOS>MOLECULE
ZINC13641454
   31    30     0     0     0
SMALL
USER_CHARGES
(3S)-3-[(1R)-1-aminoethyl]heptanoic acid
@<TRIPOS>ATOM
      1 C1         -7.6064    0.0471   -0.2737 C.3       1 <0>        -0.1544
      2 C2         -6.4885    1.0821   -0.4149 C.3       1 <0>        -0.1277
      3 C3         -5.1375    0.4122   -0.1559 C.3       1 <0>        -0.1223
      4 C4         -4.0196    1.4472   -0.2970 C.3       1 <0>        -0.1299
      5 C5         -2.6687    0.7773   -0.0380 C.3       1 <0>        -0.0928
      6 H1         -2.5545   -0.0791   -0.7026 H         1 <0>         0.1201
      7 C6         -1.5434    1.7802   -0.3006 C.3       1 <0>        -0.1747
      8 C7         -1.5195    2.1364   -1.7647 C.2       1 <0>         0.4583
      9 O1         -2.2490    1.5623   -2.5381 O.co2     1 <0>        -0.6257
     10 C8         -2.6033    0.3066    1.4163 C.3       1 <0>         0.0297
     11 H2         -3.4345   -0.3693    1.6172 H         1 <0>         0.1367
     12 C9         -1.2813   -0.4252    1.6566 C.3       1 <0>        -0.1799
     13 H3         -7.4534   -0.7538   -0.9971 H         1 <0>         0.0565
     14 H4         -7.5933   -0.3666    0.7346 H         1 <0>         0.0498
     15 H5         -8.5688    0.5244   -0.4582 H         1 <0>         0.0555
     16 H6         -6.6415    1.8831    0.3085 H         1 <0>         0.0574
     17 H7         -6.5015    1.4958   -1.4232 H         1 <0>         0.0696
     18 H8         -4.9846   -0.3887   -0.8792 H         1 <0>         0.0740
     19 H9         -5.1245   -0.0015    0.8525 H         1 <0>         0.0489
     20 H10        -4.1726    2.2482    0.4263 H         1 <0>         0.0421
     21 H11        -4.0327    1.8609   -1.3053 H         1 <0>         0.1118
     22 H12        -0.5884    1.3367   -0.0188 H         1 <0>         0.0796
     23 H13        -1.7141    2.6805    0.2896 H         1 <0>         0.0583
     24 H14        -1.1644   -1.2166    0.9163 H         1 <0>         0.1049
     25 H15        -0.4546    0.2797    1.5685 H         1 <0>         0.0831
     26 H16        -1.2831   -0.8600    2.6561 H         1 <0>         0.0758
     27 H17        -2.6486    1.1835    3.2784 H         1 <0>         0.4287
     28 H18        -1.9673    2.1409    2.1015 H         1 <0>         0.4347
     29 O2         -0.6917    3.0952   -2.2087 O.co2     1 <0>        -0.7567
     30 N1         -2.7126    1.4769    2.3050 N.4       1 <0>        -0.6460
     31 H19        -3.6193    1.9337    2.1517 H         1 <0>         0.4351
@<TRIPOS>BOND
     1    1    2 1
     2    1   13 1
     3    1   14 1
     4    1   15 1
     5    2    3 1
     6    2   16 1
     7    2   17 1
     8    3    4 1
     9    3   18 1
    10    3   19 1
    11    4    5 1
    12    4   20 1
    13    4   21 1
    14    5    6 1
    15    5    7 1
    16    5   10 1
    17    7    8 1
    18    7   22 1
    19    7   23 1
    20    8    9 2
    21    8   29 1
    22   10   11 1
    23   10   12 1
    24   10   30 1
    25   12   24 1
    26   12   25 1
    27   12   26 1
    28   27   30 1
    29   28   30 1
    30   30   31 1
@<TRIPOS>MOLECULE
ZINC13641460
   31    30     0     0     0
SMALL
USER_CHARGES

@<TRIPOS>ATOM
      1 C1         -0.2450    1.2199   -0.4647 C.3       1 <0>        -0.1628
      2 C2         -0.2623   -0.2844   -0.1862 C.3       1 <0>        -0.0941
      3 H1         -1.2660   -0.6739   -0.3563 H         1 <0>         0.0547
      4 C3          0.1440   -0.5388    1.2668 C.3       1 <0>        -0.0860
      5 H2          0.2262   -1.6121    1.4385 H         1 <0>         0.0976
      6 C4          1.4937    0.1267    1.5429 C.3       1 <0>        -0.1818
      7 C5          1.9522   -0.2258    2.9345 C.2       1 <0>         0.4865
      8 O1          1.2633   -0.9429    3.6400 O.co2     1 <0>        -0.7058
      9 O2          3.0121    0.2060    3.3549 O.co2     1 <0>        -0.6810
     10 C6         -0.9148    0.0478    2.2026 C.3       1 <0>        -0.0148
     11 N1         -2.1900   -0.6527    1.9995 N.4       1 <0>        -0.6342
     12 C7          0.7230   -0.9876   -1.1219 C.3       1 <0>        -0.0939
     13 C8          0.7038   -2.4923   -0.8452 C.3       1 <0>        -0.1547
     14 C9          0.3183   -0.7311   -2.5749 C.3       1 <0>        -0.1505
     15 H3          0.7587    1.6094   -0.2946 H         1 <0>         0.0723
     16 H4         -0.5344    1.4012   -1.4998 H         1 <0>         0.0637
     17 H5         -0.9469    1.7209    0.2019 H         1 <0>         0.0494
     18 H6          2.2277   -0.2259    0.8183 H         1 <0>         0.0793
     19 H7          1.3897    1.2084    1.4578 H         1 <0>         0.0702
     20 H8         -0.5936   -0.0749    3.2369 H         1 <0>         0.1621
     21 H9         -1.0442    1.1081    1.9856 H         1 <0>         0.1200
     22 H10        -2.5514   -0.4345    1.0831 H         1 <0>         0.4209
     23 H11        -2.0426   -1.6481    2.0746 H         1 <0>         0.4330
     24 H12         1.7270   -0.5995   -0.9505 H         1 <0>         0.0819
     25 H13        -0.3191   -2.8619   -0.9169 H         1 <0>         0.0493
     26 H14         1.3274   -3.0045   -1.5780 H         1 <0>         0.0587
     27 H15         1.0895   -2.6825    0.1564 H         1 <0>         0.0633
     28 H16         0.3320    0.3409   -2.7720 H         1 <0>         0.0585
     29 H17         1.0202   -1.2321   -3.2415 H         1 <0>         0.0572
     30 H18        -0.6858   -1.1192   -2.7463 H         1 <0>         0.0509
     31 H19        -2.8518   -0.3568    2.7013 H         1 <0>         0.4301
@<TRIPOS>BOND
     1    1    2 1
     2    1   15 1
     3    1   16 1
     4    1   17 1
     5    2    3 1
     6    2    4 1
     7    2   12 1
     8    4    5 1
     9    4    6 1
    10    4   10 1
    11    6    7 1
    12    6   18 1
    13    6   19 1
    14    7    8 2
    15    7    9 1
    16   10   11 1
    17   10   20 1
    18   10   21 1
    19   11   22 1
    20   11   23 1
    21   11   31 1
    22   12   13 1
    23   12   14 1
    24   12   24 1
    25   13   25 1
    26   13   26 1
    27   13   27 1
    28   14   28 1
    29   14   29 1
    30   14   30 1
@<TRIPOS>MOLECULE
ZINC13643089
   30    31     0     0     0
SMALL
USER_CHARGES
(1R)-1-(aminomethyl)spiro[2.5]octane-1-carboxylic acid
@<TRIPOS>ATOM
      1 C1          1.1878   -3.0758    0.0848 C.3       1 <0>        -0.1211
      2 C2          2.0009   -1.8740    0.5684 C.3       1 <0>        -0.1181
      3 C3          1.4264   -0.5912   -0.0405 C.3       1 <0>        -0.0789
      4 C4         -0.0555   -0.4863    0.3317 C.3       1 <0>        -0.0698
      5 C5         -0.9021   -1.7102   -0.0303 C.3       1 <0>        -0.0875
      6 C6         -0.2551   -2.9582    0.5781 C.3       1 <0>        -0.1144
      7 C7         -0.4147    0.2730    1.6085 C.3       1 <0>        -0.1581
      8 C8         -0.7166    0.8894    0.2407 C.3       1 <0>        -0.2043
      9 C9         -2.1799    0.9426   -0.2029 C.3       1 <0>         0.0445
     10 C10         0.1410    2.0452   -0.2063 C.2       1 <0>         0.4861
     11 O1          0.7020    2.0031   -1.2756 O.co2     1 <0>        -0.6023
     12 H1          1.1969   -3.1046   -1.0048 H         1 <0>         0.0633
     13 H2          1.6294   -3.9927    0.4751 H         1 <0>         0.0618
     14 H3          3.0396   -1.9898    0.2589 H         1 <0>         0.0649
     15 H4          1.9502   -1.8146    1.6556 H         1 <0>         0.0606
     16 H5          1.5290   -0.6242   -1.1252 H         1 <0>         0.0752
     17 H6          1.9632    0.2730    0.3508 H         1 <0>         0.0699
     18 H7         -1.9087   -1.5890    0.3697 H         1 <0>         0.0560
     19 H8         -0.9482   -1.8145   -1.1143 H         1 <0>         0.0740
     20 H9         -0.8158   -3.8425    0.2755 H         1 <0>         0.0633
     21 H10        -0.2620   -2.8779    1.6652 H         1 <0>         0.0630
     22 H11        -1.2587   -0.0946    2.1922 H         1 <0>         0.0876
     23 H12         0.4038    0.7038    2.1852 H         1 <0>         0.1108
     24 H13        -2.2498    1.4510   -1.1646 H         1 <0>         0.1349
     25 H14        -2.5675   -0.0716   -0.2992 H         1 <0>         0.1255
     26 H15        -2.6963    2.6464    0.8310 H         1 <0>         0.4449
     27 H16        -3.9567    1.5828    0.6164 H         1 <0>         0.4278
     28 N1         -2.9614    1.6629    0.8178 N.4       1 <0>        -0.6406
     29 H17        -2.7720    1.2524    1.7397 H         1 <0>         0.4312
     30 O2          0.2815    3.1214    0.5834 O.co2     1 <0>        -0.7500
@<TRIPOS>BOND
     1    1    6 1
     2    1    2 1
     3    1   12 1
     4    1   13 1
     5    2    3 1
     6    2   14 1
     7    2   15 1
     8    3    4 1
     9    3   16 1
    10    3   17 1
    11    4    8 1
    12    4    5 1
    13    4    7 1
    14    5    6 1
    15    5   18 1
    16    5   19 1
    17    6   20 1
    18    6   21 1
    19    7    8 1
    20    7   22 1
    21    7   23 1
    22    8    9 1
    23    8   10 1
    24    9   24 1
    25    9   25 1
    26    9   28 1
    27   10   11 2
    28   10   30 1
    29   26   28 1
    30   27   28 1
    31   28   29 1
@<TRIPOS>MOLECULE
ZINC13643092
   30    31     0     0     0
SMALL
USER_CHARGES
(1S)-1-(aminomethyl)spiro[2.5]octane-1-carboxylic acid
@<TRIPOS>ATOM
      1 C1          5.2460    4.8536   -0.4194 C.3       1 <0>        -0.1213
      2 C2          5.0622    3.6148    0.4585 C.3       1 <0>        -0.1217
      3 C3          3.8402    2.8259   -0.0219 C.3       1 <0>        -0.0827
      4 C4          2.6167    3.7469   -0.0022 C.3       1 <0>        -0.0687
      5 C5          2.7809    5.0581   -0.7763 C.3       1 <0>        -0.0875
      6 C6          4.0360    5.7774   -0.2726 C.3       1 <0>        -0.1145
      7 C7          1.7691    3.7744    1.2694 C.3       1 <0>        -0.1453
      8 C8          1.2350    3.0943    0.0069 C.3       1 <0>        -0.2158
      9 C9          0.1137    3.8021   -0.7564 C.3       1 <0>         0.0560
     10 C10         1.1765    1.5884   -0.0006 C.2       1 <0>         0.4938
     11 O1          2.1986    0.9442   -0.0139 O.co2     1 <0>        -0.5697
     12 H1          6.1468    5.3849   -0.1122 H         1 <0>         0.0594
     13 H2          5.3442    4.5481   -1.4611 H         1 <0>         0.0607
     14 H3          4.9126    3.9218    1.4936 H         1 <0>         0.0585
     15 H4          5.9501    2.9862    0.3907 H         1 <0>         0.0624
     16 H5          3.6694    1.9778    0.6412 H         1 <0>         0.1001
     17 H6          4.0122    2.4689   -1.0373 H         1 <0>         0.0640
     18 H7          2.8852    4.8436   -1.8399 H         1 <0>         0.0691
     19 H8          1.9078    5.6900   -0.6134 H         1 <0>         0.0588
     20 H9          3.9064    6.0425    0.7767 H         1 <0>         0.0629
     21 H10         4.1963    6.6822   -0.8589 H         1 <0>         0.0620
     22 H11         1.3221    4.7264    1.5558 H         1 <0>         0.0980
     23 H12         2.0784    3.1327    2.0944 H         1 <0>         0.1023
     24 H13        -0.0343    4.7995   -0.3424 H         1 <0>         0.1148
     25 H14         0.3850    3.8822   -1.8090 H         1 <0>         0.1167
     26 H15        -1.3676    2.8860    0.3413 H         1 <0>         0.4302
     27 H16        -1.8856    3.4766   -1.1245 H         1 <0>         0.4065
     28 N1         -1.1221    3.0079   -0.6397 N.4       1 <0>        -0.6249
     29 H17        -0.9717    2.0853   -1.0646 H         1 <0>         0.4368
     30 O2         -0.0110    0.9628    0.0073 O.co2     1 <0>        -0.7606
@<TRIPOS>BOND
     1    1    6 1
     2    1    2 1
     3    1   12 1
     4    1   13 1
     5    2    3 1
     6    2   14 1
     7    2   15 1
     8    3    4 1
     9    3   16 1
    10    3   17 1
    11    4    8 1
    12    4    5 1
    13    4    7 1
    14    5    6 1
    15    5   18 1
    16    5   19 1
    17    6   20 1
    18    6   21 1
    19    7    8 1
    20    7   22 1
    21    7   23 1
    22    8    9 1
    23    8   10 1
    24    9   24 1
    25    9   25 1
    26    9   28 1
    27   10   11 2
    28   10   30 1
    29   26   28 1
    30   27   28 1
    31   28   29 1
@<TRIPOS>MOLECULE
ZINC13641436
   31    30     0     0     0
SMALL
USER_CHARGES
(3R)-3-(aminomethyl)-3,5-dimethyl-hexanoic acid
@<TRIPOS>ATOM
      1 C1         -5.1977    2.4902    0.7995 C.3       1 <0>        -0.1491
      2 C2         -3.8252    1.8617    1.0490 C.3       1 <0>        -0.0993
      3 C3         -3.8102    1.2006    2.4288 C.3       1 <0>        -0.1690
      4 C4         -3.5440    0.8082   -0.0243 C.3       1 <0>        -0.1181
      5 C5         -2.0421    0.5208   -0.0756 C.3       1 <0>        -0.0626
      6 C6         -1.5728    0.0143    1.2897 C.3       1 <0>        -0.1419
      7 C7         -1.2889    1.8047   -0.4297 C.3       1 <0>        -0.1737
      8 C8          0.1904    1.5216   -0.4803 C.2       1 <0>         0.4488
      9 O1          0.6002    0.4073   -0.2561 O.co2     1 <0>        -0.6303
     10 C9         -1.7626   -0.5439   -1.1382 C.3       1 <0>        -0.0067
     11 H1         -5.9644    1.7165    0.8401 H         1 <0>         0.0531
     12 H2         -5.3980    3.2407    1.5642 H         1 <0>         0.0579
     13 H3         -5.2084    2.9611   -0.1834 H         1 <0>         0.0518
     14 H4         -3.0585    2.6354    1.0085 H         1 <0>         0.0809
     15 H5         -2.7893    0.9175    2.6849 H         1 <0>         0.0782
     16 H6         -4.1900    1.9019    3.1718 H         1 <0>         0.0531
     17 H7         -4.4406    0.3116    2.4126 H         1 <0>         0.0523
     18 H8         -3.8762    1.1796   -0.9938 H         1 <0>         0.0513
     19 H9         -4.0814   -0.1088    0.2171 H         1 <0>         0.0732
     20 H10        -1.3923    0.8628    1.9496 H         1 <0>         0.0700
     21 H11        -2.3409   -0.6262    1.7232 H         1 <0>         0.0547
     22 H12        -0.6509   -0.5546    1.1689 H         1 <0>         0.0880
     23 H13        -1.4880    2.5632    0.3273 H         1 <0>         0.0945
     24 H14        -1.6233    2.1656   -1.4024 H         1 <0>         0.0558
     25 H15        -0.7096   -0.8233   -1.1045 H         1 <0>         0.1646
     26 H16        -2.3780   -1.4222   -0.9432 H         1 <0>         0.1208
     27 H17        -1.9080   -0.6909   -3.1866 H         1 <0>         0.4308
     28 H18        -3.0384    0.3199   -2.5037 H         1 <0>         0.4223
     29 O2          1.0522    2.5061   -0.7798 O.co2     1 <0>        -0.7456
     30 N1         -2.0677    0.0131   -2.4679 N.4       1 <0>        -0.6461
     31 H19        -1.4553    0.8179   -2.6454 H         1 <0>         0.4402
@<TRIPOS>BOND
     1    1    2 1
     2    1   11 1
     3    1   12 1
     4    1   13 1
     5    2    3 1
     6    2    4 1
     7    2   14 1
     8    3   15 1
     9    3   16 1
    10    3   17 1
    11    4    5 1
    12    4   18 1
    13    4   19 1
    14    5    6 1
    15    5    7 1
    16    5   10 1
    17    6   20 1
    18    6   21 1
    19    6   22 1
    20    7    8 1
    21    7   23 1
    22    7   24 1
    23    8    9 2
    24    8   29 1
    25   10   25 1
    26   10   26 1
    27   10   30 1
    28   27   30 1
    29   28   30 1
    30   30   31 1
@<TRIPOS>MOLECULE
ZINC13641439
   31    30     0     0     0
SMALL
USER_CHARGES
(3S)-3-(aminomethyl)-3,5-dimethyl-hexanoic acid
@<TRIPOS>ATOM
      1 C1         -2.7912    2.9735   -2.9088 C.3       1 <0>        -0.1527
      2 C2         -1.9507    2.1576   -1.9246 C.3       1 <0>        -0.1015
      3 C3         -2.3052    0.6752   -2.0579 C.3       1 <0>        -0.1612
      4 C4         -0.4658    2.3567   -2.2348 C.3       1 <0>        -0.1271
      5 C5          0.3765    1.7179   -1.1288 C.3       1 <0>        -0.0583
      6 C6          0.1877    0.1998   -1.1564 C.3       1 <0>        -0.1496
      7 C7          1.8524    2.0524   -1.3540 C.3       1 <0>        -0.1691
      8 C8          2.6820    1.4231   -0.2646 C.2       1 <0>         0.4511
      9 O1          2.1476    0.7737    0.6030 O.co2     1 <0>        -0.6290
     10 C9         -0.0683    2.2625    0.2300 C.3       1 <0>        -0.0137
     11 H1         -2.5847    2.6406   -3.9259 H         1 <0>         0.0606
     12 H2         -3.8491    2.8317   -2.6877 H         1 <0>         0.0590
     13 H3         -2.5386    4.0296   -2.8138 H         1 <0>         0.0516
     14 H4         -2.1571    2.4905   -0.9074 H         1 <0>         0.0617
     15 H5         -1.6795    0.2196   -2.8253 H         1 <0>         0.0651
     16 H6         -2.1348    0.1738   -1.1052 H         1 <0>         0.0673
     17 H7         -3.3539    0.5762   -2.3381 H         1 <0>         0.0535
     18 H8         -0.2457    3.4229   -2.2892 H         1 <0>         0.0550
     19 H9         -0.2279    1.8876   -3.1895 H         1 <0>         0.0871
     20 H10         1.0758   -0.2842   -0.7499 H         1 <0>         0.0920
     21 H11        -0.6804   -0.0693   -0.5546 H         1 <0>         0.0628
     22 H12         0.0332   -0.1285   -2.1842 H         1 <0>         0.0595
     23 H13         2.1693    1.6644   -2.3220 H         1 <0>         0.0894
     24 H14         1.9869    3.1339   -1.3343 H         1 <0>         0.0567
     25 H15        -1.1198    2.0242    0.3905 H         1 <0>         0.1207
     26 H16         0.5317    1.8074    1.0180 H         1 <0>         0.1698
     27 H17        -0.1740    4.1041    1.1444 H         1 <0>         0.4314
     28 H18         1.0678    3.9696    0.0462 H         1 <0>         0.4359
     29 O2          4.0146    1.5841   -0.2580 O.co2     1 <0>        -0.7457
     30 N1          0.0972    3.7268    0.2378 N.4       1 <0>        -0.6460
     31 H19        -0.5007    4.1379   -0.4886 H         1 <0>         0.4236
@<TRIPOS>BOND
     1    1    2 1
     2    1   11 1
     3    1   12 1
     4    1   13 1
     5    2    3 1
     6    2    4 1
     7    2   14 1
     8    3   15 1
     9    3   16 1
    10    3   17 1
    11    4    5 1
    12    4   18 1
    13    4   19 1
    14    5    6 1
    15    5    7 1
    16    5   10 1
    17    6   20 1
    18    6   21 1
    19    6   22 1
    20    7    8 1
    21    7   23 1
    22    7   24 1
    23    8    9 2
    24    8   29 1
    25   10   25 1
    26   10   26 1
    27   10   30 1
    28   27   30 1
    29   28   30 1
    30   30   31 1
@<TRIPOS>MOLECULE
ZINC03959180
   35    35     0     0     0
SMALL
USER_CHARGES
2-[1-(aminomethyl)-3,3-dimethyl-cyclohexyl]acetic acid
@<TRIPOS>ATOM
      1 C1          0.0661    1.0011   -5.2350 C.3       1 <0>        -0.1412
      2 C2         -0.6178    1.2583   -3.8907 C.3       1 <0>        -0.0582
      3 C3         -0.7433    2.7660   -3.6626 C.3       1 <0>        -0.1114
      4 C4         -1.4272    3.0233   -2.3184 C.3       1 <0>        -0.1232
      5 C5         -0.5924    2.4053   -1.1949 C.3       1 <0>        -0.1228
      6 C6         -0.4668    0.8976   -1.4230 C.3       1 <0>        -0.0540
      7 C7          0.2170    0.6404   -2.7673 C.3       1 <0>        -0.1084
      8 C8         -1.8600    0.2651   -1.4303 C.3       1 <0>        -0.2095
      9 C9         -1.7441   -1.2016   -1.7563 C.2       1 <0>         0.4595
     10 O1         -0.6547   -1.7166   -1.8447 O.co2     1 <0>        -0.6338
     11 C10         0.3680    0.2796   -0.2996 C.3       1 <0>        -0.0091
     12 C11        -2.0109    0.6259   -3.8980 C.3       1 <0>        -0.1779
     13 H1          0.1556   -0.0730   -5.3975 H         1 <0>         0.0595
     14 H2         -0.5286    1.4414   -6.0353 H         1 <0>         0.0547
     15 H3          1.0586    1.4517   -5.2298 H         1 <0>         0.0510
     16 H4          0.2492    3.2166   -3.6574 H         1 <0>         0.0608
     17 H5         -1.3380    3.2063   -4.4630 H         1 <0>         0.0643
     18 H6         -1.5166    4.0974   -2.1559 H         1 <0>         0.0646
     19 H7         -2.4197    2.5727   -2.3235 H         1 <0>         0.0742
     20 H8         -1.0796    2.5885   -0.2373 H         1 <0>         0.0488
     21 H9          0.4001    2.8559   -1.1898 H         1 <0>         0.0708
     22 H10         1.2095    1.0909   -2.7621 H         1 <0>         0.0547
     23 H11         0.3065   -0.4337   -2.9298 H         1 <0>         0.1151
     24 H12        -2.3181    0.3840   -0.4484 H         1 <0>         0.0467
     25 H13        -2.4782    0.7566   -2.1815 H         1 <0>         0.1295
     26 H14         0.3967   -0.8032   -0.4217 H         1 <0>         0.1651
     27 H15         1.3822    0.6768   -0.3399 H         1 <0>         0.1179
     28 H16        -0.2834    1.6092    1.1309 H         1 <0>         0.4228
     29 H17        -1.1488    0.1896    1.0896 H         1 <0>         0.4351
     30 H18        -2.7228    1.3097   -3.4356 H         1 <0>         0.0614
     31 H19        -2.3139    0.4262   -4.9258 H         1 <0>         0.0478
     32 H20        -1.9885   -0.3088   -3.3376 H         1 <0>         0.1016
     33 O2         -2.8512   -1.9359   -1.9486 O.co2     1 <0>        -0.7442
     34 N1         -0.2193    0.5994    1.0135 N.4       1 <0>        -0.6454
     35 H21         0.3786    0.2134    1.7536 H         1 <0>         0.4333
@<TRIPOS>BOND
     1    1    2 1
     2    1   13 1
     3    1   14 1
     4    1   15 1
     5    2    7 1
     6    2    3 1
     7    2   12 1
     8    3    4 1
     9    3   16 1
    10    3   17 1
    11    4    5 1
    12    4   18 1
    13    4   19 1
    14    5    6 1
    15    5   20 1
    16    5   21 1
    17    6    7 1
    18    6    8 1
    19    6   11 1
    20    7   22 1
    21    7   23 1
    22    8    9 1
    23    8   24 1
    24    8   25 1
    25    9   10 2
    26    9   33 1
    27   11   26 1
    28   11   27 1
    29   11   34 1
    30   12   30 1
    31   12   31 1
    32   12   32 1
    33   28   34 1
    34   29   34 1
    35   34   35 1
@<TRIPOS>MOLECULE
ZINC13779554
   35    35     0     0     0
SMALL
USER_CHARGES
2-[(1R)-1-(aminomethyl)-3,3-dimethyl-cyclohexyl]acetic acid
@<TRIPOS>ATOM
      1 C1         -0.1288   -0.1359   -0.1689 C.3       1 <0>        -0.1765
      2 C2         -0.1182    1.3920   -0.0885 C.3       1 <0>        -0.0583
      3 C3         -0.8801    1.8423    1.1596 C.3       1 <0>        -0.1114
      4 C4         -2.3252    1.3456    1.0819 C.3       1 <0>        -0.1231
      5 C5         -2.9978    1.9265   -0.1635 C.3       1 <0>        -0.1243
      6 C6         -2.2360    1.4762   -1.4116 C.3       1 <0>        -0.0570
      7 C7         -0.7909    1.9729   -1.3339 C.3       1 <0>        -0.1088
      8 C8         -2.2465   -0.0516   -1.4920 C.3       1 <0>        -0.2096
      9 C9         -1.4047   -0.4991   -2.6591 C.2       1 <0>         0.4603
     10 O1         -0.9531    0.3176   -3.4265 O.co2     1 <0>        -0.6337
     11 C10        -2.9086    2.0571   -2.6570 C.3       1 <0>        -0.0083
     12 C11         1.3268    1.8886   -0.0108 C.3       1 <0>        -0.1412
     13 H1          0.8225   -0.5254    0.1936 H         1 <0>         0.0476
     14 H2         -0.9394   -0.5265    0.4463 H         1 <0>         0.0626
     15 H3         -0.2770   -0.4443   -1.2038 H         1 <0>         0.1000
     16 H4         -0.4009    1.4284    2.0468 H         1 <0>         0.0644
     17 H5         -0.8726    2.9307    1.2168 H         1 <0>         0.0608
     18 H6         -2.8679    1.6664    1.9710 H         1 <0>         0.0647
     19 H7         -2.3327    0.2572    1.0246 H         1 <0>         0.0743
     20 H8         -2.9903    3.0150   -0.1062 H         1 <0>         0.0712
     21 H9         -4.0273    1.5727   -0.2189 H         1 <0>         0.0487
     22 H10        -0.7834    3.0613   -1.2766 H         1 <0>         0.0546
     23 H11        -0.2482    1.6520   -2.2231 H         1 <0>         0.1158
     24 H12        -1.8394   -0.4668   -0.5700 H         1 <0>         0.1305
     25 H13        -3.2700   -0.4013   -1.6270 H         1 <0>         0.0464
     26 H14        -2.8181    3.1433   -2.6456 H         1 <0>         0.1182
     27 H15        -2.4241    1.6614   -3.5496 H         1 <0>         0.1670
     28 H16        -4.7791    1.9912   -3.5146 H         1 <0>         0.4314
     29 H17        -4.4432    0.6902   -2.5346 H         1 <0>         0.4334
     30 H18         1.8696    1.5678   -0.9000 H         1 <0>         0.0596
     31 H19         1.3343    2.9771    0.0465 H         1 <0>         0.0510
     32 H20         1.8060    1.4748    0.8764 H         1 <0>         0.0547
     33 O2         -1.1567   -1.8049   -2.8462 O.co2     1 <0>        -0.7444
     34 N1         -4.3375    1.6973   -2.6449 N.4       1 <0>        -0.6456
     35 H21        -4.7981    2.1706   -1.8587 H         1 <0>         0.4252
@<TRIPOS>BOND
     1    1    2 1
     2    1   13 1
     3    1   14 1
     4    1   15 1
     5    2    7 1
     6    2    3 1
     7    2   12 1
     8    3    4 1
     9    3   16 1
    10    3   17 1
    11    4    5 1
    12    4   18 1
    13    4   19 1
    14    5    6 1
    15    5   20 1
    16    5   21 1
    17    6    7 1
    18    6    8 1
    19    6   11 1
    20    7   22 1
    21    7   23 1
    22    8    9 1
    23    8   24 1
    24    8   25 1
    25    9   10 2
    26    9   33 1
    27   11   26 1
    28   11   27 1
    29   11   34 1
    30   12   30 1
    31   12   31 1
    32   12   32 1
    33   28   34 1
    34   29   34 1
    35   34   35 1
@<TRIPOS>MOLECULE
ZINC13779537
   35    35     0     0     0
SMALL
USER_CHARGES
2-[1-(aminomethyl)-4-ethyl-cyclohexyl]acetic acid
@<TRIPOS>ATOM
      1 C1         -0.3983    1.1173   -0.3501 C.3       1 <0>        -0.1549
      2 C2         -1.0235    1.2738    1.0376 C.3       1 <0>        -0.1225
      3 C3         -2.4854    0.8247    0.9919 C.3       1 <0>        -0.0864
      4 C4         -3.2793    1.7642    0.0819 C.3       1 <0>        -0.1182
      5 C5         -4.7412    1.3152    0.0362 C.3       1 <0>        -0.1287
      6 C6         -5.3308    1.3533    1.4476 C.3       1 <0>        -0.0580
      7 C7         -4.5369    0.4138    2.3575 C.3       1 <0>        -0.1252
      8 C8         -3.0750    0.8629    2.4032 C.3       1 <0>        -0.1165
      9 C9         -5.2524    2.7800    1.9946 C.3       1 <0>        -0.1540
     10 C10        -6.0751    3.6968    1.1265 C.2       1 <0>         0.4594
     11 O1         -6.5961    3.2717    0.1227 O.co2     1 <0>        -0.6415
     12 C11        -6.7927    0.9042    1.4019 C.3       1 <0>        -0.0087
     13 H1         -0.4479    0.0721   -0.6552 H         1 <0>         0.0509
     14 H2          0.6432    1.4373   -0.3175 H         1 <0>         0.0538
     15 H3         -0.9447    1.7312   -1.0661 H         1 <0>         0.0582
     16 H4         -0.4770    0.6600    1.7536 H         1 <0>         0.0602
     17 H5         -0.9738    2.3191    1.3427 H         1 <0>         0.0645
     18 H6         -2.5412   -0.1917    0.6021 H         1 <0>         0.0644
     19 H7         -3.2234    2.7806    0.4717 H         1 <0>         0.0727
     20 H8         -2.8593    1.7371   -0.9235 H         1 <0>         0.0674
     21 H9         -4.7970    0.2988   -0.3535 H         1 <0>         0.0384
     22 H10        -5.3068    1.9845   -0.6120 H         1 <0>         0.1174
     23 H11        -4.5927   -0.6026    1.9677 H         1 <0>         0.0493
     24 H12        -4.9569    0.4410    3.3629 H         1 <0>         0.0725
     25 H13        -2.5094    0.1936    3.0514 H         1 <0>         0.0652
     26 H14        -3.0191    1.8793    2.7929 H         1 <0>         0.0753
     27 H15        -5.6394    2.8002    3.0134 H         1 <0>         0.0718
     28 H16        -4.2145    3.1130    1.9935 H         1 <0>         0.0895
     29 H17        -7.2434    1.0336    2.3858 H         1 <0>         0.1191
     30 H18        -7.3348    1.5054    0.6720 H         1 <0>         0.1696
     31 H19        -7.8117   -0.8414    1.0110 H         1 <0>         0.4311
     32 H20        -6.4190   -0.6626    0.1198 H         1 <0>         0.4313
     33 O2         -6.2290    4.9856    1.4684 O.co2     1 <0>        -0.7472
     34 N1         -6.8448   -0.5219    1.0344 N.4       1 <0>        -0.6455
     35 H21        -6.3278   -1.0694    1.7324 H         1 <0>         0.4251
@<TRIPOS>BOND
     1    1    2 1
     2    1   13 1
     3    1   14 1
     4    1   15 1
     5    2    3 1
     6    2   16 1
     7    2   17 1
     8    3    8 1
     9    3    4 1
    10    3   18 1
    11    4    5 1
    12    4   19 1
    13    4   20 1
    14    5    6 1
    15    5   21 1
    16    5   22 1
    17    6    7 1
    18    6    9 1
    19    6   12 1
    20    7    8 1
    21    7   23 1
    22    7   24 1
    23    8   25 1
    24    8   26 1
    25    9   10 1
    26    9   27 1
    27    9   28 1
    28   10   11 2
    29   10   33 1
    30   12   29 1
    31   12   30 1
    32   12   34 1
    33   31   34 1
    34   32   34 1
    35   34   35 1
@<TRIPOS>MOLECULE
ZINC13779542
   35    35     0     0     0
SMALL
USER_CHARGES
2-[(1S,3R)-1-(aminomethyl)-3-ethyl-cyclohexyl]acetic acid
@<TRIPOS>ATOM
      1 C1          3.5472    3.6638   -1.9369 C.3       1 <0>        -0.1548
      2 C2          3.5777    2.1734   -1.5924 C.3       1 <0>        -0.1184
      3 C3          2.1463    1.6386   -1.5145 C.3       1 <0>        -0.0882
      4 H1          1.6250    1.8587   -2.4461 H         1 <0>         0.0760
      5 C4          1.4143    2.3083   -0.3499 C.3       1 <0>        -0.1169
      6 C5         -0.0171    1.7735   -0.2720 C.3       1 <0>        -0.1214
      7 C6          0.0154    0.2598   -0.0512 C.3       1 <0>        -0.1210
      8 C7          0.7474   -0.4099   -1.2158 C.3       1 <0>        -0.0596
      9 C8          2.1788    0.1249   -1.2937 C.3       1 <0>        -0.1096
     10 C9          0.0157   -0.1009   -2.5235 C.3       1 <0>        -0.1737
     11 C10         0.7639   -0.7195   -3.6761 C.2       1 <0>         0.4528
     12 O1          1.7140   -1.4354   -3.4650 O.co2     1 <0>        -0.6311
     13 C11         0.7799   -1.9235   -0.9950 C.3       1 <0>        -0.0080
     14 H2          3.0540    3.8044   -2.8987 H         1 <0>         0.0551
     15 H3          2.9990    4.2040   -1.1650 H         1 <0>         0.0538
     16 H4          4.5669    4.0449   -1.9923 H         1 <0>         0.0528
     17 H5          4.0709    2.0328   -0.6306 H         1 <0>         0.0584
     18 H6          4.1259    1.6332   -2.3642 H         1 <0>         0.0651
     19 H7          1.3912    3.3867   -0.5072 H         1 <0>         0.0663
     20 H8          1.9356    2.0882    0.5817 H         1 <0>         0.0605
     21 H9         -0.5384    1.9936   -1.2036 H         1 <0>         0.0697
     22 H10        -0.5386    2.2506    0.5577 H         1 <0>         0.0642
     23 H11         0.5367    0.0397    0.8804 H         1 <0>         0.0715
     24 H12        -1.0044   -0.1212    0.0043 H         1 <0>         0.0499
     25 H13         2.7001   -0.0952   -0.3621 H         1 <0>         0.0571
     26 H14         2.7003   -0.3522   -2.1234 H         1 <0>         0.1096
     27 H15        -0.9926   -0.5129   -2.4818 H         1 <0>         0.0536
     28 H16        -0.0385    0.9788   -2.6631 H         1 <0>         0.0970
     29 H17         1.3866   -2.3909   -1.7706 H         1 <0>         0.1667
     30 H18         1.2110   -2.1389   -0.0173 H         1 <0>         0.1200
     31 H19        -0.5859   -3.4640   -0.9983 H         1 <0>         0.4312
     32 H20        -1.1647   -2.0545   -0.3319 H         1 <0>         0.4221
     33 O2          0.3747   -0.4753   -4.9373 O.co2     1 <0>        -0.7436
     34 N1         -0.5944   -2.4485   -1.0783 N.4       1 <0>        -0.6456
     35 H21        -1.0012   -2.1873   -1.9842 H         1 <0>         0.4385
@<TRIPOS>BOND
     1    1    2 1
     2    1   14 1
     3    1   15 1
     4    1   16 1
     5    2    3 1
     6    2   17 1
     7    2   18 1
     8    3    4 1
     9    3    9 1
    10    3    5 1
    11    5    6 1
    12    5   19 1
    13    5   20 1
    14    6    7 1
    15    6   21 1
    16    6   22 1
    17    7    8 1
    18    7   23 1
    19    7   24 1
    20    8    9 1
    21    8   10 1
    22    8   13 1
    23    9   25 1
    24    9   26 1
    25   10   11 1
    26   10   27 1
    27   10   28 1
    28   11   12 2
    29   11   33 1
    30   13   29 1
    31   13   30 1
    32   13   34 1
    33   31   34 1
    34   32   34 1
    35   34   35 1
@<TRIPOS>MOLECULE
ZINC13779543
   35    35     0     0     0
SMALL
USER_CHARGES
2-[(1S,3S)-1-(aminomethyl)-3-ethyl-cyclohexyl]acetic acid
@<TRIPOS>ATOM
      1 C1          0.2015    0.8978    0.2256 C.3       1 <0>        -0.1563
      2 C2         -0.6045    1.4381    1.4084 C.3       1 <0>        -0.1216
      3 C3         -0.6331    2.9668    1.3503 C.3       1 <0>        -0.0901
      4 H1          0.3873    3.3479    1.3094 H         1 <0>         0.0642
      5 C4         -1.3956    3.4156    0.1021 C.3       1 <0>        -0.1198
      6 C5         -1.4241    4.9442    0.0440 C.3       1 <0>        -0.1230
      7 C6         -2.1224    5.4890    1.2916 C.3       1 <0>        -0.1181
      8 C7         -1.3598    5.0402    2.5398 C.3       1 <0>        -0.0535
      9 C8         -1.3313    3.5116    2.5979 C.3       1 <0>        -0.1212
     10 C9         -2.0581    5.5851    3.7874 C.3       1 <0>        -0.1716
     11 C10        -2.1330    7.0880    3.7052 C.2       1 <0>         0.4514
     12 O1         -1.5785    7.6721    2.8046 O.co2     1 <0>        -0.6301
     13 C11         0.0724    5.5752    2.4823 C.3       1 <0>        -0.0136
     14 H2          0.2219   -0.1913    0.2669 H         1 <0>         0.0550
     15 H3          1.2203    1.2823    0.2742 H         1 <0>         0.0515
     16 H4         -0.2633    1.2173   -0.7071 H         1 <0>         0.0591
     17 H5         -1.6233    1.0536    1.3598 H         1 <0>         0.0658
     18 H6         -0.1397    1.1186    2.3411 H         1 <0>         0.0596
     19 H7         -0.8981    3.0274   -0.7867 H         1 <0>         0.0659
     20 H8         -2.4160    3.0344    0.1431 H         1 <0>         0.0659
     21 H9         -1.9674    5.2639   -0.8452 H         1 <0>         0.0681
     22 H10        -0.4038    5.3253    0.0031 H         1 <0>         0.0585
     23 H11        -3.1427    5.1079    1.3326 H         1 <0>         0.0667
     24 H12        -2.1427    6.5780    1.2502 H         1 <0>         0.1107
     25 H13        -2.3517    3.1305    2.6389 H         1 <0>         0.0837
     26 H14        -0.7881    3.1919    3.4872 H         1 <0>         0.0526
     27 H15        -3.0657    5.1739    3.8486 H         1 <0>         0.0910
     28 H16        -1.4937    5.2974    4.6745 H         1 <0>         0.0562
     29 H17         0.6009    5.1102    1.6501 H         1 <0>         0.1241
     30 H18         0.0512    6.6558    2.3410 H         1 <0>         0.1666
     31 H19         0.8161    4.2619    3.8825 H         1 <0>         0.4216
     32 H20         1.6825    5.6762    3.7613 H         1 <0>         0.4311
     33 O2         -2.8157    7.7776    4.6326 O.co2     1 <0>        -0.7429
     34 N1          0.7483    5.2703    3.7558 N.4       1 <0>        -0.6458
     35 H21         0.2050    5.6695    4.5302 H         1 <0>         0.4382
@<TRIPOS>BOND
     1    1    2 1
     2    1   14 1
     3    1   15 1
     4    1   16 1
     5    2    3 1
     6    2   17 1
     7    2   18 1
     8    3    4 1
     9    3    9 1
    10    3    5 1
    11    5    6 1
    12    5   19 1
    13    5   20 1
    14    6    7 1
    15    6   21 1
    16    6   22 1
    17    7    8 1
    18    7   23 1
    19    7   24 1
    20    8    9 1
    21    8   10 1
    22    8   13 1
    23    9   25 1
    24    9   26 1
    25   10   11 1
    26   10   27 1
    27   10   28 1
    28   11   12 2
    29   11   33 1
    30   13   29 1
    31   13   30 1
    32   13   34 1
    33   31   34 1
    34   32   34 1
    35   34   35 1
@<TRIPOS>MOLECULE
ZINC13779544
   35    35     0     0     0
SMALL
USER_CHARGES
2-[(1R,3R)-1-(aminomethyl)-3-ethyl-cyclohexyl]acetic acid
@<TRIPOS>ATOM
      1 C1          5.2995    7.5718    0.2416 C.3       1 <0>        -0.1535
      2 C2          3.8718    7.0277    0.3235 C.3       1 <0>        -0.1225
      3 C3          3.8903    5.5127    0.1107 C.3       1 <0>        -0.0846
      4 H1          4.5722    5.0536    0.8265 H         1 <0>         0.0566
      5 C4          4.3603    5.2033   -1.3121 C.3       1 <0>        -0.1184
      6 C5          4.3789    3.6883   -1.5249 C.3       1 <0>        -0.1197
      7 C6          2.9703    3.1272   -1.3198 C.3       1 <0>        -0.1367
      8 C7          2.5003    3.4366    0.1030 C.3       1 <0>        -0.0556
      9 C8          2.4818    4.9516    0.3158 C.3       1 <0>        -0.1139
     10 C9          1.0918    2.8755    0.3082 C.3       1 <0>        -0.1702
     11 C10         0.1598    3.4709   -0.7156 C.2       1 <0>         0.4619
     12 O1          0.5653    4.3073   -1.4876 O.co2     1 <0>        -0.6161
     13 C11         3.4574    2.7921    1.1078 C.3       1 <0>        -0.0071
     14 H2          5.9114    7.1040    1.0128 H         1 <0>         0.0491
     15 H3          5.7179    7.3478   -0.7397 H         1 <0>         0.0563
     16 H4          5.2863    8.6511    0.3932 H         1 <0>         0.0537
     17 H5          3.2599    7.4955   -0.4477 H         1 <0>         0.0680
     18 H6          3.4534    7.2517    1.3048 H         1 <0>         0.0609
     19 H7          3.6785    5.6625   -2.0279 H         1 <0>         0.0744
     20 H8          5.3638    5.6030   -1.4582 H         1 <0>         0.0623
     21 H9          4.7137    3.4679   -2.5385 H         1 <0>         0.0673
     22 H10         5.0607    3.2292   -0.8091 H         1 <0>         0.0448
     23 H11         2.9836    2.0479   -1.4714 H         1 <0>         0.0409
     24 H12         2.2885    3.5863   -2.0356 H         1 <0>         0.1289
     25 H13         1.8000    5.4108   -0.4000 H         1 <0>         0.1217
     26 H14         2.1469    5.1721    1.3294 H         1 <0>         0.0574
     27 H15         0.7419    3.1289    1.3089 H         1 <0>         0.0790
     28 H16         1.1122    1.7917    0.1940 H         1 <0>         0.0549
     29 H17         4.4744    3.1301    0.9091 H         1 <0>         0.1346
     30 H18         3.1700    3.0796    2.1192 H         1 <0>         0.1270
     31 H19         3.6892    1.0359    0.0588 H         1 <0>         0.4324
     32 H20         3.9391    0.8787    1.6954 H         1 <0>         0.4299
     33 O2         -1.1207    3.0721   -0.7698 O.co2     1 <0>        -0.7542
     34 N1          3.3681    1.3268    0.9807 N.4       1 <0>        -0.6473
     35 H21         2.3907    1.0364    1.1020 H         1 <0>         0.4377
@<TRIPOS>BOND
     1    1    2 1
     2    1   14 1
     3    1   15 1
     4    1   16 1
     5    2    3 1
     6    2   17 1
     7    2   18 1
     8    3    4 1
     9    3    9 1
    10    3    5 1
    11    5    6 1
    12    5   19 1
    13    5   20 1
    14    6    7 1
    15    6   21 1
    16    6   22 1
    17    7    8 1
    18    7   23 1
    19    7   24 1
    20    8    9 1
    21    8   10 1
    22    8   13 1
    23    9   25 1
    24    9   26 1
    25   10   11 1
    26   10   27 1
    27   10   28 1
    28   11   12 2
    29   11   33 1
    30   13   29 1
    31   13   30 1
    32   13   34 1
    33   31   34 1
    34   32   34 1
    35   34   35 1
@<TRIPOS>MOLECULE
ZINC13779545
   35    35     0     0     0
SMALL
USER_CHARGES
2-[(1R,3S)-1-(aminomethyl)-3-ethyl-cyclohexyl]acetic acid
@<TRIPOS>ATOM
      1 C1          4.6844   -1.7065    1.0091 C.3       1 <0>        -0.1549
      2 C2          4.2495   -0.2888    1.3859 C.3       1 <0>        -0.1186
      3 C3          3.1587    0.1831    0.4224 C.3       1 <0>        -0.0881
      4 H1          3.5176    0.0967   -0.6032 H         1 <0>         0.0751
      5 C4          1.9107   -0.6840    0.6007 C.3       1 <0>        -0.1171
      6 C5          0.8199   -0.2121   -0.3628 C.3       1 <0>        -0.1211
      7 C6          0.4733    1.2481   -0.0651 C.3       1 <0>        -0.1213
      8 C7          1.7212    2.1151   -0.2434 C.3       1 <0>        -0.0596
      9 C8          2.8120    1.6432    0.7201 C.3       1 <0>        -0.1087
     10 C9          2.2250    1.9939   -1.6830 C.3       1 <0>        -0.1752
     11 C10         3.4177    2.8948   -1.8754 C.2       1 <0>         0.4498
     12 O1          3.8534    3.5277   -0.9429 O.co2     1 <0>        -0.6283
     13 C11         1.3746    3.5753    0.0543 C.3       1 <0>        -0.0093
     14 H2          3.8282   -2.3781    1.0726 H         1 <0>         0.0539
     15 H3          5.0732   -1.7087   -0.0091 H         1 <0>         0.0547
     16 H4          5.4615   -2.0427    1.6956 H         1 <0>         0.0529
     17 H5          5.1057    0.3828    1.3225 H         1 <0>         0.0652
     18 H6          3.8606   -0.2866    2.4042 H         1 <0>         0.0587
     19 H7          1.5518   -0.5976    1.6263 H         1 <0>         0.0607
     20 H8          2.1577   -1.7242    0.3886 H         1 <0>         0.0662
     21 H9         -0.0691   -0.8298   -0.2358 H         1 <0>         0.0642
     22 H10         1.1789   -0.2985   -1.3884 H         1 <0>         0.0691
     23 H11        -0.3038    1.5843   -0.7515 H         1 <0>         0.0501
     24 H12         0.1144    1.3345    0.9605 H         1 <0>         0.0714
     25 H13         2.4531    1.7296    1.7457 H         1 <0>         0.0572
     26 H14         3.7011    2.2609    0.5931 H         1 <0>         0.1096
     27 H15         2.5137    0.9616   -1.8812 H         1 <0>         0.0982
     28 H16         1.4327    2.2881   -2.3712 H         1 <0>         0.0556
     29 H17         0.9234    3.6471    1.0440 H         1 <0>         0.1200
     30 H18         2.2825    4.1777    0.0244 H         1 <0>         0.1669
     31 H19        -0.4623    3.5968   -0.8751 H         1 <0>         0.4220
     32 H20         0.3119    5.0687   -0.8832 H         1 <0>         0.4318
     33 O2          3.9960    2.9941   -3.0826 O.co2     1 <0>        -0.7443
     34 N1          0.4384    4.0620   -0.9744 N.4       1 <0>        -0.6459
     35 H21         0.8215    3.8554   -1.9043 H         1 <0>         0.4385
@<TRIPOS>BOND
     1    1    2 1
     2    1   14 1
     3    1   15 1
     4    1   16 1
     5    2    3 1
     6    2   17 1
     7    2   18 1
     8    3    4 1
     9    3    9 1
    10    3    5 1
    11    5    6 1
    12    5   19 1
    13    5   20 1
    14    6    7 1
    15    6   21 1
    16    6   22 1
    17    7    8 1
    18    7   23 1
    19    7   24 1
    20    8    9 1
    21    8   10 1
    22    8   13 1
    23    9   25 1
    24    9   26 1
    25   10   11 1
    26   10   27 1
    27   10   28 1
    28   11   12 2
    29   11   33 1
    30   13   29 1
    31   13   30 1
    32   13   34 1
    33   31   34 1
    34   32   34 1
    35   34   35 1
@<TRIPOS>MOLECULE
ZINC13779560
   27    27     0     0     0
SMALL
USER_CHARGES
2-[4-(aminomethyl)tetrahydropyran-4-yl]acetic acid
@<TRIPOS>ATOM
      1 C1         -1.1840    3.4142    1.0010 C.3       1 <0>        -0.1614
      2 C2          0.1206    4.2144    0.9601 C.3       1 <0>         0.0602
      3 O1          0.8511    3.9941    2.1684 O.3       1 <0>        -0.3805
      4 C3          1.2246    2.6317    2.3842 C.3       1 <0>         0.0566
      5 C4         -0.0356    1.7680    2.4823 C.3       1 <0>        -0.1486
      6 C5         -0.8579    1.9309    1.2003 C.3       1 <0>        -0.0632
      7 C6         -0.0503    1.4193    0.0057 C.3       1 <0>        -0.1786
      8 C7          0.1867   -0.0612    0.1566 C.2       1 <0>         0.4497
      9 O2         -0.1547   -0.6278    1.1677 O.co2     1 <0>        -0.6277
     10 C8         -2.1567    1.1311    1.3203 C.3       1 <0>        -0.0061
     11 H1         -1.7217    3.5460    0.0621 H         1 <0>         0.0640
     12 H2         -1.8012    3.7658    1.8278 H         1 <0>         0.0820
     13 H3         -0.1070    5.2758    0.8613 H         1 <0>         0.0962
     14 H4          0.7195    3.8903    0.1090 H         1 <0>         0.0570
     15 H5          1.7923    2.5530    3.3113 H         1 <0>         0.1000
     16 H6          1.8379    2.2867    1.5518 H         1 <0>         0.0576
     17 H7         -0.6296    2.0863    3.3390 H         1 <0>         0.0693
     18 H8          0.2479    0.7224    2.6028 H         1 <0>         0.1200
     19 H9          0.9073    1.9384   -0.0344 H         1 <0>         0.0933
     20 H10        -0.6041    1.6068   -0.9142 H         1 <0>         0.0614
     21 H11        -1.9237    0.0935    1.5591 H         1 <0>         0.1710
     22 H12        -2.7736    1.5565    2.1119 H         1 <0>         0.1188
     23 H13        -2.3271    0.8192   -0.7076 H         1 <0>         0.4380
     24 H14        -3.7688    0.7035    0.1133 H         1 <0>         0.4326
     25 O3          0.7771   -0.7506   -0.8323 O.co2     1 <0>        -0.7409
     26 N1         -2.8897    1.2134    0.0445 N.4       1 <0>        -0.6447
     27 H15        -3.0892    2.1981   -0.1671 H         1 <0>         0.4242
@<TRIPOS>BOND
     1    1    6 1
     2    1    2 1
     3    1   11 1
     4    1   12 1
     5    2    3 1
     6    2   13 1
     7    2   14 1
     8    3    4 1
     9    4    5 1
    10    4   15 1
    11    4   16 1
    12    5    6 1
    13    5   17 1
    14    5   18 1
    15    6    7 1
    16    6   10 1
    17    7    8 1
    18    7   19 1
    19    7   20 1
    20    8    9 2
    21    8   25 1
    22   10   21 1
    23   10   22 1
    24   10   26 1
    25   23   26 1
    26   24   26 1
    27   26   27 1
@<TRIPOS>MOLECULE
ZINC00004949
   29    29     0     0     0
SMALL
USER_CHARGES

@<TRIPOS>ATOM
      1 C1          0.6128    1.8465    0.4180 C.3       1 <0>        -0.1212
      2 C2          2.1217    2.0368    0.2505 C.3       1 <0>        -0.1215
      3 C3          2.5530    1.5106   -1.1199 C.3       1 <0>        -0.1148
      4 C4          2.2117    0.0229   -1.2255 C.3       1 <0>        -0.0532
      5 C5          0.7029   -0.1674   -1.0580 C.3       1 <0>        -0.1230
      6 C6          0.2715    0.3588    0.3124 C.3       1 <0>        -0.1198
      7 C7          2.9479   -0.7484   -0.1283 C.3       1 <0>        -0.2013
      8 C8          4.4351   -0.6014   -0.3223 C.2       1 <0>         0.4819
      9 O1          4.8663    0.1222   -1.2038 O.co2     1 <0>        -0.6833
     10 O2          5.2072   -1.2060    0.4021 O.co2     1 <0>        -0.6777
     11 C9          2.6430   -0.5033   -2.5959 C.3       1 <0>        -0.0118
     12 N1          2.4374   -1.9569   -2.6492 N.4       1 <0>        -0.6359
     13 H1          0.3056    2.2214    1.3943 H         1 <0>         0.0621
     14 H2          0.0883    2.3960   -0.3637 H         1 <0>         0.0601
     15 H3          2.3648    3.0966    0.3257 H         1 <0>         0.0643
     16 H4          2.6462    1.4873    1.0322 H         1 <0>         0.0668
     17 H5          2.0285    2.0600   -1.9017 H         1 <0>         0.0535
     18 H6          3.6279    1.6461   -1.2393 H         1 <0>         0.1158
     19 H7          0.1783    0.3821   -1.8397 H         1 <0>         0.0699
     20 H8          0.4597   -1.2273   -1.1332 H         1 <0>         0.0484
     21 H9          0.7961   -0.1907    1.0941 H         1 <0>         0.0688
     22 H10        -0.8034    0.2233    0.4318 H         1 <0>         0.0628
     23 H11         2.6676   -0.3497    0.8467 H         1 <0>         0.0910
     24 H12         2.6771   -1.8029   -0.1811 H         1 <0>         0.0488
     25 H13         2.0481   -0.0235   -3.3731 H         1 <0>         0.1166
     26 H14         3.6978   -0.2795   -2.7556 H         1 <0>         0.1694
     27 H15         1.4593   -2.1635   -2.5123 H         1 <0>         0.4196
     28 H16         2.7320   -2.3055   -3.5491 H         1 <0>         0.4287
     29 H17         2.9797   -2.4001   -1.9229 H         1 <0>         0.4352
@<TRIPOS>BOND
     1    1    6 1
     2    1    2 1
     3    1   13 1
     4    1   14 1
     5    2    3 1
     6    2   15 1
     7    2   16 1
     8    3    4 1
     9    3   17 1
    10    3   18 1
    11    4    5 1
    12    4    7 1
    13    4   11 1
    14    5    6 1
    15    5   19 1
    16    5   20 1
    17    6   21 1
    18    6   22 1
    19    7    8 1
    20    7   23 1
    21    7   24 1
    22    8    9 2
    23    8   10 1
    24   11   12 1
    25   11   25 1
    26   11   26 1
    27   12   27 1
    28   12   28 1
    29   12   29 1
@<TRIPOS>MOLECULE
ZINC26392913
   27    28     0     0     0
SMALL
USER_CHARGES
(1R)-2-azaspiro[3.5]nonane-1-carboxylic acid
@<TRIPOS>ATOM
      1 C1         -0.8259    3.1217   -1.1914 C.3       1 <0>        -0.1271
      2 C2         -0.7553    1.5941   -1.2314 C.3       1 <0>        -0.1177
      3 C3         -0.0127    1.0858    0.0080 C.3       1 <0>        -0.1112
      4 C4         -0.7290    1.5790    1.2625 C.3       1 <0>        -0.0659
      5 C5         -0.8817    3.0972    1.3067 C.3       1 <0>        -0.1083
      6 C6         -1.6088    3.5694    0.0442 C.3       1 <0>        -0.1183
      7 C7         -2.0299    0.8223    1.5647 C.3       1 <0>        -0.0233
      8 N1         -1.1913   -0.0869    2.3783 N.4       1 <0>        -0.5144
      9 C8         -0.1781    0.9769    2.5624 C.3       1 <0>        -0.0140
     10 H1         -0.0937    1.5383    3.5046 H         1 <0>         0.1766
     11 C9          1.2431    0.4882    2.4513 C.2       1 <0>         0.4548
     12 O1          1.4668   -0.6888    2.2952 O.co2     1 <0>        -0.6190
     13 O2          2.2605    1.3606    2.5257 O.co2     1 <0>        -0.7074
     14 H2         -1.3308    3.4873   -2.0977 H         1 <0>         0.0663
     15 H3          0.1935    3.5329   -1.1485 H         1 <0>         0.0695
     16 H4         -1.7744    1.1802   -1.2442 H         1 <0>         0.0599
     17 H5         -0.2187    1.2754   -2.1372 H         1 <0>         0.0725
     18 H6          0.0025   -0.0141    0.0009 H         1 <0>         0.0677
     19 H7          1.0192    1.4668   -0.0008 H         1 <0>         0.0941
     20 H8         -1.4643    3.3814    2.1954 H         1 <0>         0.0725
     21 H9          0.1129    3.5645    1.3555 H         1 <0>         0.0883
     22 H10        -1.6842    4.6668    0.0528 H         1 <0>         0.0712
     23 H11        -2.6181    3.1328    0.0169 H         1 <0>         0.0609
     24 H12        -2.7397    1.4982    2.0641 H         1 <0>         0.1489
     25 H13        -2.4696    0.4588    0.6242 H         1 <0>         0.1373
     26 H14        -1.7575   -0.4148    3.2626 H         1 <0>         0.4284
     27 H15        -0.9109   -0.9639    1.7765 H         1 <0>         0.4578
@<TRIPOS>BOND
     1    1    6 1
     2    1    2 1
     3    1   14 1
     4    1   15 1
     5    2    3 1
     6    2   16 1
     7    2   17 1
     8    3    4 1
     9    3   18 1
    10    3   19 1
    11    4    9 1
    12    4    5 1
    13    4    7 1
    14    5    6 1
    15    5   20 1
    16    5   21 1
    17    6   22 1
    18    6   23 1
    19    7    8 1
    20    7   24 1
    21    7   25 1
    22    8    9 1
    23    8   26 1
    24    8   27 1
    25    9   10 1
    26    9   11 1
    27   11   12 2
    28   11   13 1
