@<TRIPOS>MOLECULE
ZINC13471981
   42    42     0     0     0
SMALL
USER_CHARGES

@<TRIPOS>ATOM
      1 C1         -0.1460    1.0997   -0.0644 C.3       1 <0>        -0.1539
      2 C2         -0.2307   -0.4247   -0.1640 C.3       1 <0>        -0.1250
      3 C3          0.2414   -0.8722   -1.5488 C.3       1 <0>        -0.1056
      4 C4          0.1568   -2.3966   -1.6485 C.3       1 <0>        -0.1038
      5 C5         -1.3069   -2.8331   -1.5592 C.3       1 <0>        -0.1122
      6 C6         -2.0823   -2.2638   -2.7491 C.3       1 <0>        -0.1309
      7 C7         -3.5082   -2.8186   -2.7411 C.3       1 <0>        -0.1524
      8 C8          0.7359   -2.8469   -2.9649 C.2       1 <0>         0.5244
      9 O1          0.7678   -2.0829   -3.9064 O.2       1 <0>        -0.5049
     10 N1          1.2183   -4.0985   -3.0960 N.am      1 <0>        -0.6776
     11 C9          1.6561   -4.5525   -4.3457 C.ar      1 <0>         0.2186
     12 C10         2.3541   -3.6998   -5.1904 C.ar      1 <0>        -0.1292
     13 C11         2.7852   -4.1507   -6.4226 C.ar      1 <0>         0.0068
     14 C12         2.5222   -5.4501   -6.8163 C.ar      1 <0>        -0.6833
     15 C13         1.8274   -6.3025   -5.9782 C.ar      1 <0>         0.0107
     16 C14         1.3981   -5.8593   -4.7413 C.ar      1 <0>        -0.0877
     17 Cl1         0.5320   -6.9320   -3.6862 Cl        1 <0>        -0.0479
     18 S1          3.0732   -6.0204   -8.3897 S.o2      1 <0>         2.7053
     19 O2          2.2280   -7.1054   -8.7472 O.2       1 <0>        -0.9586
     20 O3          3.2230   -4.8693   -9.2093 O.2       1 <0>        -0.9574
     21 N2          4.5896   -6.6515   -8.1783 N.pl3     1 <0>        -1.2490
     22 H1          0.8856    1.4171   -0.2166 H         1 <0>         0.0544
     23 H2         -0.7810    1.5496   -0.8276 H         1 <0>         0.0554
     24 H3         -0.4824    1.4186    0.9222 H         1 <0>         0.0557
     25 H4          0.4043   -0.8745    0.5993 H         1 <0>         0.0622
     26 H5         -1.2623   -0.7420   -0.0117 H         1 <0>         0.0666
     27 H6         -0.3935   -0.4224   -2.3121 H         1 <0>         0.0800
     28 H7          1.2730   -0.5549   -1.7011 H         1 <0>         0.0670
     29 H8          0.7204   -2.8460   -0.8309 H         1 <0>         0.0966
     30 H9         -1.3632   -3.9215   -1.5761 H         1 <0>         0.0678
     31 H10        -1.7411   -2.4611   -0.6312 H         1 <0>         0.0843
     32 H11        -2.1149   -1.1768   -2.6749 H         1 <0>         0.0695
     33 H12        -1.5863   -2.5500   -3.6765 H         1 <0>         0.0629
     34 H13        -4.0606   -2.4130   -3.5887 H         1 <0>         0.0557
     35 H14        -3.4755   -3.9055   -2.8152 H         1 <0>         0.0527
     36 H15        -4.0042   -2.5323   -1.8137 H         1 <0>         0.0551
     37 H16         1.2621   -4.6847   -2.3244 H         1 <0>         0.4175
     38 H17         2.5595   -2.6846   -4.8842 H         1 <0>         0.1566
     39 H18         3.3282   -3.4876   -7.0797 H         1 <0>         0.1551
     40 H19         1.6233   -7.3165   -6.2887 H         1 <0>         0.1585
     41 H20         4.9968   -6.6507   -7.2979 H         1 <0>         0.4172
     42 H21         5.0706   -7.0218   -8.9348 H         1 <0>         0.4228
@<TRIPOS>BOND
     1    1    2 1
     2    1   22 1
     3    1   23 1
     4    1   24 1
     5    2    3 1
     6    2   25 1
     7    2   26 1
     8    3    4 1
     9    3   27 1
    10    3   28 1
    11    4    5 1
    12    4    8 1
    13    4   29 1
    14    5    6 1
    15    5   30 1
    16    5   31 1
    17    6    7 1
    18    6   32 1
    19    6   33 1
    20    7   34 1
    21    7   35 1
    22    7   36 1
    23    8    9 2
    24    8   10 am
    25   10   11 1
    26   10   37 1
    27   11   16 ar
    28   11   12 ar
    29   12   13 ar
    30   12   38 1
    31   13   14 ar
    32   13   39 1
    33   14   15 ar
    34   14   18 1
    35   15   16 ar
    36   15   40 1
    37   16   17 1
    38   18   19 2
    39   18   20 2
    40   18   21 1
    41   21   41 1
    42   21   42 1
@<TRIPOS>MOLECULE
ZINC05579280
   29    30     0     0     0
SMALL
USER_CHARGES

@<TRIPOS>ATOM
      1 C1         -0.0184    1.5028    0.0103 C.3       1 <0>        -0.1184
      2 C2          0.0021   -0.0041    0.0020 C.ar      1 <0>        -0.0447
      3 C3          0.0057   -0.6887   -1.1989 C.ar      1 <0>        -0.1460
      4 C4          0.0245   -2.0709   -1.2065 C.ar      1 <0>        -0.0162
      5 C5          0.0400   -2.7685   -0.0132 C.ar      1 <0>        -0.6355
      6 C6          0.0373   -2.0839    1.1877 C.ar      1 <0>        -0.0163
      7 C7          0.0229   -0.7016    1.1953 C.ar      1 <0>        -0.1461
      8 S1          0.0628   -4.5303   -0.0229 S.o2      1 <0>         2.6405
      9 O1         -0.4759   -4.9503    1.2232 O.2       1 <0>        -0.9938
     10 O2         -0.4897   -4.9367   -1.2674 O.2       1 <0>        -0.9931
     11 N1          1.6509   -4.9994   -0.0343 N.2       1 <0>        -0.9957
     12 C8          1.9756   -6.3478   -0.0434 C.2       1 <0>         0.4329
     13 N2          1.1884   -7.4154   -0.0507 N.2       1 <0>        -0.4186
     14 N3          1.6565   -8.5865   -0.0586 N.2       1 <0>        -0.1071
     15 C9          2.9523   -8.8248   -0.0601 C.2       1 <0>        -0.6361
     16 S2          3.5779   -7.1471   -0.0566 S.3       1 <0>         0.0073
     17 S3          3.8217  -10.3573   -0.0703 S.o2      1 <0>         2.7670
     18 O3          3.8960  -10.7730   -1.4272 O.2       1 <0>        -0.9611
     19 O4          4.9782  -10.1736    0.7346 O.2       1 <0>        -0.9626
     20 N4          2.8712  -11.4646    0.7125 N.pl3     1 <0>        -1.2447
     21 H1          1.0042    1.8801    0.0026 H         1 <0>         0.0751
     22 H2         -0.5455    1.8639   -0.8728 H         1 <0>         0.0689
     23 H3         -0.5286    1.8543    0.9071 H         1 <0>         0.0689
     24 H4         -0.0064   -0.1436   -2.1312 H         1 <0>         0.1289
     25 H5          0.0266   -2.6057   -2.1448 H         1 <0>         0.1389
     26 H6          0.0491   -2.6289    2.1200 H         1 <0>         0.1388
     27 H7          0.0245   -0.1667    2.1335 H         1 <0>         0.1288
     28 H8          2.0098  -11.1979    1.0698 H         1 <0>         0.4226
     29 H9          3.1760  -12.3799    0.8138 H         1 <0>         0.4176
@<TRIPOS>BOND
     1    1    2 1
     2    1   21 1
     3    1   22 1
     4    1   23 1
     5    2    7 ar
     6    2    3 ar
     7    3    4 ar
     8    3   24 1
     9    4    5 ar
    10    4   25 1
    11    5    6 ar
    12    5    8 1
    13    6    7 ar
    14    6   26 1
    15    7   27 1
    16    8    9 2
    17    8   10 2
    18    8   11 1
    19   11   12 1
    20   12   16 1
    21   12   13 2
    22   13   14 1
    23   14   15 2
    24   15   16 1
    25   15   17 1
    26   17   18 2
    27   17   19 2
    28   17   20 1
    29   20   28 1
    30   20   29 1
@<TRIPOS>MOLECULE
ZINC05579280
   28    29     0     0     0
SMALL
USER_CHARGES

@<TRIPOS>ATOM
      1 C1         -0.0184    1.5028    0.0103 C.3       1 <0>        -0.1141
      2 C2          0.0021   -0.0041    0.0020 C.ar      1 <0>        -0.0546
      3 C3          0.0057   -0.6887   -1.1989 C.ar      1 <0>        -0.1481
      4 C4          0.0245   -2.0709   -1.2065 C.ar      1 <0>        -0.0176
      5 C5          0.0400   -2.7685   -0.0132 C.ar      1 <0>        -0.6261
      6 C6          0.0373   -2.0839    1.1877 C.ar      1 <0>        -0.0174
      7 C7          0.0229   -0.7016    1.1953 C.ar      1 <0>        -0.1478
      8 S1          0.0628   -4.5303   -0.0229 S.o2      1 <0>         2.6321
      9 O1         -0.4759   -4.9503    1.2232 O.2       1 <0>        -1.0028
     10 O2         -0.4897   -4.9367   -1.2674 O.2       1 <0>        -1.0037
     11 N1          1.6509   -4.9994   -0.0343 N.2       1 <0>        -1.0173
     12 C8          1.9756   -6.3478   -0.0434 C.2       1 <0>         0.4169
     13 N2          1.1884   -7.4154   -0.0507 N.2       1 <0>        -0.4378
     14 N3          1.6565   -8.5865   -0.0586 N.2       1 <0>        -0.1265
     15 C9          2.9523   -8.8248   -0.0601 C.2       1 <0>        -0.4870
     16 S2          3.5779   -7.1471   -0.0566 S.3       1 <0>        -0.0726
     17 S3          3.8217  -10.3573   -0.0703 S.o2      1 <0>         2.6349
     18 O3          3.8960  -10.7730   -1.4272 O.2       1 <0>        -1.0625
     19 O4          4.9782  -10.1736    0.7346 O.2       1 <0>        -1.0635
     20 N4          2.8712  -11.4646    0.7125 N.2       1 <0>        -1.3323
     21 H1          1.0042    1.8801    0.0026 H         1 <0>         0.0719
     22 H2         -0.5455    1.8639   -0.8728 H         1 <0>         0.0660
     23 H3         -0.5286    1.8543    0.9071 H         1 <0>         0.0660
     24 H4         -0.0064   -0.1436   -2.1312 H         1 <0>         0.1253
     25 H5          0.0266   -2.6057   -2.1448 H         1 <0>         0.1382
     26 H6          0.0491   -2.6289    2.1200 H         1 <0>         0.1386
     27 H7          0.0245   -0.1667    2.1335 H         1 <0>         0.1255
     28 H8          3.1760  -12.3799    0.8138 H         1 <0>         0.3162
@<TRIPOS>BOND
     1    1    2 1
     2    1   21 1
     3    1   22 1
     4    1   23 1
     5    2    7 ar
     6    2    3 ar
     7    3    4 ar
     8    3   24 1
     9    4    5 ar
    10    4   25 1
    11    5    6 ar
    12    5    8 1
    13    6    7 ar
    14    6   26 1
    15    7   27 1
    16    8    9 2
    17    8   10 2
    18    8   11 1
    19   11   12 1
    20   12   16 1
    21   12   13 2
    22   13   14 1
    23   14   15 2
    24   15   16 1
    25   15   17 1
    26   17   18 2
    27   17   19 2
    28   17   20 1
    29   20   28 1
@<TRIPOS>MOLECULE
ZINC13471980
   42    42     0     0     0
SMALL
USER_CHARGES

@<TRIPOS>ATOM
      1 C1         -0.1487    1.0987   -0.0460 C.3       1 <0>        -0.1539
      2 C2         -0.2358   -0.4251   -0.1528 C.3       1 <0>        -0.1250
      3 C3          0.2356   -0.8669   -1.5397 C.3       1 <0>        -0.1057
      4 C4          0.1484   -2.3907   -1.6465 C.3       1 <0>        -0.1035
      5 C5         -1.3160   -2.8252   -1.5593 C.3       1 <0>        -0.1125
      6 C6         -2.0910   -2.2466   -2.7448 C.3       1 <0>        -0.1312
      7 C7         -3.5180   -2.7986   -2.7395 C.3       1 <0>        -0.1527
      8 C8          0.7268   -2.8358   -2.9650 C.2       1 <0>         0.5240
      9 O1          0.7577   -2.0683   -3.9036 O.2       1 <0>        -0.5055
     10 N1          1.2098   -4.0866   -3.1011 N.am      1 <0>        -0.6775
     11 C9          1.6473   -4.5359   -4.3533 C.ar      1 <0>         0.1768
     12 C10         2.3424   -3.6793   -5.1958 C.ar      1 <0>        -0.1148
     13 C11         2.7732   -4.1253   -6.4303 C.ar      1 <0>        -0.0063
     14 C12         2.5127   -5.4237   -6.8284 C.ar      1 <0>        -0.6679
     15 C13         1.8203   -6.2807   -5.9931 C.ar      1 <0>        -0.0328
     16 C14         1.3914   -5.8428   -4.7532 C.ar      1 <0>         0.0546
     17 F1          0.7198   -6.6818   -3.9344 F         1 <0>        -0.1284
     18 S1          3.0640   -5.9871   -8.4043 S.o2      1 <0>         2.7060
     19 O2          2.2210   -7.0726   -8.7652 O.2       1 <0>        -0.9585
     20 O3          3.2108   -4.8327   -9.2198 O.2       1 <0>        -0.9565
     21 N2          4.5819   -6.6155   -8.1960 N.pl3     1 <0>        -1.2488
     22 H1          0.8834    1.4151   -0.1968 H         1 <0>         0.0544
     23 H2         -0.7829    1.5531   -0.8072 H         1 <0>         0.0554
     24 H3         -0.4845    1.4135    0.9420 H         1 <0>         0.0558
     25 H4          0.3984   -0.8795    0.6084 H         1 <0>         0.0622
     26 H5         -1.2680   -0.7414   -0.0020 H         1 <0>         0.0666
     27 H6         -0.3986   -0.4125   -2.3008 H         1 <0>         0.0800
     28 H7          1.2677   -0.5506   -1.6905 H         1 <0>         0.0671
     29 H8          0.7113   -2.8449   -0.8310 H         1 <0>         0.0968
     30 H9         -1.3742   -3.9133   -1.5834 H         1 <0>         0.0676
     31 H10        -1.7489   -2.4587   -0.6285 H         1 <0>         0.0846
     32 H11        -2.1215   -1.1601   -2.6636 H         1 <0>         0.0699
     33 H12        -1.5962   -2.5277   -3.6744 H         1 <0>         0.0626
     34 H13        -3.4875   -3.8852   -2.8208 H         1 <0>         0.0526
     35 H14        -4.0128   -2.5175   -1.8099 H         1 <0>         0.0555
     36 H15        -4.0701   -2.3864   -3.5841 H         1 <0>         0.0559
     37 H16         1.2544   -4.6757   -2.3318 H         1 <0>         0.4183
     38 H17         2.5460   -2.6647   -4.8866 H         1 <0>         0.1573
     39 H18         3.3140   -3.4586   -7.0857 H         1 <0>         0.1559
     40 H19         1.6182   -7.2941   -6.3071 H         1 <0>         0.1611
     41 H20         4.9897   -6.6170   -7.3159 H         1 <0>         0.4173
     42 H21         5.0633   -6.9821   -8.9542 H         1 <0>         0.4229
@<TRIPOS>BOND
     1    1    2 1
     2    1   22 1
     3    1   23 1
     4    1   24 1
     5    2    3 1
     6    2   25 1
     7    2   26 1
     8    3    4 1
     9    3   27 1
    10    3   28 1
    11    4    5 1
    12    4    8 1
    13    4   29 1
    14    5    6 1
    15    5   30 1
    16    5   31 1
    17    6    7 1
    18    6   32 1
    19    6   33 1
    20    7   34 1
    21    7   35 1
    22    7   36 1
    23    8    9 2
    24    8   10 am
    25   10   11 1
    26   10   37 1
    27   11   16 ar
    28   11   12 ar
    29   12   13 ar
    30   12   38 1
    31   13   14 ar
    32   13   39 1
    33   14   15 ar
    34   14   18 1
    35   15   16 ar
    36   15   40 1
    37   16   17 1
    38   18   19 2
    39   18   20 2
    40   18   21 1
    41   21   41 1
    42   21   42 1
@<TRIPOS>MOLECULE
ZINC13471994
   29    30     0     0     0
SMALL
USER_CHARGES

@<TRIPOS>ATOM
      1 C1         -0.0167    1.3781    0.0096 C.ar      1 <0>        -0.1192
      2 C2          1.1709    2.0855    0.0021 C.ar      1 <0>        -0.1195
      3 C3          2.3773    1.4107   -0.0130 C.ar      1 <0>        -0.1063
      4 C4          2.3960    0.0285   -0.0201 C.ar      1 <0>        -0.0820
      5 C5          1.2084   -0.6789   -0.0117 C.ar      1 <0>        -0.1062
      6 C6          0.0021   -0.0041    0.0020 C.ar      1 <0>        -0.1194
      7 C7          3.7112   -0.7071   -0.0376 C.3       1 <0>        -0.5614
      8 S1          4.2568   -1.0108    1.6656 S.o2      1 <0>         2.5601
      9 O1          4.5927    0.2165    2.2981 O.2       1 <0>        -0.9850
     10 O2          3.3873   -1.9386    2.3000 O.2       1 <0>        -0.9843
     11 N1          5.6959   -1.8160    1.5142 N.2       1 <0>        -1.0067
     12 C8          6.3949   -2.2059    2.6470 C.2       1 <0>         0.4389
     13 N2          6.0987   -2.0459    3.9300 N.2       1 <0>        -0.4132
     14 N3          6.8571   -2.4681    4.8450 N.2       1 <0>        -0.1079
     15 C9          7.9880   -3.0929    4.5873 C.2       1 <0>        -0.6372
     16 S2          7.9522   -3.0769    2.7971 S.3       1 <0>         0.0004
     17 S3          9.1894   -3.7607    5.6897 S.o2      1 <0>         2.7672
     18 O3          8.7314   -5.0557    6.0536 O.2       1 <0>        -0.9616
     19 O4         10.4582   -3.5425    5.0883 O.2       1 <0>        -0.9630
     20 N4          9.1542   -2.8419    7.0671 N.pl3     1 <0>        -1.2448
     21 H1         -0.9591    1.9053    0.0259 H         1 <0>         0.1238
     22 H2          1.1563    3.1654    0.0076 H         1 <0>         0.1263
     23 H3          3.3051    1.9634   -0.0196 H         1 <0>         0.1298
     24 H4          1.2231   -1.7588   -0.0176 H         1 <0>         0.1299
     25 H5         -0.9258   -0.5567    0.0082 H         1 <0>         0.1264
     26 H6          3.5884   -1.6586   -0.5549 H         1 <0>         0.1374
     27 H7          4.4573   -0.1052   -0.5563 H         1 <0>         0.1374
     28 H8          8.5388   -2.0954    7.1365 H         1 <0>         0.4225
     29 H9          9.7490   -3.0503    7.8044 H         1 <0>         0.4174
@<TRIPOS>BOND
     1    1    6 ar
     2    1    2 ar
     3    1   21 1
     4    2    3 ar
     5    2   22 1
     6    3    4 ar
     7    3   23 1
     8    4    5 ar
     9    4    7 1
    10    5    6 ar
    11    5   24 1
    12    6   25 1
    13    7    8 1
    14    7   26 1
    15    7   27 1
    16    8    9 2
    17    8   10 2
    18    8   11 1
    19   11   12 1
    20   12   16 1
    21   12   13 2
    22   13   14 1
    23   14   15 2
    24   15   16 1
    25   15   17 1
    26   17   18 2
    27   17   19 2
    28   17   20 1
    29   20   28 1
    30   20   29 1
@<TRIPOS>MOLECULE
ZINC13471994
   28    29     0     0     0
SMALL
USER_CHARGES

@<TRIPOS>ATOM
      1 C1         -0.0167    1.3781    0.0096 C.ar      1 <0>        -0.1254
      2 C2          1.1709    2.0855    0.0021 C.ar      1 <0>        -0.1204
      3 C3          2.3773    1.4107   -0.0130 C.ar      1 <0>        -0.1079
      4 C4          2.3960    0.0285   -0.0201 C.ar      1 <0>        -0.0728
      5 C5          1.2084   -0.6789   -0.0117 C.ar      1 <0>        -0.1080
      6 C6          0.0021   -0.0041    0.0020 C.ar      1 <0>        -0.1206
      7 C7          3.7112   -0.7071   -0.0376 C.3       1 <0>        -0.5684
      8 S1          4.2568   -1.0108    1.6656 S.o2      1 <0>         2.5561
      9 O1          4.5927    0.2165    2.2981 O.2       1 <0>        -0.9929
     10 O2          3.3873   -1.9386    2.3000 O.2       1 <0>        -0.9938
     11 N1          5.6959   -1.8160    1.5142 N.2       1 <0>        -1.0283
     12 C8          6.3949   -2.2059    2.6470 C.2       1 <0>         0.4229
     13 N2          6.0987   -2.0459    3.9300 N.2       1 <0>        -0.4328
     14 N3          6.8571   -2.4681    4.8450 N.2       1 <0>        -0.1270
     15 C9          7.9880   -3.0929    4.5873 C.2       1 <0>        -0.4882
     16 S2          7.9522   -3.0769    2.7971 S.3       1 <0>        -0.0799
     17 S3          9.1894   -3.7607    5.6897 S.o2      1 <0>         2.6354
     18 O3          8.7314   -5.0557    6.0536 O.2       1 <0>        -1.0630
     19 O4         10.4582   -3.5425    5.0883 O.2       1 <0>        -1.0639
     20 N4          9.1542   -2.8419    7.0671 N.2       1 <0>        -1.3327
     21 H1         -0.9591    1.9053    0.0259 H         1 <0>         0.1208
     22 H2          1.1563    3.1654    0.0076 H         1 <0>         0.1240
     23 H3          3.3051    1.9634   -0.0196 H         1 <0>         0.1298
     24 H4          1.2231   -1.7588   -0.0176 H         1 <0>         0.1296
     25 H5         -0.9258   -0.5567    0.0082 H         1 <0>         0.1239
     26 H6          3.5884   -1.6586   -0.5549 H         1 <0>         0.1337
     27 H7          4.4573   -0.1052   -0.5563 H         1 <0>         0.1340
     28 H8          9.7490   -3.0503    7.8044 H         1 <0>         0.3160
@<TRIPOS>BOND
     1    1    6 ar
     2    1    2 ar
     3    1   21 1
     4    2    3 ar
     5    2   22 1
     6    3    4 ar
     7    3   23 1
     8    4    5 ar
     9    4    7 1
    10    5    6 ar
    11    5   24 1
    12    6   25 1
    13    7    8 1
    14    7   26 1
    15    7   27 1
    16    8    9 2
    17    8   10 2
    18    8   11 1
    19   11   12 1
    20   12   16 1
    21   12   13 2
    22   13   14 1
    23   14   15 2
    24   15   16 1
    25   15   17 1
    26   17   18 2
    27   17   19 2
    28   17   20 1
    29   20   28 1
@<TRIPOS>MOLECULE
ZINC06003006
   33    34     0     0     0
SMALL
USER_CHARGES

@<TRIPOS>ATOM
      1 C1         -0.0184    1.5028    0.0103 C.3       1 <0>        -0.1176
      2 C2          0.0021   -0.0041    0.0020 C.ar      1 <0>        -0.0480
      3 C3          0.0057   -0.6887   -1.1989 C.ar      1 <0>        -0.1471
      4 C4          0.0245   -2.0709   -1.2065 C.ar      1 <0>        -0.0172
      5 C5          0.0400   -2.7685   -0.0132 C.ar      1 <0>        -0.6394
      6 C6          0.0373   -2.0839    1.1877 C.ar      1 <0>        -0.0173
      7 C7          0.0229   -0.7016    1.1953 C.ar      1 <0>        -0.1471
      8 S1          0.0628   -4.5303   -0.0229 S.o2      1 <0>         2.6873
      9 O1         -0.4759   -4.9503    1.2232 O.2       1 <0>        -0.9962
     10 O2         -0.4897   -4.9367   -1.2674 O.2       1 <0>        -0.9959
     11 N1          1.6509   -4.9994   -0.0343 N.2       1 <0>        -1.0902
     12 C8          1.9554   -6.2640   -0.0428 C.2       1 <0>         0.6699
     13 O3          0.9761   -7.1947   -0.0424 O.3       1 <0>        -0.6672
     14 N2          3.2749   -6.6538   -0.0522 N.pl3     1 <0>        -0.5655
     15 C9          3.6003   -8.0050   -0.0614 C.2       1 <0>         0.3833
     16 N3          2.8133   -9.0722   -0.0687 N.2       1 <0>        -0.2912
     17 N4          3.2809  -10.2435   -0.0766 N.2       1 <0>        -0.1178
     18 C10         4.5772  -10.4819   -0.0781 C.2       1 <0>        -0.5857
     19 S2          5.2027   -8.8042   -0.0746 S.3       1 <0>         0.0638
     20 S3          5.4465  -12.0145   -0.0884 S.o2      1 <0>         2.7605
     21 O4          5.5209  -12.4301   -1.4452 O.2       1 <0>        -0.9469
     22 O5          6.6031  -11.8307    0.7165 O.2       1 <0>        -0.9516
     23 N5          4.4961  -13.1218    0.6944 N.pl3     1 <0>        -1.2403
     24 H1          1.0042    1.8801    0.0026 H         1 <0>         0.0739
     25 H2         -0.5455    1.8639   -0.8728 H         1 <0>         0.0681
     26 H3         -0.5286    1.8543    0.9071 H         1 <0>         0.0680
     27 H4         -0.0064   -0.1436   -2.1312 H         1 <0>         0.1271
     28 H5          0.0266   -2.6057   -2.1448 H         1 <0>         0.1381
     29 H6          0.0491   -2.6289    2.1200 H         1 <0>         0.1380
     30 H7          0.0245   -0.1667    2.1335 H         1 <0>         0.1271
     31 H8          3.9780   -5.9856   -0.0525 H         1 <0>         0.4301
     32 H9          3.6347  -12.8551    1.0518 H         1 <0>         0.4249
     33 H10         4.8009  -14.0371    0.7957 H         1 <0>         0.4222
@<TRIPOS>BOND
     1    1    2 1
     2    1   24 1
     3    1   25 1
     4    1   26 1
     5    2    7 ar
     6    2    3 ar
     7    3    4 ar
     8    3   27 1
     9    4    5 ar
    10    4   28 1
    11    5    6 ar
    12    5    8 1
    13    6    7 ar
    14    6   29 1
    15    7   30 1
    16    8    9 2
    17    8   10 2
    18    8   11 1
    19   11   12 2
    20   12   13 1
    21   12   14 1
    22   14   15 1
    23   14   31 1
    24   15   19 1
    25   15   16 2
    26   16   17 1
    27   17   18 2
    28   18   19 1
    29   18   20 1
    30   20   21 2
    31   20   22 2
    32   20   23 1
    33   23   32 1
    34   23   33 1
@<TRIPOS>MOLECULE
ZINC06003006
   32    33     0     0     0
SMALL
USER_CHARGES

@<TRIPOS>ATOM
      1 C1         -0.0184    1.5028    0.0103 C.3       1 <0>        -0.1148
      2 C2          0.0021   -0.0041    0.0020 C.ar      1 <0>        -0.0541
      3 C3          0.0057   -0.6887   -1.1989 C.ar      1 <0>        -0.1483
      4 C4          0.0245   -2.0709   -1.2065 C.ar      1 <0>        -0.0177
      5 C5          0.0400   -2.7685   -0.0132 C.ar      1 <0>        -0.6337
      6 C6          0.0373   -2.0839    1.1877 C.ar      1 <0>        -0.0176
      7 C7          0.0229   -0.7016    1.1953 C.ar      1 <0>        -0.1481
      8 S1          0.0628   -4.5303   -0.0229 S.o2      1 <0>         2.6813
      9 O1         -0.4759   -4.9503    1.2232 O.2       1 <0>        -1.0002
     10 O2         -0.4897   -4.9367   -1.2674 O.2       1 <0>        -1.0007
     11 N1          1.6509   -4.9994   -0.0343 N.2       1 <0>        -1.0977
     12 C8          1.9554   -6.2640   -0.0428 C.2       1 <0>         0.6766
     13 O3          0.9761   -7.1947   -0.0424 O.3       1 <0>        -0.6718
     14 N2          3.2749   -6.6538   -0.0522 N.pl3     1 <0>        -0.5817
     15 C9          3.6003   -8.0050   -0.0614 C.2       1 <0>         0.3488
     16 N3          2.8133   -9.0722   -0.0687 N.2       1 <0>        -0.2978
     17 N4          3.2809  -10.2435   -0.0766 N.2       1 <0>        -0.1401
     18 C10         4.5772  -10.4819   -0.0781 C.2       1 <0>        -0.4286
     19 S2          5.2027   -8.8042   -0.0746 S.3       1 <0>        -0.0277
     20 S3          5.4465  -12.0145   -0.0884 S.o2      1 <0>         2.6180
     21 O4          5.5209  -12.4301   -1.4452 O.2       1 <0>        -1.0481
     22 O5          6.6031  -11.8307    0.7165 O.2       1 <0>        -1.0524
     23 N5          4.4961  -13.1218    0.6944 N.2       1 <0>        -1.3195
     24 H1          1.0042    1.8801    0.0026 H         1 <0>         0.0719
     25 H2         -0.5455    1.8639   -0.8728 H         1 <0>         0.0661
     26 H3         -0.5286    1.8543    0.9071 H         1 <0>         0.0661
     27 H4         -0.0064   -0.1436   -2.1312 H         1 <0>         0.1250
     28 H5          0.0266   -2.6057   -2.1448 H         1 <0>         0.1381
     29 H6          0.0491   -2.6289    2.1200 H         1 <0>         0.1383
     30 H7          0.0245   -0.1667    2.1335 H         1 <0>         0.1251
     31 H8          3.9780   -5.9856   -0.0525 H         1 <0>         0.4228
     32 H9          4.8009  -14.0371    0.7957 H         1 <0>         0.3228
@<TRIPOS>BOND
     1    1    2 1
     2    1   24 1
     3    1   25 1
     4    1   26 1
     5    2    7 ar
     6    2    3 ar
     7    3    4 ar
     8    3   27 1
     9    4    5 ar
    10    4   28 1
    11    5    6 ar
    12    5    8 1
    13    6    7 ar
    14    6   29 1
    15    7   30 1
    16    8    9 2
    17    8   10 2
    18    8   11 1
    19   11   12 2
    20   12   13 1
    21   12   14 1
    22   14   15 1
    23   14   31 1
    24   15   19 1
    25   15   16 2
    26   16   17 1
    27   17   18 2
    28   18   19 1
    29   18   20 1
    30   20   21 2
    31   20   22 2
    32   20   23 1
    33   23   32 1
@<TRIPOS>MOLECULE
ZINC13471975
   42    42     0     0     0
SMALL
USER_CHARGES

@<TRIPOS>ATOM
      1 C1         -0.1356    1.0185   -0.0606 C.3       1 <0>        -0.1537
      2 C2         -0.1435   -0.5087   -0.1522 C.3       1 <0>        -0.1255
      3 C3          0.0052   -0.9328   -1.6147 C.3       1 <0>        -0.1038
      4 C4         -0.0026   -2.4600   -1.7062 C.3       1 <0>        -0.1062
      5 C5         -1.3694   -2.9902   -1.2681 C.3       1 <0>        -0.1134
      6 C6         -2.4364   -2.5359   -2.2661 C.3       1 <0>        -0.1300
      7 C7         -3.7759   -3.1844   -1.9110 C.3       1 <0>        -0.1527
      8 C8          0.2665   -2.8794   -3.1284 C.2       1 <0>         0.5229
      9 O1          0.2411   -2.0560   -4.0186 O.2       1 <0>        -0.5156
     10 N1          0.5354   -4.1695   -3.4112 N.am      1 <0>        -0.6768
     11 C9          0.6274   -4.5894   -4.7428 C.ar      1 <0>         0.1262
     12 C10         1.1876   -3.7525   -5.6993 C.ar      1 <0>        -0.0615
     13 C11         1.2769   -4.1698   -7.0126 C.ar      1 <0>        -0.1204
     14 C12         0.8088   -5.4194   -7.3760 C.ar      1 <0>        -0.0321
     15 C13         0.2501   -6.2547   -6.4263 C.ar      1 <0>        -0.6571
     16 C14         0.1639   -5.8458   -5.1097 C.ar      1 <0>        -0.0463
     17 S1         -0.3453   -7.8455   -6.8945 S.o2      1 <0>         2.7025
     18 O2         -1.3171   -8.2165   -5.9265 O.2       1 <0>        -0.9620
     19 O3         -0.6408   -7.7762   -8.2828 O.2       1 <0>        -0.9600
     20 N2          0.9148   -8.9075   -6.7313 N.pl3     1 <0>        -1.2496
     21 H1          0.8052    1.4013   -0.4560 H         1 <0>         0.0543
     22 H2         -0.9649    1.4216   -0.6419 H         1 <0>         0.0549
     23 H3         -0.2416    1.3206    0.9813 H         1 <0>         0.0553
     24 H4          0.6857   -0.9119    0.4292 H         1 <0>         0.0618
     25 H5         -1.0844   -0.8916    0.2432 H         1 <0>         0.0660
     26 H6         -0.8240   -0.5297   -2.1960 H         1 <0>         0.0762
     27 H7          0.9461   -0.5500   -2.0101 H         1 <0>         0.0685
     28 H8          0.7708   -2.8670   -1.0548 H         1 <0>         0.0989
     29 H9         -1.3430   -4.0793   -1.2350 H         1 <0>         0.0683
     30 H10        -1.6092   -2.6023   -0.2781 H         1 <0>         0.0836
     31 H11        -2.5353   -1.4512   -2.2237 H         1 <0>         0.0688
     32 H12        -2.1434   -2.8350   -3.2725 H         1 <0>         0.0592
     33 H13        -4.5361   -2.8608   -2.6219 H         1 <0>         0.0556
     34 H14        -3.6770   -4.2691   -1.9534 H         1 <0>         0.0542
     35 H15        -4.0689   -2.8854   -0.9046 H         1 <0>         0.0557
     36 H16         0.6651   -4.8068   -2.6916 H         1 <0>         0.4140
     37 H17         1.5527   -2.7763   -5.4163 H         1 <0>         0.1492
     38 H18         1.7124   -3.5195   -7.7568 H         1 <0>         0.1398
     39 H19         0.8794   -5.7434   -8.4038 H         1 <0>         0.1458
     40 H20        -0.2678   -6.5007   -4.3674 H         1 <0>         0.1460
     41 H21         1.7788   -8.5914   -6.4242 H         1 <0>         0.4169
     42 H22         0.7888   -9.8458   -6.9428 H         1 <0>         0.4220
@<TRIPOS>BOND
     1    1    2 1
     2    1   21 1
     3    1   22 1
     4    1   23 1
     5    2    3 1
     6    2   24 1
     7    2   25 1
     8    3    4 1
     9    3   26 1
    10    3   27 1
    11    4    5 1
    12    4    8 1
    13    4   28 1
    14    5    6 1
    15    5   29 1
    16    5   30 1
    17    6    7 1
    18    6   31 1
    19    6   32 1
    20    7   33 1
    21    7   34 1
    22    7   35 1
    23    8    9 2
    24    8   10 am
    25   10   11 1
    26   10   36 1
    27   11   16 ar
    28   11   12 ar
    29   12   13 ar
    30   12   37 1
    31   13   14 ar
    32   13   38 1
    33   14   15 ar
    34   14   39 1
    35   15   16 ar
    36   15   17 1
    37   16   40 1
    38   17   18 2
    39   17   19 2
    40   17   20 1
    41   20   41 1
    42   20   42 1
@<TRIPOS>MOLECULE
ZINC13471976
   42    42     0     0     0
SMALL
USER_CHARGES

@<TRIPOS>ATOM
      1 C1         -0.1361    1.0185   -0.0610 C.3       1 <0>        -0.1540
      2 C2         -0.1438   -0.5088   -0.1524 C.3       1 <0>        -0.1252
      3 C3          0.0050   -0.9329   -1.6149 C.3       1 <0>        -0.1046
      4 C4         -0.0027   -2.4602   -1.7062 C.3       1 <0>        -0.1060
      5 C5         -1.3693   -2.9904   -1.2681 C.3       1 <0>        -0.1130
      6 C6         -2.4364   -2.5364   -2.2661 C.3       1 <0>        -0.1303
      7 C7         -3.7758   -3.1851   -1.9109 C.3       1 <0>        -0.1521
      8 C8          0.2665   -2.8797   -3.1284 C.2       1 <0>         0.5221
      9 O1          0.2410   -2.0564   -4.0187 O.2       1 <0>        -0.5076
     10 N1          0.5356   -4.1697   -3.4110 N.am      1 <0>        -0.6796
     11 C9          0.6276   -4.5898   -4.7426 C.ar      1 <0>         0.2068
     12 C10         1.1878   -3.7531   -5.6990 C.ar      1 <0>        -0.1449
     13 C11         1.2772   -4.1706   -7.0124 C.ar      1 <0>         0.0016
     14 C12         0.8095   -5.4203   -7.3756 C.ar      1 <0>        -0.6934
     15 C13         0.2507   -6.2556   -6.4257 C.ar      1 <0>         0.0019
     16 C14         0.1641   -5.8464   -5.1094 C.ar      1 <0>        -0.1676
     17 S1          0.9254   -5.9492   -9.0523 S.o2      1 <0>         2.7030
     18 O2         -0.0775   -6.9389   -9.2362 O.2       1 <0>        -0.9640
     19 O3          0.9887   -4.7722   -9.8460 O.2       1 <0>        -0.9629
     20 N2          2.3835   -6.7151   -9.2245 N.pl3     1 <0>        -1.2503
     21 H1          0.8047    1.4014   -0.4565 H         1 <0>         0.0546
     22 H2         -0.9654    1.4214   -0.6424 H         1 <0>         0.0551
     23 H3         -0.2421    1.3207    0.9809 H         1 <0>         0.0555
     24 H4          0.6855   -0.9117    0.4290 H         1 <0>         0.0620
     25 H5         -1.0846   -0.8917    0.2430 H         1 <0>         0.0658
     26 H6         -0.8243   -0.5300   -2.1962 H         1 <0>         0.0766
     27 H7          0.9458   -0.5500   -2.0103 H         1 <0>         0.0693
     28 H8          0.7708   -2.8670   -1.0548 H         1 <0>         0.0995
     29 H9         -1.3429   -4.0796   -1.2348 H         1 <0>         0.0675
     30 H10        -1.6092   -2.6025   -0.2781 H         1 <0>         0.0841
     31 H11        -2.5355   -1.4518   -2.2238 H         1 <0>         0.0695
     32 H12        -2.1434   -2.8355   -3.2725 H         1 <0>         0.0589
     33 H13        -4.5361   -2.8616   -2.6219 H         1 <0>         0.0559
     34 H14        -3.6768   -4.2697   -1.9532 H         1 <0>         0.0530
     35 H15        -4.0689   -2.8860   -0.9045 H         1 <0>         0.0560
     36 H16         0.6654   -4.8070   -2.6914 H         1 <0>         0.4155
     37 H17         1.5529   -2.7769   -5.4160 H         1 <0>         0.1505
     38 H18         1.7124   -3.5203   -7.7568 H         1 <0>         0.1471
     39 H19        -0.1139   -7.2308   -6.7126 H         1 <0>         0.1477
     40 H20        -0.2677   -6.5012   -4.3671 H         1 <0>         0.1380
     41 H21         2.9816   -6.7957   -8.4652 H         1 <0>         0.4165
     42 H22         2.6394   -7.0831  -10.0847 H         1 <0>         0.4212
@<TRIPOS>BOND
     1    1    2 1
     2    1   21 1
     3    1   22 1
     4    1   23 1
     5    2    3 1
     6    2   24 1
     7    2   25 1
     8    3    4 1
     9    3   26 1
    10    3   27 1
    11    4    5 1
    12    4    8 1
    13    4   28 1
    14    5    6 1
    15    5   29 1
    16    5   30 1
    17    6    7 1
    18    6   31 1
    19    6   32 1
    20    7   33 1
    21    7   34 1
    22    7   35 1
    23    8    9 2
    24    8   10 am
    25   10   11 1
    26   10   36 1
    27   11   16 ar
    28   11   12 ar
    29   12   13 ar
    30   12   37 1
    31   13   14 ar
    32   13   38 1
    33   14   15 ar
    34   14   17 1
    35   15   16 ar
    36   15   39 1
    37   16   40 1
    38   17   18 2
    39   17   19 2
    40   17   20 1
    41   20   41 1
    42   20   42 1
@<TRIPOS>MOLECULE
ZINC05925100
   38    39     0     0     0
SMALL
USER_CHARGES

@<TRIPOS>ATOM
      1 C1         -0.0173    1.4248    0.0099 C.3       1 <0>         0.0192
      2 O1          0.0021   -0.0041    0.0020 O.3       1 <0>        -0.2957
      3 C2         -1.2012   -0.6379    0.0101 C.ar      1 <0>         0.1472
      4 C3         -2.3702    0.0997    0.0195 C.ar      1 <0>        -0.1629
      5 C4         -3.6060   -0.5522    0.0273 C.ar      1 <0>        -0.0647
      6 C5         -3.6566   -1.9485    0.0257 C.ar      1 <0>        -0.2025
      7 C6         -2.4846   -2.6813    0.0163 C.ar      1 <0>         0.1480
      8 C7         -1.2545   -2.0292    0.0031 C.ar      1 <0>         0.0672
      9 O2         -0.1038   -2.7520   -0.0113 O.3       1 <0>        -0.3108
     10 C8          0.4572   -3.1039    1.2550 C.3       1 <0>         0.0351
     11 O3         -2.5332   -4.0405    0.0147 O.3       1 <0>        -0.2954
     12 C9         -3.8288   -4.6434    0.0230 C.3       1 <0>         0.0191
     13 C10        -4.8556    0.2327    0.0378 C.2       1 <0>         0.5610
     14 O4         -4.8103    1.4478    0.0396 O.2       1 <0>        -0.4429
     15 N1         -6.0470   -0.3973    0.0453 N.am      1 <0>        -0.6039
     16 C11        -7.2238    0.3419    0.0552 C.2       1 <0>         0.3213
     17 N2         -7.4064    1.6553    0.0530 N.2       1 <0>        -0.2902
     18 N3         -8.5593    2.1666    0.0633 N.2       1 <0>        -0.1258
     19 C12        -9.6533    1.4312    0.0770 C.2       1 <0>        -0.5430
     20 S1         -8.9285   -0.2060    0.0666 S.3       1 <0>         0.1348
     21 S2        -11.3461    1.9200    0.0930 S.o2      1 <0>         2.7463
     22 O5        -11.7101    2.1678   -1.2581 O.2       1 <0>        -0.9337
     23 O6        -12.0329    0.9790    0.9066 O.2       1 <0>        -0.9332
     24 N4        -11.4282    3.3749    0.8797 N.pl3     1 <0>        -1.2306
     25 H1          1.0053    1.8021    0.0021 H         1 <0>         0.1093
     26 H2         -0.5445    1.7859   -0.8732 H         1 <0>         0.0630
     27 H3         -0.5275    1.7763    0.9067 H         1 <0>         0.0618
     28 H4         -2.3283    1.1788    0.0211 H         1 <0>         0.1552
     29 H5         -4.6106   -2.4548    0.0321 H         1 <0>         0.1374
     30 H6          1.3709   -3.6779    1.1007 H         1 <0>         0.0982
     31 H7          0.6877   -2.1975    1.8148 H         1 <0>         0.0484
     32 H8         -0.2590   -3.7048    1.8154 H         1 <0>         0.0479
     33 H9         -3.7246   -5.7284    0.0207 H         1 <0>         0.1098
     34 H10        -4.3686   -4.3321    0.9173 H         1 <0>         0.0592
     35 H11        -4.3812   -4.3295   -0.8626 H         1 <0>         0.0604
     36 H12        -6.0831   -1.3666    0.0439 H         1 <0>         0.4331
     37 H13       -12.1182    4.0149    0.6450 H         1 <0>         0.4287
     38 H14       -10.7862    3.5871    1.5752 H         1 <0>         0.4235
@<TRIPOS>BOND
     1    1    2 1
     2    1   25 1
     3    1   26 1
     4    1   27 1
     5    2    3 1
     6    3    8 ar
     7    3    4 ar
     8    4    5 ar
     9    4   28 1
    10    5    6 ar
    11    5   13 1
    12    6    7 ar
    13    6   29 1
    14    7    8 ar
    15    7   11 1
    16    8    9 1
    17    9   10 1
    18   10   30 1
    19   10   31 1
    20   10   32 1
    21   11   12 1
    22   12   33 1
    23   12   34 1
    24   12   35 1
    25   13   14 2
    26   13   15 am
    27   15   16 1
    28   15   36 1
    29   16   20 1
    30   16   17 2
    31   17   18 1
    32   18   19 2
    33   19   20 1
    34   19   21 1
    35   21   22 2
    36   21   23 2
    37   21   24 1
    38   24   37 1
    39   24   38 1
@<TRIPOS>MOLECULE
ZINC05925100
   37    38     0     0     0
SMALL
USER_CHARGES

@<TRIPOS>ATOM
      1 C1         -0.0173    1.4248    0.0099 C.3       1 <0>         0.0195
      2 O1          0.0021   -0.0041    0.0020 O.3       1 <0>        -0.2987
      3 C2         -1.2012   -0.6379    0.0101 C.ar      1 <0>         0.1459
      4 C3         -2.3702    0.0997    0.0195 C.ar      1 <0>        -0.1664
      5 C4         -3.6060   -0.5522    0.0273 C.ar      1 <0>        -0.0532
      6 C5         -3.6566   -1.9485    0.0257 C.ar      1 <0>        -0.2027
      7 C6         -2.4846   -2.6813    0.0163 C.ar      1 <0>         0.1468
      8 C7         -1.2545   -2.0292    0.0031 C.ar      1 <0>         0.0582
      9 O2         -0.1038   -2.7520   -0.0113 O.3       1 <0>        -0.3114
     10 C8          0.4572   -3.1039    1.2550 C.3       1 <0>         0.0351
     11 O3         -2.5332   -4.0405    0.0147 O.3       1 <0>        -0.2983
     12 C9         -3.8288   -4.6434    0.0230 C.3       1 <0>         0.0189
     13 C10        -4.8556    0.2327    0.0378 C.2       1 <0>         0.5550
     14 O4         -4.8103    1.4478    0.0396 O.2       1 <0>        -0.4502
     15 N1         -6.0470   -0.3973    0.0453 N.am      1 <0>        -0.6058
     16 C11        -7.2238    0.3419    0.0552 C.2       1 <0>         0.2784
     17 N2         -7.4064    1.6553    0.0530 N.2       1 <0>        -0.2889
     18 N3         -8.5593    2.1666    0.0633 N.2       1 <0>        -0.1514
     19 C12        -9.6533    1.4312    0.0770 C.2       1 <0>        -0.3834
     20 S1         -8.9285   -0.2060    0.0666 S.3       1 <0>         0.0408
     21 S2        -11.3461    1.9200    0.0930 S.o2      1 <0>         2.5975
     22 O5        -11.7101    2.1678   -1.2581 O.2       1 <0>        -1.0341
     23 O6        -12.0329    0.9790    0.9066 O.2       1 <0>        -1.0395
     24 N4        -11.4282    3.3749    0.8797 N.2       1 <0>        -1.3099
     25 H1          1.0053    1.8021    0.0021 H         1 <0>         0.1064
     26 H2         -0.5445    1.7859   -0.8732 H         1 <0>         0.0631
     27 H3         -0.5275    1.7763    0.9067 H         1 <0>         0.0620
     28 H4         -2.3283    1.1788    0.0211 H         1 <0>         0.1549
     29 H5         -4.6106   -2.4548    0.0321 H         1 <0>         0.1386
     30 H6          0.6877   -2.1975    1.8148 H         1 <0>         0.0471
     31 H7         -0.2590   -3.7048    1.8154 H         1 <0>         0.0467
     32 H8          1.3709   -3.6779    1.1007 H         1 <0>         0.0948
     33 H9         -3.7246   -5.7284    0.0207 H         1 <0>         0.1072
     34 H10        -4.3686   -4.3321    0.9173 H         1 <0>         0.0600
     35 H11        -4.3812   -4.3295   -0.8626 H         1 <0>         0.0610
     36 H12        -6.0831   -1.3666    0.0439 H         1 <0>         0.4255
     37 H13       -12.2841    3.8165    0.9946 H         1 <0>         0.3304
@<TRIPOS>BOND
     1    1    2 1
     2    1   25 1
     3    1   26 1
     4    1   27 1
     5    2    3 1
     6    3    8 ar
     7    3    4 ar
     8    4    5 ar
     9    4   28 1
    10    5    6 ar
    11    5   13 1
    12    6    7 ar
    13    6   29 1
    14    7    8 ar
    15    7   11 1
    16    8    9 1
    17    9   10 1
    18   10   30 1
    19   10   31 1
    20   10   32 1
    21   11   12 1
    22   12   33 1
    23   12   34 1
    24   12   35 1
    25   13   14 2
    26   13   15 am
    27   15   16 1
    28   15   36 1
    29   16   20 1
    30   16   17 2
    31   17   18 1
    32   18   19 2
    33   19   20 1
    34   19   21 1
    35   21   22 2
    36   21   23 2
    37   21   24 1
    38   24   37 1
@<TRIPOS>MOLECULE
ZINC13471982
   42    42     0     0     0
SMALL
USER_CHARGES

@<TRIPOS>ATOM
      1 C1         -0.1461    1.0987   -0.0650 C.3       1 <0>        -0.1539
      2 C2         -0.2298   -0.4258   -0.1641 C.3       1 <0>        -0.1250
      3 C3          0.2398   -0.8733   -1.5499 C.3       1 <0>        -0.1057
      4 C4          0.1561   -2.3978   -1.6490 C.3       1 <0>        -0.1037
      5 C5         -1.3070   -2.8353   -1.5566 C.3       1 <0>        -0.1125
      6 C6         -2.0850   -2.2683   -2.7457 C.3       1 <0>        -0.1307
      7 C7         -3.5103   -2.8244   -2.7346 C.3       1 <0>        -0.1523
      8 C8          0.7328   -2.8479   -2.9665 C.2       1 <0>         0.5246
      9 O1          0.7630   -2.0837   -3.9080 O.2       1 <0>        -0.5039
     10 N1          1.2149   -4.0995   -3.0987 N.am      1 <0>        -0.6785
     11 C9          1.6502   -4.5533   -4.3491 C.ar      1 <0>         0.2363
     12 C10         2.3477   -3.7007   -5.1946 C.ar      1 <0>        -0.1344
     13 C11         2.7764   -4.1515   -6.4277 C.ar      1 <0>         0.0164
     14 C12         2.5115   -5.4506   -6.8213 C.ar      1 <0>        -0.6894
     15 C13         1.8170   -6.3024   -5.9826 C.ar      1 <0>         0.0306
     16 C14         1.3905   -5.8595   -4.7447 C.ar      1 <0>        -0.1459
     17 Br1         0.4474   -7.0273   -3.5947 Br        1 <0>        -0.0258
     18 S1          3.0599   -6.0212   -8.3956 S.o2      1 <0>         2.7048
     19 O2          2.2132   -7.1052   -8.7522 O.2       1 <0>        -0.9585
     20 O3          3.2098   -4.8700   -9.2152 O.2       1 <0>        -0.9575
     21 N2          4.5760   -6.6537   -8.1862 N.pl3     1 <0>        -1.2489
     22 H1          0.8849    1.4168   -0.2195 H         1 <0>         0.0543
     23 H2         -0.7831    1.5479   -0.8270 H         1 <0>         0.0554
     24 H3         -0.4806    1.4175    0.9222 H         1 <0>         0.0557
     25 H4          0.4072   -0.8749    0.5979 H         1 <0>         0.0622
     26 H5         -1.2608   -0.7439   -0.0096 H         1 <0>         0.0667
     27 H6         -0.3972   -0.4241   -2.3119 H         1 <0>         0.0800
     28 H7          1.2708   -0.5551   -1.7044 H         1 <0>         0.0670
     29 H8          0.7218   -2.8465   -0.8325 H         1 <0>         0.0968
     30 H9         -1.3624   -3.9238   -1.5719 H         1 <0>         0.0685
     31 H10        -1.7398   -2.4626   -0.6282 H         1 <0>         0.0845
     32 H11        -2.1186   -1.1812   -2.6729 H         1 <0>         0.0694
     33 H12        -1.5903   -2.5552   -3.6737 H         1 <0>         0.0628
     34 H13        -4.0646   -2.4204   -3.5818 H         1 <0>         0.0556
     35 H14        -3.4768   -3.9114   -2.8074 H         1 <0>         0.0529
     36 H15        -4.0051   -2.5375   -1.8067 H         1 <0>         0.0551
     37 H16         1.2602   -4.6858   -2.3273 H         1 <0>         0.4178
     38 H17         2.5544   -2.6858   -4.8885 H         1 <0>         0.1563
     39 H18         3.3188   -3.4887   -7.0855 H         1 <0>         0.1553
     40 H19         1.6112   -7.3161   -6.2932 H         1 <0>         0.1577
     41 H20         4.9843   -6.6536   -7.3064 H         1 <0>         0.4172
     42 H21         5.0556   -7.0244   -8.9435 H         1 <0>         0.4228
@<TRIPOS>BOND
     1    1    2 1
     2    1   22 1
     3    1   23 1
     4    1   24 1
     5    2    3 1
     6    2   25 1
     7    2   26 1
     8    3    4 1
     9    3   27 1
    10    3   28 1
    11    4    5 1
    12    4    8 1
    13    4   29 1
    14    5    6 1
    15    5   30 1
    16    5   31 1
    17    6    7 1
    18    6   32 1
    19    6   33 1
    20    7   34 1
    21    7   35 1
    22    7   36 1
    23    8    9 2
    24    8   10 am
    25   10   11 1
    26   10   37 1
    27   11   16 ar
    28   11   12 ar
    29   12   13 ar
    30   12   38 1
    31   13   14 ar
    32   13   39 1
    33   14   15 ar
    34   14   18 1
    35   15   16 ar
    36   15   40 1
    37   16   17 1
    38   18   19 2
    39   18   20 2
    40   18   21 1
    41   21   41 1
    42   21   42 1
@<TRIPOS>MOLECULE
ZINC02570895
   40    42     0     0     0
SMALL
USER_CHARGES

@<TRIPOS>ATOM
      1 C1          0.0405    1.5033    0.0105 C.3       1 <0>        -0.1224
      2 C2          0.0481   -0.0036    0.0022 C.ar      1 <0>        -0.0617
      3 C3         -0.4654   -0.6891   -1.0843 C.ar      1 <0>        -0.1180
      4 C4         -0.4609   -2.0687   -1.0981 C.ar      1 <0>        -0.0762
      5 C5          0.0630   -2.7726   -0.0133 C.ar      1 <0>        -0.0606
      6 C6          0.5793   -2.0754    1.0794 C.ar      1 <0>        -0.0985
      7 C7          0.5738   -0.6957    1.0787 C.ar      1 <0>        -0.1165
      8 C8          0.0704   -4.2518   -0.0214 C.2       1 <0>         0.1497
      9 C9          0.0778   -5.0559   -1.1264 C.2       1 <0>        -0.2047
     10 C10         0.0841   -6.3814   -0.6911 C.2       1 <0>        -0.0034
     11 N1          0.0806   -6.3920    0.6183 N.2       1 <0>        -0.2184
     12 N2          0.0772   -5.0674    1.0740 N.pl3     1 <0>        -0.3181
     13 C11         0.0780   -4.6538    2.4124 C.ar      1 <0>         0.1993
     14 C12        -0.7877   -3.6523    2.8316 C.ar      1 <0>        -0.1310
     15 C13        -0.7845   -3.2467    4.1518 C.ar      1 <0>        -0.0008
     16 C14         0.0799   -3.8365    5.0557 C.ar      1 <0>        -0.6729
     17 C15         0.9432   -4.8341    4.6414 C.ar      1 <0>         0.0013
     18 C16         0.9405   -5.2485    3.3238 C.ar      1 <0>        -0.1237
     19 S1          0.0817   -3.3155    6.7389 S.o2      1 <0>         2.7035
     20 O1          1.3615   -3.6412    7.2635 O.2       1 <0>        -0.9570
     21 O2         -0.4336   -1.9913    6.7547 O.2       1 <0>        -0.9571
     22 N3         -1.0144   -4.2595    7.5449 N.pl3     1 <0>        -1.2487
     23 C17         0.0927   -7.5984   -1.5799 C.3       1 <0>         0.5581
     24 F1          1.4144   -7.9678   -1.8518 F         1 <0>        -0.1637
     25 F2         -0.5625   -8.6523   -0.9339 F         1 <0>        -0.1639
     26 F3         -0.5656   -7.3049   -2.7789 F         1 <0>        -0.1610
     27 H1          0.9639    1.8738   -0.4347 H         1 <0>         0.0767
     28 H2         -0.8113    1.8655   -0.5652 H         1 <0>         0.0714
     29 H3         -0.0366    1.8607    1.0374 H         1 <0>         0.0715
     30 H4         -0.8709   -0.1431   -1.9232 H         1 <0>         0.1331
     31 H5         -0.8624   -2.6027   -1.9467 H         1 <0>         0.1336
     32 H6          0.9862   -2.6145    1.9221 H         1 <0>         0.1246
     33 H7          0.9772   -0.1548    1.9220 H         1 <0>         0.1315
     34 H8          0.0784   -4.7241   -2.1542 H         1 <0>         0.1732
     35 H9         -1.4626   -3.1908    2.1259 H         1 <0>         0.1459
     36 H10        -1.4576   -2.4679    4.4785 H         1 <0>         0.1580
     37 H11         1.6174   -5.2926    5.3496 H         1 <0>         0.1579
     38 H12         1.6117   -6.0309    3.0018 H         1 <0>         0.1479
     39 H13        -1.5085   -4.9443    7.0675 H         1 <0>         0.4179
     40 H14        -1.1624   -4.1277    8.4945 H         1 <0>         0.4235
@<TRIPOS>BOND
     1    1    2 1
     2    1   27 1
     3    1   28 1
     4    1   29 1
     5    2    7 ar
     6    2    3 ar
     7    3    4 ar
     8    3   30 1
     9    4    5 ar
    10    4   31 1
    11    5    6 ar
    12    5    8 1
    13    6    7 ar
    14    6   32 1
    15    7   33 1
    16    8   12 1
    17    8    9 2
    18    9   10 1
    19    9   34 1
    20   10   11 2
    21   10   23 1
    22   11   12 1
    23   12   13 1
    24   13   18 ar
    25   13   14 ar
    26   14   15 ar
    27   14   35 1
    28   15   16 ar
    29   15   36 1
    30   16   17 ar
    31   16   19 1
    32   17   18 ar
    33   17   37 1
    34   18   38 1
    35   19   20 2
    36   19   21 2
    37   19   22 1
    38   22   39 1
    39   22   40 1
    40   23   24 1
    41   23   25 1
    42   23   26 1
@<TRIPOS>MOLECULE
ZINC05570003
   18    18     0     0     0
SMALL
USER_CHARGES

@<TRIPOS>ATOM
      1 C1         -0.0167    1.3782    0.0096 C.ar      1 <0>        -0.0156
      2 C2          1.1708    2.0857    0.0021 C.ar      1 <0>        -0.1081
      3 C3          2.3776    1.4106   -0.0131 C.ar      1 <0>        -0.0488
      4 C4          2.3961    0.0278   -0.0207 C.ar      1 <0>        -0.1073
      5 C5          1.2083   -0.6792   -0.0132 C.ar      1 <0>        -0.0061
      6 C6          0.0021   -0.0041    0.0020 C.ar      1 <0>        -0.6614
      7 S1         -1.5118   -0.9056    0.0122 S.o2      1 <0>         2.7202
      8 O1         -1.2182   -2.1863    0.5533 O.2       1 <0>        -0.9338
      9 O2         -2.4923   -0.0463    0.5775 O.2       1 <0>        -0.9337
     10 N1         -1.9482   -1.1476   -1.5668 N.pl3     1 <0>        -0.9880
     11 O3         -1.1424   -1.9518   -2.4087 O.3       1 <0>        -0.2980
     12 I1          4.1776    2.4824   -0.0252 I         1 <0>        -0.0222
     13 H1         -0.9592    1.9053    0.0260 H         1 <0>         0.1504
     14 H2          1.1560    3.1655    0.0077 H         1 <0>         0.1417
     15 H3          3.3384   -0.4997   -0.0329 H         1 <0>         0.1420
     16 H4          1.2227   -1.7591   -0.0191 H         1 <0>         0.1520
     17 H5         -2.7559   -0.7384   -1.9149 H         1 <0>         0.4194
     18 H6         -1.4776   -2.0346   -3.3120 H         1 <0>         0.3971
@<TRIPOS>BOND
     1    1    6 ar
     2    1    2 ar
     3    1   13 1
     4    2    3 ar
     5    2   14 1
     6    3    4 ar
     7    3   12 1
     8    4    5 ar
     9    4   15 1
    10    5    6 ar
    11    5   16 1
    12    6    7 1
    13    7    8 2
    14    7    9 2
    15    7   10 1
    16   10   11 1
    17   10   17 1
    18   11   18 1
@<TRIPOS>MOLECULE
ZINC13813802
   20    20     0     0     0
SMALL
USER_CHARGES

@<TRIPOS>ATOM
      1 C1          0.1341    1.2860   -0.2477 C.ar      1 <0>        -0.0584
      2 C2          0.9289    2.3670    0.0858 C.ar      1 <0>        -0.0922
      3 C3          1.9736    2.2079    0.9767 C.ar      1 <0>        -0.0090
      4 C4          2.2235    0.9678    1.5346 C.ar      1 <0>        -0.6324
      5 C5          1.4284   -0.1126    1.2019 C.ar      1 <0>         0.0469
      6 C6          0.3842    0.0462    0.3097 C.ar      1 <0>        -0.0746
      7 N1          1.6965   -1.4404    1.7986 N.pl3     1 <0>         0.0212
      8 O1          0.7764   -2.1589    2.1129 O.2       1 <0>        -0.1043
      9 O2          2.8357   -1.8065    1.9715 O.3       1 <0>        -0.1660
     10 S1          3.5561    0.7647    2.6694 S.o2      1 <0>         2.7194
     11 O3          4.1698    2.0389    2.8074 O.2       1 <0>        -0.9279
     12 O4          3.0380    0.0445    3.7794 O.2       1 <0>        -0.9260
     13 N2          4.6710   -0.2216    1.9439 N.pl3     1 <0>        -0.9653
     14 O5          5.3041    0.1872    0.7451 O.3       1 <0>        -0.3030
     15 H1         -0.6850    1.4113   -0.9403 H         1 <0>         0.1589
     16 H2          0.7337    3.3356   -0.3500 H         1 <0>         0.1570
     17 H3          2.5950    3.0521    1.2366 H         1 <0>         0.1686
     18 H4         -0.2368   -0.7981    0.0495 H         1 <0>         0.1593
     19 H5          4.8905   -1.0793    2.3401 H         1 <0>         0.4290
     20 H6          5.9387   -0.4540    0.3970 H         1 <0>         0.3988
@<TRIPOS>BOND
     1    1    6 ar
     2    1    2 ar
     3    1   15 1
     4    2    3 ar
     5    2   16 1
     6    3    4 ar
     7    3   17 1
     8    4    5 ar
     9    4   10 1
    10    5    6 ar
    11    5    7 1
    12    6   18 1
    13    7    8 2
    14    7    9 1
    15   10   11 2
    16   10   12 2
    17   10   13 1
    18   13   14 1
    19   13   19 1
    20   14   20 1
@<TRIPOS>MOLECULE
ZINC13813791
   21    21     0     0     0
SMALL
USER_CHARGES

@<TRIPOS>ATOM
      1 C1         -0.0184    1.5028    0.0103 C.3       1 <0>        -0.1265
      2 C2          0.0021   -0.0041    0.0020 C.ar      1 <0>        -0.0259
      3 C3          0.0057   -0.6887   -1.1989 C.ar      1 <0>        -0.1445
      4 C4          0.0245   -2.0709   -1.2065 C.ar      1 <0>        -0.0169
      5 C5          0.0400   -2.7685   -0.0132 C.ar      1 <0>        -0.6820
      6 C6          0.0373   -2.0839    1.1877 C.ar      1 <0>        -0.0074
      7 C7          0.0229   -0.7016    1.1953 C.ar      1 <0>        -0.1440
      8 S1          0.0628   -4.5303   -0.0229 S.o2      1 <0>         2.7201
      9 O1         -0.4759   -4.9503    1.2232 O.2       1 <0>        -0.9394
     10 O2         -0.4897   -4.9367   -1.2674 O.2       1 <0>        -0.9388
     11 N1          1.6509   -4.9994   -0.0343 N.pl3     1 <0>        -0.9894
     12 O3          2.4828   -4.7090    1.0741 O.3       1 <0>        -0.2985
     13 H1          1.0042    1.8801    0.0026 H         1 <0>         0.0803
     14 H2         -0.5455    1.8639   -0.8728 H         1 <0>         0.0739
     15 H3         -0.5286    1.8543    0.9071 H         1 <0>         0.0740
     16 H4         -0.0064   -0.1436   -2.1312 H         1 <0>         0.1339
     17 H5          0.0266   -2.6057   -2.1448 H         1 <0>         0.1409
     18 H6          0.0491   -2.6289    2.1200 H         1 <0>         0.1426
     19 H7          0.0245   -0.1667    2.1335 H         1 <0>         0.1342
     20 H8          2.0112   -5.4731   -0.8002 H         1 <0>         0.4179
     21 H9          3.3925   -5.0219    0.9758 H         1 <0>         0.3955
@<TRIPOS>BOND
     1    1    2 1
     2    1   13 1
     3    1   14 1
     4    1   15 1
     5    2    7 ar
     6    2    3 ar
     7    3    4 ar
     8    3   16 1
     9    4    5 ar
    10    4   17 1
    11    5    6 ar
    12    5    8 1
    13    6    7 ar
    14    6   18 1
    15    7   19 1
    16    8    9 2
    17    8   10 2
    18    8   11 1
    19   11   12 1
    20   11   20 1
    21   12   21 1
@<TRIPOS>MOLECULE
ZINC13800504
   30    30     0     0     0
SMALL
USER_CHARGES

@<TRIPOS>ATOM
      1 C1          1.2157    1.4786    0.3417 C.3       1 <0>        -0.0469
      2 N1          1.2468    0.0100    0.3330 N.4       1 <0>        -0.4965
      3 C2          1.2516   -0.4715   -1.0549 C.3       1 <0>        -0.0276
      4 C3          1.2835   -1.9782   -1.0637 C.2       1 <0>         0.5034
      5 O1          1.3006   -2.5906   -0.0170 O.2       1 <0>        -0.5004
      6 N2          1.2931   -2.6451   -2.2349 N.am      1 <0>        -0.6512
      7 C4          1.4176   -4.0391   -2.2454 C.ar      1 <0>         0.2099
      8 C5          0.8414   -4.7968   -1.2344 C.ar      1 <0>        -0.1317
      9 C6          0.9656   -6.1723   -1.2477 C.ar      1 <0>         0.0188
     10 C7          1.6634   -6.7956   -2.2662 C.ar      1 <0>        -0.6751
     11 C8          2.2390   -6.0446   -3.2743 C.ar      1 <0>         0.0333
     12 C9          2.1132   -4.6683   -3.2703 C.ar      1 <0>        -0.1379
     13 Br1         2.8941   -3.6422   -4.6535 Br        1 <0>        -0.0151
     14 S1          1.8197   -8.5506   -2.2787 S.o2      1 <0>         2.7023
     15 O2          2.9813   -8.8494   -3.0406 O.2       1 <0>        -0.9509
     16 O3          1.6585   -8.9823   -0.9345 O.2       1 <0>        -0.9515
     17 N3          0.5301   -9.1510   -3.1265 N.pl3     1 <0>        -1.2469
     18 H1          2.0957    1.8637   -0.1735 H         1 <0>         0.1280
     19 H2          0.3161    1.8260   -0.1665 H         1 <0>         0.1280
     20 H3          1.2121    1.8359    1.3714 H         1 <0>         0.1352
     21 H4          2.0795   -0.3116    0.8034 H         1 <0>         0.4395
     22 H5          0.3520   -0.1242   -1.5630 H         1 <0>         0.1693
     23 H6          2.1316   -0.0864   -1.5700 H         1 <0>         0.1697
     24 H7          1.2137   -2.1590   -3.0705 H         1 <0>         0.4264
     25 H8          0.2968   -4.3110   -0.4383 H         1 <0>         0.1595
     26 H9          0.5175   -6.7619   -0.4616 H         1 <0>         0.1614
     27 H10         2.7839   -6.5343   -4.0678 H         1 <0>         0.1648
     28 H11        -0.1280   -8.5452   -3.5017 H         1 <0>         0.4171
     29 H12         0.4329  -10.1084   -3.2479 H         1 <0>         0.4267
     30 H13         0.4322   -0.3465    0.8099 H         1 <0>         0.4387
@<TRIPOS>BOND
     1    1    2 1
     2    1   18 1
     3    1   19 1
     4    1   20 1
     5    2    3 1
     6    2   21 1
     7    2   30 1
     8    3    4 1
     9    3   22 1
    10    3   23 1
    11    4    5 2
    12    4    6 am
    13    6    7 1
    14    6   24 1
    15    7   12 ar
    16    7    8 ar
    17    8    9 ar
    18    8   25 1
    19    9   10 ar
    20    9   26 1
    21   10   11 ar
    22   10   14 1
    23   11   12 ar
    24   11   27 1
    25   12   13 1
    26   14   15 2
    27   14   16 2
    28   14   17 1
    29   17   28 1
    30   17   29 1
@<TRIPOS>MOLECULE
ZINC13813795
   20    20     0     0     0
SMALL
USER_CHARGES

@<TRIPOS>ATOM
      1 C1         -0.0167    1.3781    0.0096 C.ar      1 <0>        -0.0777
      2 C2          1.1709    2.0855    0.0021 C.ar      1 <0>        -0.0178
      3 C3          2.3773    1.4107   -0.0130 C.ar      1 <0>        -0.6387
      4 C4          2.3961    0.0285   -0.0201 C.ar      1 <0>        -0.0086
      5 C5          1.2084   -0.6789   -0.0117 C.ar      1 <0>        -0.0765
      6 C6          0.0021   -0.0041    0.0020 C.ar      1 <0>         0.0050
      7 N1         -1.2696   -0.7615    0.0105 N.pl3     1 <0>         0.0223
      8 O1         -2.3247   -0.1714    0.0241 O.2       1 <0>        -0.1421
      9 O2         -1.2532   -1.9704    0.0039 O.3       1 <0>        -0.1415
     10 S1          3.8911    2.3124   -0.0238 S.o2      1 <0>         2.7221
     11 O3          4.8717    1.4529   -0.5884 O.2       1 <0>        -0.9250
     12 O4          3.5973    3.5927   -0.5658 O.2       1 <0>        -0.9254
     13 N2          4.3274    2.5556    1.5551 N.pl3     1 <0>        -0.9855
     14 O5          4.6588    1.4507    2.3763 O.3       1 <0>        -0.2979
     15 H1         -0.9591    1.9053    0.0259 H         1 <0>         0.1658
     16 H2          1.1563    3.1654    0.0076 H         1 <0>         0.1660
     17 H3          3.3385   -0.4987   -0.0326 H         1 <0>         0.1676
     18 H4          1.2231   -1.7588   -0.0179 H         1 <0>         0.1662
     19 H5          4.3559    3.4549    1.9174 H         1 <0>         0.4219
     20 H6          4.9002    1.6915    3.2811 H         1 <0>         0.3998
@<TRIPOS>BOND
     1    1    6 ar
     2    1    2 ar
     3    1   15 1
     4    2    3 ar
     5    2   16 1
     6    3    4 ar
     7    3   10 1
     8    4    5 ar
     9    4   17 1
    10    5    6 ar
    11    5   18 1
    12    6    7 1
    13    7    8 2
    14    7    9 1
    15   10   11 2
    16   10   12 2
    17   10   13 1
    18   13   14 1
    19   13   19 1
    20   14   20 1
@<TRIPOS>MOLECULE
ZINC11957028
   30    30     0     0     0
SMALL
USER_CHARGES

@<TRIPOS>ATOM
      1 C1         -0.0167    1.3781    0.0096 C.ar      1 <0>        -0.1191
      2 C2          1.1709    2.0855    0.0021 C.ar      1 <0>        -0.0164
      3 C3          2.3773    1.4107   -0.0130 C.ar      1 <0>        -0.6604
      4 C4          2.3960    0.0285   -0.0201 C.ar      1 <0>        -0.0164
      5 C5          1.2085   -0.6789   -0.0117 C.ar      1 <0>        -0.1191
      6 C6          0.0021   -0.0041    0.0020 C.ar      1 <0>        -0.0692
      7 C7         -1.2926   -0.7753    0.0107 C.3       1 <0>         0.1533
      8 N1         -1.7258   -1.0177   -1.3676 N.am      1 <0>        -0.7004
      9 C8         -2.8667   -1.6945   -1.6063 C.2       1 <0>         0.4956
     10 O1         -3.5346   -2.1028   -0.6800 O.2       1 <0>        -0.5261
     11 C9         -3.3123   -1.9439   -3.0241 C.3       1 <0>        -0.0267
     12 N2         -4.5743   -2.6957   -3.0157 N.4       1 <0>        -0.6209
     13 S1          3.8911    2.3124   -0.0238 S.o2      1 <0>         2.6994
     14 O2          4.8717    1.4529   -0.5884 O.2       1 <0>        -0.9567
     15 O3          3.5973    3.5927   -0.5658 O.2       1 <0>        -0.9567
     16 N3          4.3274    2.5556    1.5551 N.pl3     1 <0>        -1.2479
     17 H1         -0.9591    1.9053    0.0259 H         1 <0>         0.1383
     18 H2          1.1563    3.1654    0.0076 H         1 <0>         0.1507
     19 H3          3.3385   -0.4987   -0.0326 H         1 <0>         0.1507
     20 H4          1.2231   -1.7588   -0.0179 H         1 <0>         0.1382
     21 H5         -1.1443   -1.7285    0.5180 H         1 <0>         0.0948
     22 H6         -2.0551   -0.1993    0.5352 H         1 <0>         0.0948
     23 H7         -1.1916   -0.6912   -2.1085 H         1 <0>         0.4142
     24 H8         -3.4606   -0.9907   -3.5314 H         1 <0>         0.1655
     25 H9         -2.5498   -2.5199   -3.5486 H         1 <0>         0.1655
     26 H10        -4.4370   -3.5781   -2.5461 H         1 <0>         0.4430
     27 H11        -5.2801   -2.1626   -2.5301 H         1 <0>         0.4430
     28 H12         3.7682    2.2150    2.2708 H         1 <0>         0.4172
     29 H13         5.1421    3.0386    1.7642 H         1 <0>         0.4254
     30 H14        -4.8727   -2.8627   -3.9650 H         1 <0>         0.4464
@<TRIPOS>BOND
     1    1    6 ar
     2    1    2 ar
     3    1   17 1
     4    2    3 ar
     5    2   18 1
     6    3    4 ar
     7    3   13 1
     8    4    5 ar
     9    4   19 1
    10    5    6 ar
    11    5   20 1
    12    6    7 1
    13    7    8 1
    14    7   21 1
    15    7   22 1
    16    8    9 am
    17    8   23 1
    18    9   10 2
    19    9   11 1
    20   11   12 1
    21   11   24 1
    22   11   25 1
    23   12   26 1
    24   12   27 1
    25   12   30 1
    26   13   14 2
    27   13   15 2
    28   13   16 1
    29   16   28 1
    30   16   29 1
@<TRIPOS>MOLECULE
ZINC11956807
   33    33     0     0     0
SMALL
USER_CHARGES

@<TRIPOS>ATOM
      1 C1         -0.0167    1.3781    0.0096 C.ar      1 <0>        -0.1339
      2 C2          1.1709    2.0855    0.0021 C.ar      1 <0>        -0.0133
      3 C3          2.3773    1.4107   -0.0130 C.ar      1 <0>        -0.6711
      4 C4          2.3960    0.0285   -0.0201 C.ar      1 <0>        -0.0133
      5 C5          1.2085   -0.6789   -0.0117 C.ar      1 <0>        -0.1339
      6 C6          0.0021   -0.0041    0.0020 C.ar      1 <0>        -0.0348
      7 C7         -1.2926   -0.7753    0.0107 C.3       1 <0>        -0.0998
      8 C8         -1.7450   -1.0285   -1.4288 C.3       1 <0>         0.1178
      9 N1         -3.0037   -1.7782   -1.4204 N.am      1 <0>        -0.7040
     10 C9         -3.5942   -2.1168   -2.5836 C.2       1 <0>         0.4936
     11 O1         -3.0836   -1.8008   -3.6374 O.2       1 <0>        -0.5256
     12 C10        -4.8889   -2.8880   -2.5749 C.3       1 <0>        -0.0265
     13 N2         -5.3232   -3.1311   -3.9570 N.4       1 <0>        -0.6213
     14 S1          3.8911    2.3124   -0.0238 S.o2      1 <0>         2.6998
     15 O2          4.8717    1.4529   -0.5884 O.2       1 <0>        -0.9590
     16 O3          3.5973    3.5927   -0.5658 O.2       1 <0>        -0.9590
     17 N3          4.3274    2.5556    1.5551 N.pl3     1 <0>        -1.2487
     18 H1         -0.9591    1.9053    0.0259 H         1 <0>         0.1356
     19 H2          1.1563    3.1654    0.0076 H         1 <0>         0.1477
     20 H3          3.3385   -0.4987   -0.0326 H         1 <0>         0.1477
     21 H4          1.2231   -1.7588   -0.0179 H         1 <0>         0.1356
     22 H5         -1.1443   -1.7285    0.5180 H         1 <0>         0.0905
     23 H6         -2.0551   -0.1993    0.5352 H         1 <0>         0.0905
     24 H7         -1.8934   -0.0752   -1.9361 H         1 <0>         0.0848
     25 H8         -0.9826   -1.6044   -1.9533 H         1 <0>         0.0848
     26 H9         -3.4120   -2.0309   -0.5776 H         1 <0>         0.4127
     27 H10        -4.7405   -3.8413   -2.0677 H         1 <0>         0.1649
     28 H11        -5.6513   -2.3121   -2.0504 H         1 <0>         0.1649
     29 H12        -5.4605   -2.2487   -4.4266 H         1 <0>         0.4431
     30 H13        -4.6174   -3.6642   -4.4425 H         1 <0>         0.4431
     31 H14         3.7682    2.2150    2.2708 H         1 <0>         0.4166
     32 H15         5.1421    3.0386    1.7642 H         1 <0>         0.4242
     33 H16        -6.1901   -3.6475   -3.9512 H         1 <0>         0.4461
@<TRIPOS>BOND
     1    1    6 ar
     2    1    2 ar
     3    1   18 1
     4    2    3 ar
     5    2   19 1
     6    3    4 ar
     7    3   14 1
     8    4    5 ar
     9    4   20 1
    10    5    6 ar
    11    5   21 1
    12    6    7 1
    13    7    8 1
    14    7   22 1
    15    7   23 1
    16    8    9 1
    17    8   24 1
    18    8   25 1
    19    9   10 am
    20    9   26 1
    21   10   11 2
    22   10   12 1
    23   12   13 1
    24   12   27 1
    25   12   28 1
    26   13   29 1
    27   13   30 1
    28   13   33 1
    29   14   15 2
    30   14   16 2
    31   14   17 1
    32   17   31 1
    33   17   32 1
@<TRIPOS>MOLECULE
ZINC11957147
   27    27     0     0     0
SMALL
USER_CHARGES

@<TRIPOS>ATOM
      1 C1         -0.0126    1.3742    0.1927 C.ar      1 <0>        -0.1391
      2 C2          1.1737    2.0815    0.1899 C.ar      1 <0>         0.0041
      3 C3          2.3739    1.4208    0.0022 C.ar      1 <0>        -0.6780
      4 C4          2.3906    0.0505   -0.1827 C.ar      1 <0>         0.0062
      5 C5          1.2079   -0.6626   -0.1805 C.ar      1 <0>        -0.1535
      6 C6          0.0009   -0.0020    0.0073 C.ar      1 <0>         0.1806
      7 N1         -1.1992   -0.7216    0.0101 N.am      1 <0>        -0.6502
      8 C7         -2.3250   -0.1564   -0.4690 C.2       1 <0>         0.4964
      9 O1         -2.2799    0.9382   -0.9896 O.2       1 <0>        -0.5030
     10 C8         -3.6398   -0.8843   -0.3578 C.3       1 <0>        -0.0232
     11 N2         -4.7053   -0.0638   -0.9492 N.4       1 <0>        -0.6215
     12 S1          3.8850    2.3270   -0.0019 S.o2      1 <0>         2.7008
     13 O2          4.8205    1.5533   -0.7404 O.2       1 <0>        -0.9557
     14 O3          3.5558    3.6639   -0.3537 O.2       1 <0>        -0.9565
     15 N3          4.4343    2.3701    1.5597 N.pl3     1 <0>        -1.2482
     16 H1         -0.9493    1.8902    0.3434 H         1 <0>         0.1438
     17 H2          1.1639    3.1518    0.3340 H         1 <0>         0.1535
     18 H3          3.3296   -0.4625   -0.3294 H         1 <0>         0.1559
     19 H4          1.2216   -1.7328   -0.3253 H         1 <0>         0.1439
     20 H5         -1.2208   -1.6272    0.3569 H         1 <0>         0.4254
     21 H6         -3.5754   -1.8340   -0.8889 H         1 <0>         0.1695
     22 H7         -3.8647   -1.0698    0.6925 H         1 <0>         0.1704
     23 H8         -4.7649    0.8153   -0.4576 H         1 <0>         0.4438
     24 H9         -4.4971    0.1079   -1.9214 H         1 <0>         0.4443
     25 H10         3.9273    1.9372    2.2643 H         1 <0>         0.4164
     26 H11         5.2631    2.8282    1.7698 H         1 <0>         0.4253
     27 H12        -5.5856   -0.5512   -0.8747 H         1 <0>         0.4485
@<TRIPOS>BOND
     1    1    6 ar
     2    1    2 ar
     3    1   16 1
     4    2    3 ar
     5    2   17 1
     6    3    4 ar
     7    3   12 1
     8    4    5 ar
     9    4   18 1
    10    5    6 ar
    11    5   19 1
    12    6    7 1
    13    7    8 am
    14    7   20 1
    15    8    9 2
    16    8   10 1
    17   10   11 1
    18   10   21 1
    19   10   22 1
    20   11   23 1
    21   11   24 1
    22   11   27 1
    23   12   13 2
    24   12   14 2
    25   12   15 1
    26   15   25 1
    27   15   26 1
@<TRIPOS>MOLECULE
ZINC13800620
   34    34     0     0     0
SMALL
USER_CHARGES

@<TRIPOS>ATOM
      1 C1          0.1117    1.1591   -0.7518 C.ar      1 <0>        -0.1178
      2 C2          1.2975    1.8675   -0.7558 C.ar      1 <0>        -0.0610
      3 C3          2.3811    1.4085   -0.0188 C.ar      1 <0>         0.1152
      4 C4          2.2688    0.2379    0.7203 C.ar      1 <0>        -0.0422
      5 C5          1.0805   -0.4656    0.7201 C.ar      1 <0>        -0.6565
      6 C6          0.0030   -0.0058   -0.0150 C.ar      1 <0>        -0.0214
      7 S1          0.9371   -1.9510    1.6570 S.o2      1 <0>         2.7026
      8 O1         -0.1022   -2.7113    1.0562 O.2       1 <0>        -0.9545
      9 O2          2.2548   -2.4572    1.8200 O.2       1 <0>        -0.9569
     10 N1          0.4024   -1.5282    3.1662 N.pl3     1 <0>        -1.2464
     11 N2          3.5839    2.1235   -0.0212 N.am      1 <0>        -0.6610
     12 C7          3.5686    3.4678   -0.1160 C.2       1 <0>         0.5105
     13 O3          2.5128    4.0647   -0.1030 O.2       1 <0>        -0.5166
     14 C8          4.8633    4.2293   -0.2383 C.3       1 <0>         0.0972
     15 N3          4.5796    5.6640   -0.3255 N.am      1 <0>        -0.6929
     16 C9          5.5925    6.5454   -0.4415 C.2       1 <0>         0.4999
     17 O4          6.7389    6.1509   -0.4738 O.2       1 <0>        -0.5267
     18 C10         5.3007    8.0211   -0.5312 C.3       1 <0>        -0.0244
     19 N4          6.5627    8.7635   -0.6504 N.4       1 <0>        -0.6208
     20 H1         -0.7330    1.5179   -1.3212 H         1 <0>         0.1429
     21 H2          1.3819    2.7771   -1.3318 H         1 <0>         0.1422
     22 H3          3.1099   -0.1218    1.2942 H         1 <0>         0.1487
     23 H4         -0.9252   -0.5578   -0.0135 H         1 <0>         0.1497
     24 H5         -0.1410   -2.1468    3.6791 H         1 <0>         0.4250
     25 H6          0.6326   -0.6621    3.5373 H         1 <0>         0.4167
     26 H7          4.4288    1.6516    0.0455 H         1 <0>         0.4209
     27 H8          5.4836    4.0342    0.6364 H         1 <0>         0.1174
     28 H9          5.3904    3.9080   -1.1367 H         1 <0>         0.1185
     29 H10         3.6627    5.9795   -0.2997 H         1 <0>         0.4233
     30 H11         4.6803    8.2163   -1.4059 H         1 <0>         0.1674
     31 H12         4.7736    8.3425    0.3671 H         1 <0>         0.1674
     32 H13         7.1370    8.5828    0.1593 H         1 <0>         0.4431
     33 H14         7.0506    8.4660   -1.4820 H         1 <0>         0.4431
     34 H15         6.3673    9.7516   -0.7104 H         1 <0>         0.4471
@<TRIPOS>BOND
     1    1    6 ar
     2    1    2 ar
     3    1   20 1
     4    2    3 ar
     5    2   21 1
     6    3    4 ar
     7    3   11 1
     8    4    5 ar
     9    4   22 1
    10    5    6 ar
    11    5    7 1
    12    6   23 1
    13    7    8 2
    14    7    9 2
    15    7   10 1
    16   10   24 1
    17   10   25 1
    18   11   12 am
    19   11   26 1
    20   12   13 2
    21   12   14 1
    22   14   15 1
    23   14   27 1
    24   14   28 1
    25   15   16 am
    26   15   29 1
    27   16   17 2
    28   16   18 1
    29   18   19 1
    30   18   30 1
    31   18   31 1
    32   19   32 1
    33   19   33 1
    34   19   34 1
@<TRIPOS>MOLECULE
ZINC13800632
   40    40     0     0     0
SMALL
USER_CHARGES

@<TRIPOS>ATOM
      1 C1         -0.0167    1.3781    0.0096 C.ar      1 <0>        -0.1344
      2 C2          1.1709    2.0855    0.0021 C.ar      1 <0>        -0.0140
      3 C3          2.3773    1.4107   -0.0130 C.ar      1 <0>        -0.6736
      4 C4          2.3960    0.0285   -0.0201 C.ar      1 <0>        -0.0140
      5 C5          1.2085   -0.6789   -0.0117 C.ar      1 <0>        -0.1344
      6 C6          0.0021   -0.0041    0.0020 C.ar      1 <0>        -0.0293
      7 C7         -1.2926   -0.7753    0.0107 C.3       1 <0>        -0.1007
      8 C8         -1.7450   -1.0285   -1.4288 C.3       1 <0>         0.1220
      9 N1         -3.0037   -1.7782   -1.4204 N.am      1 <0>        -0.7195
     10 C9         -3.5942   -2.1168   -2.5836 C.2       1 <0>         0.5079
     11 O1         -3.0836   -1.8008   -3.6374 O.2       1 <0>        -0.5325
     12 C10        -4.8889   -2.8880   -2.5749 C.3       1 <0>         0.0953
     13 N2         -5.3221   -3.1305   -3.9533 N.am      1 <0>        -0.6913
     14 C11        -6.4629   -3.8072   -4.1919 C.2       1 <0>         0.4989
     15 O2         -7.1309   -4.2155   -3.2656 O.2       1 <0>        -0.5296
     16 C12        -6.9085   -4.0567   -5.6097 C.3       1 <0>        -0.0248
     17 N3         -8.1706   -4.8084   -5.6013 N.4       1 <0>        -0.6205
     18 S1          3.8911    2.3124   -0.0238 S.o2      1 <0>         2.7003
     19 O3          4.8717    1.4529   -0.5884 O.2       1 <0>        -0.9604
     20 O4          3.5973    3.5927   -0.5658 O.2       1 <0>        -0.9604
     21 N4          4.3274    2.5556    1.5551 N.pl3     1 <0>        -1.2491
     22 H1         -0.9591    1.9053    0.0259 H         1 <0>         0.1356
     23 H2          1.1563    3.1654    0.0076 H         1 <0>         0.1466
     24 H3          3.3385   -0.4987   -0.0326 H         1 <0>         0.1466
     25 H4          1.2231   -1.7588   -0.0179 H         1 <0>         0.1356
     26 H5         -1.1443   -1.7285    0.5180 H         1 <0>         0.0892
     27 H6         -2.0551   -0.1993    0.5352 H         1 <0>         0.0892
     28 H7         -1.8934   -0.0752   -1.9361 H         1 <0>         0.0785
     29 H8         -0.9826   -1.6044   -1.9533 H         1 <0>         0.0785
     30 H9         -3.4120   -2.0309   -0.5776 H         1 <0>         0.4081
     31 H10        -4.7405   -3.8413   -2.0677 H         1 <0>         0.1131
     32 H11        -5.6513   -2.3121   -2.0504 H         1 <0>         0.1131
     33 H12        -4.7878   -2.8039   -4.6941 H         1 <0>         0.4232
     34 H13        -7.0568   -3.1034   -6.1170 H         1 <0>         0.1671
     35 H14        -6.1461   -4.6326   -6.1342 H         1 <0>         0.1671
     36 H15        -8.0333   -5.6909   -5.1317 H         1 <0>         0.4428
     37 H16        -8.8763   -4.2753   -5.1158 H         1 <0>         0.4428
     38 H17         3.7682    2.2150    2.2708 H         1 <0>         0.4167
     39 H18         5.1421    3.0386    1.7642 H         1 <0>         0.4234
     40 H19        -8.4689   -4.9754   -6.5506 H         1 <0>         0.4467
@<TRIPOS>BOND
     1    1    6 ar
     2    1    2 ar
     3    1   22 1
     4    2    3 ar
     5    2   23 1
     6    3    4 ar
     7    3   18 1
     8    4    5 ar
     9    4   24 1
    10    5    6 ar
    11    5   25 1
    12    6    7 1
    13    7    8 1
    14    7   26 1
    15    7   27 1
    16    8    9 1
    17    8   28 1
    18    8   29 1
    19    9   10 am
    20    9   30 1
    21   10   11 2
    22   10   12 1
    23   12   13 1
    24   12   31 1
    25   12   32 1
    26   13   14 am
    27   13   33 1
    28   14   15 2
    29   14   16 1
    30   16   17 1
    31   16   34 1
    32   16   35 1
    33   17   36 1
    34   17   37 1
    35   17   40 1
    36   18   19 2
    37   18   20 2
    38   18   21 1
    39   21   38 1
    40   21   39 1
@<TRIPOS>MOLECULE
ZINC13800629
   37    37     0     0     0
SMALL
USER_CHARGES

@<TRIPOS>ATOM
      1 C1         -0.0167    1.3781    0.0096 C.ar      1 <0>        -0.1203
      2 C2          1.1709    2.0855    0.0021 C.ar      1 <0>        -0.0171
      3 C3          2.3773    1.4107   -0.0130 C.ar      1 <0>        -0.6642
      4 C4          2.3960    0.0285   -0.0201 C.ar      1 <0>        -0.0172
      5 C5          1.2085   -0.6789   -0.0117 C.ar      1 <0>        -0.1203
      6 C6          0.0021   -0.0041    0.0020 C.ar      1 <0>        -0.0609
      7 C7         -1.2926   -0.7753    0.0107 C.3       1 <0>         0.1547
      8 N1         -1.7258   -1.0177   -1.3676 N.am      1 <0>        -0.7157
      9 C8         -2.8667   -1.6945   -1.6063 C.2       1 <0>         0.5101
     10 O1         -3.5346   -2.1028   -0.6800 O.2       1 <0>        -0.5327
     11 C9         -3.3123   -1.9439   -3.0241 C.3       1 <0>         0.0952
     12 N2         -4.5709   -2.6936   -3.0157 N.am      1 <0>        -0.6913
     13 C10        -5.1614   -3.0322   -4.1789 C.2       1 <0>         0.4986
     14 O2         -4.6508   -2.7163   -5.2327 O.2       1 <0>        -0.5286
     15 C11        -6.4561   -3.8034   -4.1703 C.3       1 <0>        -0.0245
     16 N3         -6.8905   -4.0466   -5.5523 N.4       1 <0>        -0.6207
     17 S1          3.8911    2.3124   -0.0238 S.o2      1 <0>         2.7002
     18 O3          4.8717    1.4529   -0.5884 O.2       1 <0>        -0.9585
     19 O4          3.5973    3.5927   -0.5658 O.2       1 <0>        -0.9585
     20 N4          4.3274    2.5556    1.5551 N.pl3     1 <0>        -1.2484
     21 H1         -0.9591    1.9053    0.0259 H         1 <0>         0.1379
     22 H2          1.1563    3.1654    0.0076 H         1 <0>         0.1490
     23 H3          3.3385   -0.4987   -0.0326 H         1 <0>         0.1490
     24 H4          1.2231   -1.7588   -0.0179 H         1 <0>         0.1379
     25 H5         -1.1443   -1.7285    0.5180 H         1 <0>         0.0891
     26 H6         -2.0551   -0.1993    0.5352 H         1 <0>         0.0891
     27 H7         -1.1916   -0.6912   -2.1085 H         1 <0>         0.4097
     28 H8         -3.4606   -0.9907   -3.5314 H         1 <0>         0.1137
     29 H9         -2.5498   -2.5199   -3.5486 H         1 <0>         0.1137
     30 H10        -4.9793   -2.9463   -2.1729 H         1 <0>         0.4231
     31 H11        -6.3078   -4.7567   -3.6630 H         1 <0>         0.1670
     32 H12        -7.2185   -3.2275   -3.6458 H         1 <0>         0.1670
     33 H13        -7.0278   -3.1641   -6.0219 H         1 <0>         0.4430
     34 H14        -6.1847   -4.5797   -6.0379 H         1 <0>         0.4430
     35 H15         3.7682    2.2150    2.2708 H         1 <0>         0.4171
     36 H16         5.1421    3.0386    1.7642 H         1 <0>         0.4243
     37 H17        -7.7573   -4.5629   -5.5465 H         1 <0>         0.4467
@<TRIPOS>BOND
     1    1    6 ar
     2    1    2 ar
     3    1   21 1
     4    2    3 ar
     5    2   22 1
     6    3    4 ar
     7    3   17 1
     8    4    5 ar
     9    4   23 1
    10    5    6 ar
    11    5   24 1
    12    6    7 1
    13    7    8 1
    14    7   25 1
    15    7   26 1
    16    8    9 am
    17    8   27 1
    18    9   10 2
    19    9   11 1
    20   11   12 1
    21   11   28 1
    22   11   29 1
    23   12   13 am
    24   12   30 1
    25   13   14 2
    26   13   15 1
    27   15   16 1
    28   15   31 1
    29   15   32 1
    30   16   33 1
    31   16   34 1
    32   16   37 1
    33   17   18 2
    34   17   19 2
    35   17   20 1
    36   20   35 1
    37   20   36 1
@<TRIPOS>MOLECULE
ZINC13800629
   36    36     0     0     0
SMALL
USER_CHARGES

@<TRIPOS>ATOM
      1 C1         -0.0167    1.3781    0.0096 C.ar      1 <0>        -0.1205
      2 C2          1.1709    2.0855    0.0021 C.ar      1 <0>        -0.0181
      3 C3          2.3773    1.4107   -0.0130 C.ar      1 <0>        -0.6677
      4 C4          2.3960    0.0285   -0.0201 C.ar      1 <0>        -0.0182
      5 C5          1.2085   -0.6789   -0.0117 C.ar      1 <0>        -0.1207
      6 C6          0.0021   -0.0041    0.0020 C.ar      1 <0>        -0.0534
      7 C7         -1.2926   -0.7753    0.0107 C.3       1 <0>         0.1539
      8 N1         -1.7258   -1.0177   -1.3676 N.am      1 <0>        -0.7229
      9 C8         -2.8667   -1.6945   -1.6063 C.2       1 <0>         0.5129
     10 O1         -3.5346   -2.1028   -0.6800 O.2       1 <0>        -0.5324
     11 C9         -3.3123   -1.9439   -3.0241 C.3       1 <0>         0.1013
     12 N2         -4.5709   -2.6936   -3.0157 N.am      1 <0>        -0.7231
     13 C10        -5.1614   -3.0322   -4.1789 C.2       1 <0>         0.5136
     14 O2         -4.6508   -2.7163   -5.2327 O.2       1 <0>        -0.5242
     15 C11        -6.4561   -3.8034   -4.1703 C.3       1 <0>         0.0458
     16 N3         -6.8905   -4.0466   -5.5523 N.3       1 <0>        -0.8349
     17 S1          3.8911    2.3124   -0.0238 S.o2      1 <0>         2.7011
     18 O3          4.8717    1.4529   -0.5884 O.2       1 <0>        -0.9604
     19 O4          3.5973    3.5927   -0.5658 O.2       1 <0>        -0.9603
     20 N4          4.3274    2.5556    1.5551 N.pl3     1 <0>        -1.2493
     21 H1         -0.9591    1.9053    0.0259 H         1 <0>         0.1385
     22 H2          1.1563    3.1654    0.0076 H         1 <0>         0.1476
     23 H3          3.3385   -0.4987   -0.0326 H         1 <0>         0.1475
     24 H4          1.2231   -1.7588   -0.0179 H         1 <0>         0.1383
     25 H5         -1.1443   -1.7285    0.5180 H         1 <0>         0.0862
     26 H6         -2.0551   -0.1993    0.5352 H         1 <0>         0.0863
     27 H7         -1.1916   -0.6912   -2.1085 H         1 <0>         0.4078
     28 H8         -3.4606   -0.9907   -3.5314 H         1 <0>         0.1023
     29 H9         -2.5498   -2.5199   -3.5486 H         1 <0>         0.1015
     30 H10        -4.9793   -2.9463   -2.1729 H         1 <0>         0.4126
     31 H11        -6.3078   -4.7567   -3.6630 H         1 <0>         0.0606
     32 H12        -7.2185   -3.2275   -3.6458 H         1 <0>         0.1053
     33 H13        -6.1732   -4.5229   -6.0783 H         1 <0>         0.3517
     34 H14         3.7682    2.2150    2.2708 H         1 <0>         0.4171
     35 H15         5.1421    3.0386    1.7642 H         1 <0>         0.4226
     36 H16        -7.7573   -4.5626   -5.5734 H         1 <0>         0.3516
@<TRIPOS>BOND
     1    1    6 ar
     2    1    2 ar
     3    1   21 1
     4    2    3 ar
     5    2   22 1
     6    3    4 ar
     7    3   17 1
     8    4    5 ar
     9    4   23 1
    10    5    6 ar
    11    5   24 1
    12    6    7 1
    13    7    8 1
    14    7   25 1
    15    7   26 1
    16    8    9 am
    17    8   27 1
    18    9   10 2
    19    9   11 1
    20   11   12 1
    21   11   28 1
    22   11   29 1
    23   12   13 am
    24   12   30 1
    25   13   14 2
    26   13   15 1
    27   15   16 1
    28   15   31 1
    29   15   32 1
    30   16   33 1
    31   16   36 1
    32   17   18 2
    33   17   19 2
    34   17   20 1
    35   20   34 1
    36   20   35 1
@<TRIPOS>MOLECULE
ZINC13813812
   22    22     0     0     0
SMALL
USER_CHARGES

@<TRIPOS>ATOM
      1 C1         -0.0173    1.4248    0.0099 C.3       1 <0>         0.0217
      2 O1          0.0021   -0.0041    0.0020 O.3       1 <0>        -0.3099
      3 C2          0.6258   -0.6184    1.0415 C.ar      1 <0>         0.1856
      4 C3          1.2022    0.1384    2.0513 C.ar      1 <0>        -0.2316
      5 C4          1.8353   -0.4884    3.1070 C.ar      1 <0>         0.0208
      6 C5          1.8951   -1.8688    3.1577 C.ar      1 <0>        -0.7139
      7 C6          1.3218   -2.6253    2.1523 C.ar      1 <0>         0.0270
      8 C7          0.6822   -2.0034    1.0976 C.ar      1 <0>        -0.1731
      9 S1          2.7038   -2.6653    4.5054 S.o2      1 <0>         2.7233
     10 O2          3.0980   -3.9492    4.0411 O.2       1 <0>        -0.9398
     11 O3          3.6322   -1.7279    5.0333 O.2       1 <0>        -0.9403
     12 N1          1.5645   -2.9163    5.6808 N.pl3     1 <0>        -0.9900
     13 O4          0.4798   -3.7939    5.4395 O.3       1 <0>        -0.2984
     14 H1          1.0053    1.8021    0.0021 H         1 <0>         0.0615
     15 H2         -0.5445    1.7859   -0.8732 H         1 <0>         0.1067
     16 H3         -0.5275    1.7763    0.9067 H         1 <0>         0.0608
     17 H4          1.1564    1.2167    2.0118 H         1 <0>         0.1397
     18 H5          2.2842    0.1003    3.8934 H         1 <0>         0.1439
     19 H6          1.3701   -3.7035    2.1940 H         1 <0>         0.1500
     20 H7          0.2307   -2.5948    0.3148 H         1 <0>         0.1432
     21 H8          1.6403   -2.4622    6.5346 H         1 <0>         0.4175
     22 H9         -0.1326   -3.8761    6.1834 H         1 <0>         0.3953
@<TRIPOS>BOND
     1    1    2 1
     2    1   14 1
     3    1   15 1
     4    1   16 1
     5    2    3 1
     6    3    8 ar
     7    3    4 ar
     8    4    5 ar
     9    4   17 1
    10    5    6 ar
    11    5   18 1
    12    6    7 ar
    13    6    9 1
    14    7    8 ar
    15    7   19 1
    16    8   20 1
    17    9   10 2
    18    9   11 2
    19    9   12 1
    20   12   13 1
    21   12   21 1
    22   13   22 1
@<TRIPOS>MOLECULE
ZINC13800639
   34    34     0     0     0
SMALL
USER_CHARGES

@<TRIPOS>ATOM
      1 C1          0.0647    1.2425   -0.6200 C.ar      1 <0>         0.0178
      2 C2          1.2501    1.9518   -0.6183 C.ar      1 <0>        -0.1460
      3 C3          2.3814    1.4092   -0.0241 C.ar      1 <0>         0.2275
      4 C4          2.3172    0.1533    0.5674 C.ar      1 <0>        -0.1485
      5 C5          1.1284   -0.5508    0.5622 C.ar      1 <0>         0.0386
      6 C6          0.0036   -0.0068   -0.0308 C.ar      1 <0>        -0.6880
      7 S1         -1.5105   -0.9079   -0.0355 S.o2      1 <0>         2.7036
      8 O1         -1.4470   -1.8145    1.0569 O.2       1 <0>        -0.9540
      9 O2         -2.5522    0.0491   -0.1716 O.2       1 <0>        -0.9522
     10 N1         -1.5292   -1.8269   -1.4129 N.pl3     1 <0>        -1.2457
     11 Br1         3.8550   -0.5912    1.3778 Br        1 <0>        -0.0204
     12 N2          3.5839    2.1252   -0.0212 N.am      1 <0>        -0.6615
     13 C7          3.5681    3.4696   -0.1160 C.2       1 <0>         0.5141
     14 O3          2.5120    4.0660   -0.1030 O.2       1 <0>        -0.5027
     15 C8          4.8624    4.2316   -0.2383 C.3       1 <0>         0.0976
     16 N3          4.5781    5.6662   -0.3255 N.am      1 <0>        -0.6935
     17 C9          5.5907    6.5480   -0.4415 C.2       1 <0>         0.5008
     18 O4          6.7373    6.1540   -0.4737 O.2       1 <0>        -0.5257
     19 C10         5.2983    8.0236   -0.5311 C.3       1 <0>        -0.0243
     20 N4          6.5600    8.7665   -0.6504 N.4       1 <0>        -0.6208
     21 H1         -0.8167    1.6662   -1.0782 H         1 <0>         0.1577
     22 H2          1.2969    2.9275   -1.0791 H         1 <0>         0.1637
     23 H3          1.0776   -1.5270    1.0214 H         1 <0>         0.1612
     24 H4         -2.0001   -2.6748   -1.4239 H         1 <0>         0.4256
     25 H5         -1.0691   -1.5173   -2.2088 H         1 <0>         0.4175
     26 H6          4.4288    1.6539    0.0491 H         1 <0>         0.4230
     27 H7          5.4829    4.0367    0.6364 H         1 <0>         0.1200
     28 H8          5.3896    3.9105   -1.1366 H         1 <0>         0.1212
     29 H9          3.6611    5.9813   -0.2997 H         1 <0>         0.4239
     30 H10         4.6778    8.2186   -1.4059 H         1 <0>         0.1680
     31 H11         4.7710    8.3448    0.3672 H         1 <0>         0.1680
     32 H12         7.1343    8.5860    0.1593 H         1 <0>         0.4432
     33 H13         7.0480    8.4692   -1.4819 H         1 <0>         0.4431
     34 H14         6.3642    9.7545   -0.7104 H         1 <0>         0.4474
@<TRIPOS>BOND
     1    1    6 ar
     2    1    2 ar
     3    1   21 1
     4    2    3 ar
     5    2   22 1
     6    3    4 ar
     7    3   12 1
     8    4    5 ar
     9    4   11 1
    10    5    6 ar
    11    5   23 1
    12    6    7 1
    13    7    8 2
    14    7    9 2
    15    7   10 1
    16   10   24 1
    17   10   25 1
    18   12   13 am
    19   12   26 1
    20   13   14 2
    21   13   15 1
    22   15   16 1
    23   15   27 1
    24   15   28 1
    25   16   17 am
    26   16   29 1
    27   17   18 2
    28   17   19 1
    29   19   20 1
    30   19   30 1
    31   19   31 1
    32   20   32 1
    33   20   33 1
    34   20   34 1
@<TRIPOS>MOLECULE
ZINC13800440
   27    27     0     0     0
SMALL
USER_CHARGES

@<TRIPOS>ATOM
      1 C1         -0.0193    1.3905   -0.0172 C.ar      1 <0>         0.0218
      2 C2          1.1689    2.0953   -0.0149 C.ar      1 <0>        -0.1420
      3 C3          2.3785    1.4141   -0.0231 C.ar      1 <0>         0.2140
      4 C4          2.3897    0.0244   -0.0336 C.ar      1 <0>        -0.1428
      5 C5          1.1978   -0.6742   -0.0359 C.ar      1 <0>         0.0367
      6 C6         -0.0052    0.0081   -0.0278 C.ar      1 <0>        -0.6785
      7 S1         -1.5232   -0.8865   -0.0308 S.o2      1 <0>         2.7023
      8 O1         -1.2394   -2.1697    0.5096 O.2       1 <0>        -0.9508
      9 O2         -2.5040   -0.0240    0.5290 O.2       1 <0>        -0.9517
     10 N1         -1.9489   -1.1231   -1.6135 N.pl3     1 <0>        -1.2470
     11 Br1         4.0343   -0.9090   -0.0454 Br        1 <0>        -0.0143
     12 N2          3.5839    2.1252   -0.0212 N.am      1 <0>        -0.6482
     13 C7          3.6274    3.3764    0.4780 C.2       1 <0>         0.5003
     14 O3          2.6485    3.8491    1.0159 O.2       1 <0>        -0.4979
     15 C8          4.8924    4.1881    0.3677 C.3       1 <0>        -0.0239
     16 N3          4.6838    5.5058    0.9827 N.4       1 <0>        -0.6209
     17 H1         -0.9605    1.9201   -0.0063 H         1 <0>         0.1614
     18 H2          1.1568    3.1752   -0.0070 H         1 <0>         0.1635
     19 H3          1.2054   -1.7542   -0.0444 H         1 <0>         0.1650
     20 H4         -1.3829   -0.7831   -2.3241 H         1 <0>         0.4169
     21 H5         -2.7644   -1.6017   -1.8301 H         1 <0>         0.4266
     22 H6          4.3881    1.7176   -0.3791 H         1 <0>         0.4265
     23 H7          5.7020    3.6709    0.8826 H         1 <0>         0.1718
     24 H8          5.1524    4.3147   -0.6832 H         1 <0>         0.1729
     25 H9          5.5308    6.0492    0.9088 H         1 <0>         0.4496
     26 H10         3.9344    5.9845    0.5061 H         1 <0>         0.4441
     27 H11         4.4431    5.3886    1.9555 H         1 <0>         0.4448
@<TRIPOS>BOND
     1    1    6 ar
     2    1    2 ar
     3    1   17 1
     4    2    3 ar
     5    2   18 1
     6    3    4 ar
     7    3   12 1
     8    4    5 ar
     9    4   11 1
    10    5    6 ar
    11    5   19 1
    12    6    7 1
    13    7    8 2
    14    7    9 2
    15    7   10 1
    16   10   20 1
    17   10   21 1
    18   12   13 am
    19   12   22 1
    20   13   14 2
    21   13   15 1
    22   15   16 1
    23   15   23 1
    24   15   24 1
    25   16   25 1
    26   16   26 1
    27   16   27 1
@<TRIPOS>MOLECULE
ZINC13813816
   27    27     0     0     0
SMALL
USER_CHARGES

@<TRIPOS>ATOM
      1 C1         -1.0225    1.3006    0.1902 C.3       1 <0>        -0.1255
      2 C2         -0.4783   -0.1010    0.0880 C.ar      1 <0>        -0.0164
      3 C3         -0.0873   -0.6028   -1.1393 C.ar      1 <0>        -0.1563
      4 C4          0.4119   -1.8884   -1.2331 C.ar      1 <0>         0.0385
      5 C5          0.5206   -2.6721   -0.0996 C.ar      1 <0>        -0.6904
      6 C6          0.1304   -2.1700    1.1278 C.ar      1 <0>         0.0277
      7 C7         -0.3648   -0.8829    1.2223 C.ar      1 <0>        -0.1562
      8 C8          0.2484   -3.0245    2.3635 C.3       1 <0>        -0.1370
      9 S1          1.1558   -4.3113   -0.2193 S.o2      1 <0>         2.7160
     10 O1          1.9111   -4.3673   -1.4217 O.2       1 <0>        -0.9380
     11 O2          1.7174   -4.6228    1.0483 O.2       1 <0>        -0.9381
     12 N1         -0.1381   -5.3240   -0.4255 N.pl3     1 <0>        -0.9905
     13 O3         -0.9258   -5.2364   -1.5989 O.3       1 <0>        -0.2983
     14 C9          0.8373   -2.4358   -2.5712 C.3       1 <0>        -0.1429
     15 H1         -0.2026    1.9967    0.3666 H         1 <0>         0.0804
     16 H2         -1.5281    1.5627   -0.7392 H         1 <0>         0.0733
     17 H3         -1.7305    1.3560    1.0171 H         1 <0>         0.0729
     18 H4         -0.1722    0.0095   -2.0249 H         1 <0>         0.1321
     19 H5         -0.6661   -0.4893    2.1818 H         1 <0>         0.1318
     20 H6          1.2638   -2.9596    2.7546 H         1 <0>         0.0979
     21 H7         -0.4548   -2.6716    3.1179 H         1 <0>         0.0760
     22 H8          0.0216   -4.0605    2.1119 H         1 <0>         0.0729
     23 H9         -0.3564   -5.9772    0.2575 H         1 <0>         0.4168
     24 H10        -1.6579   -5.8674   -1.6292 H         1 <0>         0.3949
     25 H11         1.9124   -2.3037   -2.6927 H         1 <0>         0.0932
     26 H12         0.5933   -3.4969   -2.6239 H         1 <0>         0.0935
     27 H13         0.3137   -1.9028   -3.3649 H         1 <0>         0.0716
@<TRIPOS>BOND
     1    1    2 1
     2    1   15 1
     3    1   16 1
     4    1   17 1
     5    2    7 ar
     6    2    3 ar
     7    3    4 ar
     8    3   18 1
     9    4    5 ar
    10    4   14 1
    11    5    6 ar
    12    5    9 1
    13    6    7 ar
    14    6    8 1
    15    7   19 1
    16    8   20 1
    17    8   21 1
    18    8   22 1
    19    9   10 2
    20    9   11 2
    21    9   12 1
    22   12   13 1
    23   12   23 1
    24   13   24 1
    25   14   25 1
    26   14   26 1
    27   14   27 1
@<TRIPOS>MOLECULE
ZINC05052128
   25    25     0     0     0
SMALL
USER_CHARGES

@<TRIPOS>ATOM
      1 C1         -2.1938    1.4701    0.6085 C.3       1 <0>        -0.1737
      2 C2         -2.1691   -0.0367    0.6077 C.2       1 <0>         0.5115
      3 O1         -3.0611   -0.6581    1.1455 O.2       1 <0>        -0.5173
      4 N1         -1.1558   -0.6938    0.0094 N.am      1 <0>        -0.6795
      5 C3         -1.0812   -2.0886    0.0915 C.ar      1 <0>         0.2024
      6 C4          0.1549   -2.7155    0.1777 C.ar      1 <0>        -0.1684
      7 C5          0.2252   -4.0924    0.2586 C.ar      1 <0>        -0.0006
      8 C6         -0.9337   -4.8468    0.2538 C.ar      1 <0>        -0.6919
      9 C7         -2.1662   -4.2257    0.1675 C.ar      1 <0>         0.0087
     10 C8         -2.2435   -2.8487    0.0926 C.ar      1 <0>        -0.1452
     11 S1         -0.8398   -6.6033    0.3571 S.o2      1 <0>         2.7219
     12 O2         -2.0382   -7.1084   -0.2156 O.2       1 <0>        -0.9390
     13 O3          0.4469   -6.9700   -0.1215 O.2       1 <0>        -0.9395
     14 N2         -0.8785   -7.0020    1.9639 N.pl3     1 <0>        -0.9897
     15 O4         -2.0366   -6.7320    2.7327 O.3       1 <0>        -0.2975
     16 H1         -3.0822    1.8186    1.1352 H         1 <0>         0.1000
     17 H2         -1.3026    1.8478    1.1098 H         1 <0>         0.0944
     18 H3         -2.2144    1.8337   -0.4188 H         1 <0>         0.0947
     19 H4         -0.4782   -0.1997   -0.4782 H         1 <0>         0.4169
     20 H5          1.0605   -2.1269    0.1812 H         1 <0>         0.1376
     21 H6          1.1863   -4.5806    0.3253 H         1 <0>         0.1455
     22 H7         -3.0695   -4.8176    0.1637 H         1 <0>         0.1464
     23 H8         -3.2065   -2.3639    0.0305 H         1 <0>         0.1495
     24 H9         -0.1078   -7.4204    2.3785 H         1 <0>         0.4176
     25 H10        -1.9649   -6.9998    3.6591 H         1 <0>         0.3954
@<TRIPOS>BOND
     1    1    2 1
     2    1   16 1
     3    1   17 1
     4    1   18 1
     5    2    3 2
     6    2    4 am
     7    4    5 1
     8    4   19 1
     9    5   10 ar
    10    5    6 ar
    11    6    7 ar
    12    6   20 1
    13    7    8 ar
    14    7   21 1
    15    8    9 ar
    16    8   11 1
    17    9   10 ar
    18    9   22 1
    19   10   23 1
    20   11   12 2
    21   11   13 2
    22   11   14 1
    23   14   15 1
    24   14   24 1
    25   15   25 1
@<TRIPOS>MOLECULE
ZINC06093148
   18    18     0     0     0
SMALL
USER_CHARGES

@<TRIPOS>ATOM
      1 C1         -0.0167    1.3782    0.0096 C.ar      1 <0>        -0.0141
      2 C2          1.1707    2.0857    0.0021 C.ar      1 <0>        -0.1140
      3 C3          2.3778    1.4105   -0.0131 C.ar      1 <0>        -0.0371
      4 C4          2.3961    0.0274   -0.0207 C.ar      1 <0>        -0.1132
      5 C5          1.2082   -0.6793   -0.0132 C.ar      1 <0>        -0.0046
      6 C6          0.0021   -0.0041    0.0020 C.ar      1 <0>        -0.6653
      7 S1         -1.5119   -0.9055    0.0117 S.o2      1 <0>         2.7212
      8 O1         -1.2185   -2.1862    0.5528 O.2       1 <0>        -0.9340
      9 O2         -2.4926   -0.0462    0.5765 O.2       1 <0>        -0.9338
     10 N1         -1.9477   -1.1475   -1.5675 N.pl3     1 <0>        -0.9880
     11 O3         -1.1416   -1.9518   -2.4092 O.3       1 <0>        -0.2981
     12 Br1         4.0026    2.3779   -0.0240 Br        1 <0>        -0.0309
     13 H1         -0.9592    1.9053    0.0260 H         1 <0>         0.1512
     14 H2          1.1559    3.1656    0.0077 H         1 <0>         0.1455
     15 H3          3.3384   -0.5003   -0.0329 H         1 <0>         0.1458
     16 H4          1.2224   -1.7592   -0.0191 H         1 <0>         0.1528
     17 H5         -2.7552   -0.7383   -1.9160 H         1 <0>         0.4194
     18 H6         -1.4765   -2.0345   -3.3126 H         1 <0>         0.3971
@<TRIPOS>BOND
     1    1    6 ar
     2    1    2 ar
     3    1   13 1
     4    2    3 ar
     5    2   14 1
     6    3    4 ar
     7    3   12 1
     8    4    5 ar
     9    4   15 1
    10    5    6 ar
    11    5   16 1
    12    6    7 1
    13    7    8 2
    14    7    9 2
    15    7   10 1
    16   10   11 1
    17   10   17 1
    18   11   18 1
@<TRIPOS>MOLECULE
ZINC13800495
   33    33     0     0     0
SMALL
USER_CHARGES

@<TRIPOS>ATOM
      1 C1         -0.0178    1.4648    0.0101 C.3       1 <0>        -0.0465
      2 N1          0.0021   -0.0041    0.0020 N.4       1 <0>        -0.4962
      3 C2          0.6897   -0.4778   -1.2066 C.3       1 <0>        -0.0300
      4 C3          0.7101   -1.9847   -1.2149 C.2       1 <0>         0.4970
      5 O1          0.2019   -2.6030   -0.3037 O.2       1 <0>        -0.5251
      6 N2          1.2931   -2.6451   -2.2349 N.am      1 <0>        -0.7008
      7 C4          1.3130   -4.1099   -2.2429 C.3       1 <0>         0.1530
      8 C5          2.0183   -4.5959   -3.4828 C.ar      1 <0>        -0.0682
      9 C6          1.3004   -4.8243   -4.6418 C.ar      1 <0>        -0.1192
     10 C7          1.9474   -5.2701   -5.7791 C.ar      1 <0>        -0.0166
     11 C8          3.3125   -5.4871   -5.7576 C.ar      1 <0>        -0.6604
     12 C9          4.0306   -5.2578   -4.5989 C.ar      1 <0>        -0.0165
     13 C10         3.3842   -4.8079   -3.4628 C.ar      1 <0>        -0.1193
     14 S1          4.1370   -6.0564   -7.2070 S.o2      1 <0>         2.6982
     15 O2          5.3253   -6.7023   -6.7710 O.2       1 <0>        -0.9550
     16 O3          3.1582   -6.7156   -7.9986 O.2       1 <0>        -0.9550
     17 N3          4.6112   -4.7176   -8.0584 N.pl3     1 <0>        -1.2482
     18 H1          1.0047    1.8421    0.0024 H         1 <0>         0.1264
     19 H2         -0.5450    1.8259   -0.8730 H         1 <0>         0.1265
     20 H3         -0.5280    1.8163    0.9069 H         1 <0>         0.1333
     21 H4          0.4901   -0.3383    0.8195 H         1 <0>         0.4381
     22 H5          0.1625   -0.1167   -2.0897 H         1 <0>         0.1627
     23 H6          1.7123   -0.1005   -1.2143 H         1 <0>         0.1627
     24 H7          1.6995   -2.1505   -2.9637 H         1 <0>         0.4130
     25 H8          1.8402   -4.4710   -1.3599 H         1 <0>         0.0950
     26 H9          0.2904   -4.4872   -2.2352 H         1 <0>         0.0950
     27 H10         0.2339   -4.6548   -4.6586 H         1 <0>         0.1382
     28 H11         1.3864   -5.4493   -6.6844 H         1 <0>         0.1506
     29 H12         5.0970   -5.4277   -4.5819 H         1 <0>         0.1506
     30 H13         3.9458   -4.6253   -2.5585 H         1 <0>         0.1382
     31 H14         4.4130   -3.8311   -7.7181 H         1 <0>         0.4152
     32 H15         5.0871   -4.8198   -8.8974 H         1 <0>         0.4252
     33 H16        -0.9445   -0.3533    0.0092 H         1 <0>         0.4381
@<TRIPOS>BOND
     1    1    2 1
     2    1   18 1
     3    1   19 1
     4    1   20 1
     5    2    3 1
     6    2   21 1
     7    2   33 1
     8    3    4 1
     9    3   22 1
    10    3   23 1
    11    4    5 2
    12    4    6 am
    13    6    7 1
    14    6   24 1
    15    7    8 1
    16    7   25 1
    17    7   26 1
    18    8   13 ar
    19    8    9 ar
    20    9   10 ar
    21    9   27 1
    22   10   11 ar
    23   10   28 1
    24   11   12 ar
    25   11   14 1
    26   12   13 ar
    27   12   29 1
    28   13   30 1
    29   14   15 2
    30   14   16 2
    31   14   17 1
    32   17   31 1
    33   17   32 1
@<TRIPOS>MOLECULE
ZINC13800623
   34    34     0     0     0
SMALL
USER_CHARGES

@<TRIPOS>ATOM
      1 C1          1.0722   -0.4527   -0.7660 C.ar      1 <0>        -0.1426
      2 C2          2.2561    0.2585   -0.7779 C.ar      1 <0>         0.0038
      3 C3          2.3763    1.4164   -0.0315 C.ar      1 <0>        -0.6859
      4 C4          1.3123    1.8662    0.7286 C.ar      1 <0>         0.0058
      5 C5          0.1256    1.1598    0.7444 C.ar      1 <0>        -0.1610
      6 C6          0.0017   -0.0036   -0.0037 C.ar      1 <0>         0.1958
      7 N1         -1.1992   -0.7216    0.0101 N.am      1 <0>        -0.6655
      8 C7         -1.1825   -2.0648   -0.0990 C.2       1 <0>         0.5106
      9 O1         -0.1253   -2.6591   -0.1129 O.2       1 <0>        -0.5077
     10 C8         -2.4775   -2.8284   -0.2038 C.3       1 <0>         0.0979
     11 N2         -2.1922   -4.2613   -0.3114 N.am      1 <0>        -0.6934
     12 C9         -3.2052   -5.1441   -0.4167 C.2       1 <0>         0.5006
     13 O2         -4.3529   -4.7522   -0.4223 O.2       1 <0>        -0.5270
     14 C10        -2.9117   -6.6181   -0.5274 C.3       1 <0>        -0.0245
     15 N3         -4.1740   -7.3624   -0.6295 N.4       1 <0>        -0.6207
     16 S1          3.8887    2.3202   -0.0484 S.o2      1 <0>         2.7021
     17 O3          3.9280    3.0689    1.1587 O.2       1 <0>        -0.9590
     18 O4          4.9089    1.3981   -0.4064 O.2       1 <0>        -0.9598
     19 N4          3.7889    3.4186   -1.2837 N.pl3     1 <0>        -1.2491
     20 H1          0.9775   -1.3547   -1.3524 H         1 <0>         0.1439
     21 H2          3.0889   -0.0902   -1.3705 H         1 <0>         0.1504
     22 H3          1.4094    2.7707    1.3107 H         1 <0>         0.1526
     23 H4         -0.7050    1.5114    1.3385 H         1 <0>         0.1417
     24 H5         -2.0437   -0.2526    0.0982 H         1 <0>         0.4217
     25 H6         -3.0811   -2.6439    0.6849 H         1 <0>         0.1176
     26 H7         -3.0230   -2.4991   -1.0882 H         1 <0>         0.1190
     27 H8         -1.2743   -4.5747   -0.3069 H         1 <0>         0.4238
     28 H9         -2.3082   -6.8026   -1.4161 H         1 <0>         0.1678
     29 H10        -2.3663   -6.9474    0.3570 H         1 <0>         0.1677
     30 H11        -4.7327   -7.1916    0.1932 H         1 <0>         0.4431
     31 H12        -4.6789   -7.0576   -1.4482 H         1 <0>         0.4430
     32 H13         2.9892    3.4617   -1.8309 H         1 <0>         0.4164
     33 H14         4.5302    4.0189   -1.4600 H         1 <0>         0.4237
     34 H15        -3.9775   -8.3493   -0.7036 H         1 <0>         0.4473
@<TRIPOS>BOND
     1    1    6 ar
     2    1    2 ar
     3    1   20 1
     4    2    3 ar
     5    2   21 1
     6    3    4 ar
     7    3   16 1
     8    4    5 ar
     9    4   22 1
    10    5    6 ar
    11    5   23 1
    12    6    7 1
    13    7    8 am
    14    7   24 1
    15    8    9 2
    16    8   10 1
    17   10   11 1
    18   10   25 1
    19   10   26 1
    20   11   12 am
    21   11   27 1
    22   12   13 2
    23   12   14 1
    24   14   15 1
    25   14   28 1
    26   14   29 1
    27   15   30 1
    28   15   31 1
    29   15   34 1
    30   16   17 2
    31   16   18 2
    32   16   19 1
    33   19   32 1
    34   19   33 1
@<TRIPOS>MOLECULE
ZINC13800497
   36    36     0     0     0
SMALL
USER_CHARGES

@<TRIPOS>ATOM
      1 C1         -0.0178    1.4648    0.0101 C.3       1 <0>        -0.0465
      2 N1          0.0021   -0.0041    0.0020 N.4       1 <0>        -0.4963
      3 C2          0.6897   -0.4778   -1.2066 C.3       1 <0>        -0.0304
      4 C3          0.7101   -1.9847   -1.2149 C.2       1 <0>         0.4963
      5 O1          0.2019   -2.6030   -0.3037 O.2       1 <0>        -0.5267
      6 N2          1.2931   -2.6451   -2.2349 N.am      1 <0>        -0.7046
      7 C4          1.3130   -4.1099   -2.2429 C.3       1 <0>         0.1191
      8 C5          2.0291   -4.6034   -3.5017 C.3       1 <0>        -0.1006
      9 C6          2.0495   -6.1102   -3.5100 C.ar      1 <0>        -0.0342
     10 C7          3.0984   -6.7905   -2.9201 C.ar      1 <0>        -0.1340
     11 C8          3.1172   -8.1726   -2.9277 C.ar      1 <0>        -0.0134
     12 C9          2.0868   -8.8746   -3.5248 C.ar      1 <0>        -0.6712
     13 C10         1.0375   -8.1943   -4.1139 C.ar      1 <0>        -0.0133
     14 C11         1.0166   -6.8122   -4.1025 C.ar      1 <0>        -0.1340
     15 S1          2.1113  -10.6364   -3.5355 S.o2      1 <0>         2.6992
     16 O2          1.3078  -11.0471   -4.6333 O.2       1 <0>        -0.9582
     17 O3          3.4715  -11.0245   -3.3998 O.2       1 <0>        -0.9582
     18 N3          1.3348  -11.1452   -2.1642 N.pl3     1 <0>        -1.2490
     19 H1          1.0047    1.8421    0.0024 H         1 <0>         0.1265
     20 H2         -0.5450    1.8259   -0.8730 H         1 <0>         0.1265
     21 H3         -0.5280    1.8163    0.9069 H         1 <0>         0.1331
     22 H4          0.4901   -0.3383    0.8195 H         1 <0>         0.4379
     23 H5          0.1625   -0.1167   -2.0897 H         1 <0>         0.1626
     24 H6          1.7123   -0.1005   -1.2143 H         1 <0>         0.1626
     25 H7          1.6995   -2.1505   -2.9637 H         1 <0>         0.4127
     26 H8          1.8402   -4.4710   -1.3599 H         1 <0>         0.0842
     27 H9          0.2904   -4.4872   -2.2352 H         1 <0>         0.0842
     28 H10         1.5019   -4.2423   -4.3848 H         1 <0>         0.0906
     29 H11         3.0517   -4.2261   -3.5095 H         1 <0>         0.0907
     30 H12         3.9034   -6.2420   -2.4537 H         1 <0>         0.1356
     31 H13         3.9370   -8.7041   -2.4675 H         1 <0>         0.1477
     32 H14         0.2326   -8.7428   -4.5807 H         1 <0>         0.1477
     33 H15         0.1949   -6.2808   -4.5595 H         1 <0>         0.1356
     34 H16         0.9733  -10.4948   -1.5419 H         1 <0>         0.4158
     35 H17         1.2415  -12.0936   -1.9832 H         1 <0>         0.4241
     36 H18        -0.9445   -0.3533    0.0092 H         1 <0>         0.4379
@<TRIPOS>BOND
     1    1    2 1
     2    1   19 1
     3    1   20 1
     4    1   21 1
     5    2    3 1
     6    2   22 1
     7    2   36 1
     8    3    4 1
     9    3   23 1
    10    3   24 1
    11    4    5 2
    12    4    6 am
    13    6    7 1
    14    6   25 1
    15    7    8 1
    16    7   26 1
    17    7   27 1
    18    8    9 1
    19    8   28 1
    20    8   29 1
    21    9   14 ar
    22    9   10 ar
    23   10   11 ar
    24   10   30 1
    25   11   12 ar
    26   11   31 1
    27   12   13 ar
    28   12   15 1
    29   13   14 ar
    30   13   32 1
    31   14   33 1
    32   15   16 2
    33   15   17 2
    34   15   18 1
    35   18   34 1
    36   18   35 1
@<TRIPOS>MOLECULE
ZINC13800430
   27    27     0     0     0
SMALL
USER_CHARGES

@<TRIPOS>ATOM
      1 C1         -0.0126    1.3748   -0.1792 C.ar      1 <0>        -0.1169
      2 C2          1.1745    2.0810   -0.1820 C.ar      1 <0>        -0.0573
      3 C3          2.3796    1.4110   -0.0183 C.ar      1 <0>         0.1001
      4 C4          2.3872    0.0321    0.1478 C.ar      1 <0>        -0.0313
      5 C5          1.1970   -0.6681    0.1498 C.ar      1 <0>        -0.6553
      6 C6         -0.0017    0.0022   -0.0136 C.ar      1 <0>        -0.0144
      7 S1          1.2055   -2.4175    0.3599 S.o2      1 <0>         2.7019
      8 O1          0.0026   -2.9022   -0.2210 O.2       1 <0>        -0.9514
      9 O2          2.4874   -2.8700   -0.0537 O.2       1 <0>        -0.9578
     10 N1          1.0999   -2.7160    1.9853 N.pl3     1 <0>        -1.2481
     11 N2          3.5839    2.1235   -0.0212 N.am      1 <0>        -0.6443
     12 C7          3.6280    3.3746    0.4780 C.2       1 <0>         0.4956
     13 O3          2.6493    3.8477    1.0159 O.2       1 <0>        -0.5118
     14 C8          4.8932    4.1858    0.3677 C.3       1 <0>        -0.0239
     15 N3          4.6852    5.5035    0.9826 N.4       1 <0>        -0.6212
     16 H1         -0.9506    1.8959   -0.3019 H         1 <0>         0.1466
     17 H2          1.1654    3.1532   -0.3118 H         1 <0>         0.1424
     18 H3          3.3229   -0.4920    0.2751 H         1 <0>         0.1514
     19 H4         -0.9312   -0.5478   -0.0118 H         1 <0>         0.1538
     20 H5          1.0482   -1.9771    2.6117 H         1 <0>         0.4165
     21 H6          1.0898   -3.6296    2.3111 H         1 <0>         0.4258
     22 H7          4.3871    1.7169   -0.3824 H         1 <0>         0.4248
     23 H8          5.7026    3.6682    0.8826 H         1 <0>         0.1693
     24 H9          5.1533    4.3122   -0.6833 H         1 <0>         0.1700
     25 H10         3.9359    5.9826    0.5060 H         1 <0>         0.4434
     26 H11         4.4445    5.3865    1.9555 H         1 <0>         0.4438
     27 H12         5.5324    6.0467    0.9088 H         1 <0>         0.4482
@<TRIPOS>BOND
     1    1    6 ar
     2    1    2 ar
     3    1   16 1
     4    2    3 ar
     5    2   17 1
     6    3    4 ar
     7    3   11 1
     8    4    5 ar
     9    4   18 1
    10    5    6 ar
    11    5    7 1
    12    6   19 1
    13    7    8 2
    14    7    9 2
    15    7   10 1
    16   10   20 1
    17   10   21 1
    18   11   12 am
    19   11   22 1
    20   12   13 2
    21   12   14 1
    22   14   15 1
    23   14   23 1
    24   14   24 1
    25   15   25 1
    26   15   26 1
    27   15   27 1
@<TRIPOS>MOLECULE
ZINC05674705
   31    32     0     0     0
SMALL
USER_CHARGES

@<TRIPOS>ATOM
      1 C1         -0.0125    1.3743    0.1934 C.ar      1 <0>        -0.1424
      2 C2          1.1737    2.0815    0.1906 C.ar      1 <0>         0.0020
      3 C3          2.3739    1.4209    0.0027 C.ar      1 <0>        -0.6907
      4 C4          2.3907    0.0507   -0.1834 C.ar      1 <0>         0.0063
      5 C5          1.2080   -0.6625   -0.1816 C.ar      1 <0>        -0.1607
      6 C6          0.0009   -0.0020    0.0073 C.ar      1 <0>         0.2016
      7 N1         -1.1986   -0.7213    0.0101 N.am      1 <0>        -0.6606
      8 C7         -2.3244   -0.1561   -0.4690 C.2       1 <0>         0.5742
      9 O1         -2.2792    0.9414   -0.9910 O.2       1 <0>        -0.4697
     10 C8         -3.6104   -0.8681   -0.3602 C.ar      1 <0>        -0.1644
     11 C9         -4.4232   -0.6836    0.7643 C.ar      1 <0>         0.1618
     12 C10        -5.6285   -1.3542    0.8598 C.ar      1 <0>         0.0613
     13 C11        -6.0328   -2.2087   -0.1556 C.ar      1 <0>         0.1211
     14 C12        -5.2320   -2.3961   -1.2729 C.ar      1 <0>         0.0614
     15 C13        -4.0270   -1.7273   -1.3837 C.ar      1 <0>         0.1610
     16 F1         -3.2510   -1.9065   -2.4750 F         1 <0>        -0.0891
     17 F2         -5.6330   -3.2300   -2.2572 F         1 <0>        -0.0911
     18 F3         -7.2113   -2.8616   -0.0557 F         1 <0>        -0.0858
     19 F4         -6.4142   -1.1772    1.9445 F         1 <0>        -0.0912
     20 F5         -4.0305    0.1476    1.7544 F         1 <0>        -0.0897
     21 S1          3.8851    2.3270   -0.0003 S.o2      1 <0>         2.7036
     22 O2          4.8208    1.5538   -0.7391 O.2       1 <0>        -0.9615
     23 O3          3.5561    3.6642   -0.3510 O.2       1 <0>        -0.9584
     24 N2          4.4340    2.3687    1.5615 N.pl3     1 <0>        -1.2479
     25 H1         -0.9492    1.8903    0.3447 H         1 <0>         0.1464
     26 H2          1.1639    3.1518    0.3349 H         1 <0>         0.1500
     27 H3          3.3296   -0.4622   -0.3306 H         1 <0>         0.1505
     28 H4          1.2217   -1.7325   -0.3273 H         1 <0>         0.1415
     29 H5         -1.2202   -1.6269    0.3568 H         1 <0>         0.4210
     30 H6          5.3865    2.4110    1.7399 H         1 <0>         0.4224
     31 H7          3.8030    2.3509    2.2980 H         1 <0>         0.4173
@<TRIPOS>BOND
     1    1    6 ar
     2    1    2 ar
     3    1   25 1
     4    2    3 ar
     5    2   26 1
     6    3    4 ar
     7    3   21 1
     8    4    5 ar
     9    4   27 1
    10    5    6 ar
    11    5   28 1
    12    6    7 1
    13    7    8 am
    14    7   29 1
    15    8    9 2
    16    8   10 1
    17   10   15 ar
    18   10   11 ar
    19   11   12 ar
    20   11   20 1
    21   12   13 ar
    22   12   19 1
    23   13   14 ar
    24   13   18 1
    25   14   15 ar
    26   14   17 1
    27   15   16 1
    28   21   22 2
    29   21   23 2
    30   21   24 1
    31   24   30 1
    32   24   31 1
@<TRIPOS>MOLECULE
ZINC05582846
   31    32     0     0     0
SMALL
USER_CHARGES

@<TRIPOS>ATOM
      1 C1         -0.0166    1.3766    0.0096 C.ar      1 <0>        -0.0187
      2 C2          1.1707    2.0859    0.0021 C.ar      1 <0>        -0.2357
      3 C3          2.3799    1.4157   -0.0135 C.ar      1 <0>         0.0159
      4 C4          2.4059    0.0347   -0.0211 C.ar      1 <0>        -0.7341
      5 C5          1.2154   -0.6807   -0.0131 C.ar      1 <0>         0.3668
      6 C6          0.0021   -0.0041    0.0020 C.ar      1 <0>        -0.2687
      7 N1          1.2380   -2.0772   -0.0208 N.2       1 <0>        -1.0729
      8 S1         -0.1825   -2.9284   -0.0112 S.o2      1 <0>         2.6112
      9 O1         -0.8016   -2.6713    1.2417 O.2       1 <0>        -0.9953
     10 O2         -0.8263   -2.6580   -1.2488 O.2       1 <0>        -0.9915
     11 C7          0.2357   -4.6400   -0.0245 C.ar      1 <0>        -0.6706
     12 C8          0.3935   -5.3041   -1.2286 C.ar      1 <0>         0.2281
     13 C9          0.7224   -6.6504   -1.2399 C.ar      1 <0>         0.0271
     14 C10         0.8933   -7.3316   -0.0454 C.ar      1 <0>         0.1361
     15 C11         0.7351   -6.6660    1.1596 C.ar      1 <0>         0.0250
     16 C12         0.4117   -5.3183    1.1691 C.ar      1 <0>         0.2228
     17 F1          0.2633   -4.6676    2.3438 F         1 <0>        -0.0747
     18 F2          0.9015   -7.3291    2.3248 F         1 <0>        -0.1025
     19 F3          1.2135   -8.6441   -0.0556 F         1 <0>        -0.0949
     20 F4          0.8760   -7.2986   -2.4153 F         1 <0>        -0.1012
     21 F5          0.2264   -4.6399   -2.3931 F         1 <0>        -0.0714
     22 S2          3.9474   -0.8184   -0.0415 S.o2      1 <0>         2.7209
     23 O3          3.8584   -1.7934   -1.0714 O.2       1 <0>        -0.9588
     24 O4          4.9622    0.1761   -0.0196 O.2       1 <0>        -1.0032
     25 N2          4.0669   -1.6480    1.3867 N.pl3     1 <0>        -1.2421
     26 H1         -0.9594    1.9032    0.0259 H         1 <0>         0.1123
     27 H2          1.1532    3.1658    0.0080 H         1 <0>         0.1138
     28 H3          3.3052    1.9726   -0.0200 H         1 <0>         0.1287
     29 H4         -0.9254   -0.5574    0.0082 H         1 <0>         0.1061
     30 H5          4.5657   -2.4790    1.4246 H         1 <0>         0.4101
     31 H6          3.6379   -1.3030    2.1854 H         1 <0>         0.4115
@<TRIPOS>BOND
     1    1    6 ar
     2    1    2 ar
     3    1   26 1
     4    2    3 ar
     5    2   27 1
     6    3    4 ar
     7    3   28 1
     8    4    5 ar
     9    4   22 1
    10    5    6 ar
    11    5    7 1
    12    6   29 1
    13    7    8 1
    14    8    9 2
    15    8   10 2
    16    8   11 1
    17   11   16 ar
    18   11   12 ar
    19   12   13 ar
    20   12   21 1
    21   13   14 ar
    22   13   20 1
    23   14   15 ar
    24   14   19 1
    25   15   16 ar
    26   15   18 1
    27   16   17 1
    28   22   23 2
    29   22   24 2
    30   22   25 1
    31   25   30 1
    32   25   31 1
@<TRIPOS>MOLECULE
ZINC13835285
   22    22     0     0     0
SMALL
USER_CHARGES

@<TRIPOS>ATOM
      1 C1         -0.0178    1.4608    0.0101 C.3       1 <0>         0.0951
      2 N1          0.0021   -0.0041    0.0020 N.pl3     1 <0>        -0.3942
      3 C2         -1.1683   -0.7294    0.0041 C.2       1 <0>         0.4784
      4 N2         -2.4102   -0.3097    0.0123 N.2       1 <0>        -0.9586
      5 S1         -3.6538   -1.4032    0.0128 S.o2      1 <0>         2.5553
      6 O1         -3.5341   -2.0891   -1.2259 O.2       1 <0>        -0.8883
      7 O2         -3.5220   -2.1016    1.2433 O.2       1 <0>        -0.8850
      8 C3         -5.1615   -0.3945    0.0254 C.3       1 <0>         0.0038
      9 F1         -5.1879    0.4187   -1.1127 F         1 <0>        -0.1541
     10 F2         -6.2825   -1.2315    0.0266 F         1 <0>        -0.1605
     11 F3         -5.1767    0.4071    1.1718 F         1 <0>        -0.1533
     12 S2         -0.5322   -2.3988   -0.0082 S.3       1 <0>         0.0587
     13 C4          1.2071   -1.9958   -0.0149 C.2       1 <0>        -0.3130
     14 N3          1.1910   -0.6969   -0.0136 N.2       1 <0>        -0.1480
     15 S3          2.5932   -3.0836   -0.0270 S.o2      1 <0>         2.5851
     16 O3          2.3021   -4.1018   -0.9744 O.2       1 <0>        -1.0206
     17 O4          3.7510   -2.2650   -0.1199 O.2       1 <0>        -1.0145
     18 N4          2.6513   -3.8191    1.4556 N.2       1 <0>        -1.3113
     19 H1          1.0048    1.8381    0.0023 H         1 <0>         0.1050
     20 H2         -0.5450    1.8219   -0.8730 H         1 <0>         0.0904
     21 H3         -0.5280    1.8123    0.9069 H         1 <0>         0.0915
     22 H4          3.3510   -4.4619    1.6510 H         1 <0>         0.3380
@<TRIPOS>BOND
     1    1    2 1
     2    1   19 1
     3    1   20 1
     4    1   21 1
     5    2   14 1
     6    2    3 1
     7    3    4 2
     8    3   12 1
     9    4    5 1
    10    5    6 2
    11    5    7 2
    12    5    8 1
    13    8    9 1
    14    8   10 1
    15    8   11 1
    16   12   13 1
    17   13   14 2
    18   13   15 1
    19   15   16 2
    20   15   17 2
    21   15   18 1
    22   18   22 1
@<TRIPOS>MOLECULE
ZINC53219668
   22    22     0     0     0
SMALL
USER_CHARGES

@<TRIPOS>ATOM
      1 C1         -0.0390    1.4214   -0.3100 C.3       1 <0>        -0.0167
      2 N1         -0.0537   -0.0428   -0.3567 N.pl3     1 <0>        -0.4328
      3 C2         -1.2054   -0.7495   -0.0918 C.2       1 <0>         0.4466
      4 N2         -2.3999   -0.3107    0.2228 N.2       1 <0>        -0.9369
      5 S1         -2.7371    1.3082    0.1348 S.o2      1 <0>         2.5401
      6 O1         -1.9107    1.9051    1.1247 O.2       1 <0>        -0.9072
      7 O2         -2.5763    1.6379   -1.2381 O.2       1 <0>        -0.9059
      8 C3         -4.4820    1.4475    0.6106 C.3       1 <0>         0.0120
      9 F1         -4.6524    0.9533    1.9083 F         1 <0>        -0.1506
     10 F2         -4.8711    2.7907    0.5684 F         1 <0>        -0.1615
     11 F3         -5.2683    0.7061   -0.2778 F         1 <0>        -0.1514
     12 S2         -0.6272   -2.4277   -0.2946 S.3       1 <0>         0.2084
     13 C4          1.0686   -2.0520   -0.7075 C.2       1 <0>        -0.3452
     14 N3          1.0818   -0.7536   -0.6721 N.2       1 <0>        -0.1508
     15 S3          2.3877   -3.1606   -1.0758 S.o2      1 <0>         2.5881
     16 O3          1.8568   -4.1474   -1.9497 O.2       1 <0>        -1.0228
     17 O4          3.5075   -2.3581   -1.4238 O.2       1 <0>        -1.0150
     18 N4          2.7817   -3.9379    0.3323 N.2       1 <0>        -1.3130
     19 H1          0.9427    1.7847   -0.6139 H         1 <0>         0.1254
     20 H2         -0.7974    1.8141   -0.9873 H         1 <0>         0.1064
     21 H3         -0.2513    1.7547    0.7058 H         1 <0>         0.1449
     22 H4          3.4935   -4.5968    0.3398 H         1 <0>         0.3377
@<TRIPOS>BOND
     1    1    2 1
     2    1   19 1
     3    1   20 1
     4    1   21 1
     5    2   14 1
     6    2    3 1
     7    3    4 2
     8    3   12 1
     9    4    5 1
    10    5    6 2
    11    5    7 2
    12    5    8 1
    13    8    9 1
    14    8   10 1
    15    8   11 1
    16   12   13 1
    17   13   14 2
    18   13   15 1
    19   15   16 2
    20   15   17 2
    21   15   18 1
    22   18   22 1
@<TRIPOS>MOLECULE
ZINC05579305
   19    19     0     0     0
SMALL
USER_CHARGES

@<TRIPOS>ATOM
      1 C1         -0.0222    1.7864    0.0119 C.2       1 <0>         0.4311
      2 N1          1.2813    2.0320    0.0007 N.2       1 <0>        -0.4127
      3 N2          2.1329    1.1018   -0.0124 N.2       1 <0>        -0.1089
      4 C2          1.7849   -0.1689   -0.0159 C.2       1 <0>        -0.6279
      5 S1          0.0021   -0.0041    0.0020 S.3       1 <0>         0.0425
      6 S2          2.7879   -1.6175   -0.0337 S.o2      1 <0>         2.7656
      7 O1          3.1517   -1.8762    1.3153 O.2       1 <0>        -0.9578
      8 O2          2.1073   -2.5728   -0.8358 O.2       1 <0>        -0.9596
      9 N3          4.1854   -1.2355   -0.8359 N.pl3     1 <0>        -1.2439
     10 N4         -1.0958    2.6643    0.0316 N.2       1 <0>        -0.9780
     11 S3         -0.8288    4.2987    0.0365 S.o2      1 <0>         2.5479
     12 O3         -0.1581    4.5528    1.2632 O.2       1 <0>        -0.9174
     13 O4         -0.1928    4.5659   -1.2058 O.2       1 <0>        -0.9182
     14 C3         -2.4837    5.0412    0.0637 C.3       1 <0>        -0.0095
     15 F1         -3.1630    4.6243    1.2135 F         1 <0>        -0.1605
     16 F2         -2.3691    6.4355    0.0695 F         1 <0>        -0.1736
     17 F3         -3.1951    4.6365   -1.0708 F         1 <0>        -0.1606
     18 H1          4.3135   -0.3408   -1.1879 H         1 <0>         0.4228
     19 H2          4.8758   -1.9066   -0.9538 H         1 <0>         0.4186
@<TRIPOS>BOND
     1    1    5 1
     2    1    2 2
     3    1   10 1
     4    2    3 1
     5    3    4 2
     6    4    5 1
     7    4    6 1
     8    6    7 2
     9    6    8 2
    10    6    9 1
    11    9   18 1
    12    9   19 1
    13   10   11 1
    14   11   12 2
    15   11   13 2
    16   11   14 1
    17   14   15 1
    18   14   16 1
    19   14   17 1
@<TRIPOS>MOLECULE
ZINC05579305
   18    18     0     0     0
SMALL
USER_CHARGES

@<TRIPOS>ATOM
      1 C1         -0.0222    1.7864    0.0119 C.2       1 <0>         0.4104
      2 N1          1.2813    2.0320    0.0007 N.2       1 <0>        -0.4290
      3 N2          2.1329    1.1018   -0.0124 N.2       1 <0>        -0.1288
      4 C2          1.7849   -0.1689   -0.0159 C.2       1 <0>        -0.4789
      5 S1          0.0021   -0.0041    0.0020 S.3       1 <0>        -0.0398
      6 S2          2.7879   -1.6175   -0.0337 S.o2      1 <0>         2.6318
      7 O1          3.1517   -1.8762    1.3153 O.2       1 <0>        -1.0595
      8 O2          2.1073   -2.5728   -0.8358 O.2       1 <0>        -1.0607
      9 N3          4.1854   -1.2355   -0.8359 N.2       1 <0>        -1.3303
     10 N4         -1.0958    2.6643    0.0316 N.2       1 <0>        -0.9921
     11 S3         -0.8288    4.2987    0.0365 S.o2      1 <0>         2.5342
     12 O3         -0.1581    4.5528    1.2632 O.2       1 <0>        -0.9276
     13 O4         -0.1928    4.5659   -1.2058 O.2       1 <0>        -0.9267
     14 C3         -2.4837    5.0412    0.0637 C.3       1 <0>        -0.0124
     15 F1         -3.1630    4.6243    1.2135 F         1 <0>        -0.1638
     16 F2         -2.3691    6.4355    0.0695 F         1 <0>        -0.1807
     17 F3         -3.1951    4.6365   -1.0708 F         1 <0>        -0.1635
     18 H1          4.8758   -1.9066   -0.9538 H         1 <0>         0.3175
@<TRIPOS>BOND
     1    1    5 1
     2    1    2 2
     3    1   10 1
     4    2    3 1
     5    3    4 2
     6    4    5 1
     7    4    6 1
     8    6    7 2
     9    6    8 2
    10    6    9 1
    11    9   18 1
    12   10   11 1
    13   11   12 2
    14   11   13 2
    15   11   14 1
    16   14   15 1
    17   14   16 1
    18   14   17 1
@<TRIPOS>MOLECULE
ZINC13835295
   34    35     0     0     0
SMALL
USER_CHARGES

@<TRIPOS>ATOM
      1 C1         -0.0168    1.3849    0.0097 C.ar      1 <0>        -0.1997
      2 C2          1.1707    2.0901    0.0021 C.ar      1 <0>         0.0276
      3 C3          2.3774    1.4150   -0.0135 C.ar      1 <0>        -0.7235
      4 C4          2.3998    0.0323   -0.0211 C.ar      1 <0>         0.0306
      5 C5          1.2161   -0.6790   -0.0137 C.ar      1 <0>        -0.2015
      6 C6          0.0021   -0.0041    0.0020 C.ar      1 <0>         0.2651
      7 N1         -1.1970   -0.7204    0.0101 N.pl3     1 <0>        -0.5208
      8 N2         -1.1761   -2.1212    0.0024 N.pl3     1 <0>        -0.8997
      9 S1         -1.9746   -2.9677    1.1806 S.o2      1 <0>         2.6990
     10 O1         -1.8904   -4.3402    0.8224 O.2       1 <0>        -0.9048
     11 O2         -1.5009   -2.4750    2.4264 O.2       1 <0>        -0.9022
     12 C7         -3.6768   -2.5240    1.0780 C.ar      1 <0>        -0.7392
     13 C8         -4.1562   -1.4485    1.8055 C.ar      1 <0>         0.2182
     14 C9         -5.4950   -1.0988    1.7254 C.ar      1 <0>         0.0402
     15 C10        -6.3535   -1.8262    0.9168 C.ar      1 <0>         0.1579
     16 C11        -5.8726   -2.9028    0.1888 C.ar      1 <0>         0.0403
     17 C12        -4.5324   -3.2476    0.2657 C.ar      1 <0>         0.2279
     18 F1         -4.0622   -4.2935   -0.4486 F         1 <0>        -0.0717
     19 F2         -6.7088   -3.6126   -0.5999 F         1 <0>        -0.0897
     20 F3         -7.6587   -1.4863    0.8385 F         1 <0>        -0.0799
     21 F4         -5.9628   -0.0493    2.4359 F         1 <0>        -0.0898
     22 F5         -3.3191   -0.7397    2.5942 F         1 <0>        -0.0714
     23 S2          3.8900    2.3186   -0.0243 S.o2      1 <0>         2.7050
     24 O3          4.8717    1.4606   -0.5894 O.2       1 <0>        -0.9659
     25 O4          3.5945    3.5988   -0.5657 O.2       1 <0>        -0.9642
     26 N3          4.3264    2.5618    1.5546 N.pl3     1 <0>        -1.2495
     27 H1         -0.9589    1.9127    0.0260 H         1 <0>         0.1380
     28 H2          1.1567    3.1700    0.0080 H         1 <0>         0.1477
     29 H3          3.3440   -0.4918   -0.0333 H         1 <0>         0.1459
     30 H4          1.2342   -1.7588   -0.0200 H         1 <0>         0.1337
     31 H5         -2.0441   -0.2480    0.0210 H         1 <0>         0.4255
     32 H6         -0.6940   -2.5953   -0.6931 H         1 <0>         0.4320
     33 H7          5.2640    2.6299    1.7937 H         1 <0>         0.4212
     34 H8          3.6443    2.6361    2.2403 H         1 <0>         0.4172
@<TRIPOS>BOND
     1    1    6 ar
     2    1    2 ar
     3    1   27 1
     4    2    3 ar
     5    2   28 1
     6    3    4 ar
     7    3   23 1
     8    4    5 ar
     9    4   29 1
    10    5    6 ar
    11    5   30 1
    12    6    7 1
    13    7    8 1
    14    7   31 1
    15    8    9 1
    16    8   32 1
    17    9   10 2
    18    9   11 2
    19    9   12 1
    20   12   17 ar
    21   12   13 ar
    22   13   14 ar
    23   13   22 1
    24   14   15 ar
    25   14   21 1
    26   15   16 ar
    27   15   20 1
    28   16   17 ar
    29   16   19 1
    30   17   18 1
    31   23   24 2
    32   23   25 2
    33   23   26 1
    34   26   33 1
    35   26   34 1
@<TRIPOS>MOLECULE
ZINC13800424
   34    35     0     0     0
SMALL
USER_CHARGES

@<TRIPOS>ATOM
      1 C1         -0.0167    1.3784    0.0096 C.ar      1 <0>        -0.1138
      2 C2          1.1691    2.0868    0.0021 C.ar      1 <0>        -0.0950
      3 C3          2.3811    1.4088   -0.0131 C.ar      1 <0>         0.1287
      4 C4          2.3964    0.0196   -0.0208 C.ar      1 <0>        -0.0305
      5 C5          1.2073   -0.6824   -0.0132 C.ar      1 <0>        -0.6592
      6 C6          0.0021   -0.0041    0.0020 C.ar      1 <0>        -0.0269
      7 S1          1.2254   -2.4443   -0.0234 S.o2      1 <0>         2.7012
      8 O1         -0.0210   -2.8601   -0.5645 O.2       1 <0>        -0.9590
      9 O2          2.4694   -2.8343   -0.5887 O.2       1 <0>        -0.9606
     10 N1          1.2459   -2.9429    1.5556 N.pl3     1 <0>        -1.2495
     11 N2          3.5821    2.1220   -0.0212 N.pl3     1 <0>        -1.0586
     12 S2          3.7861    3.4115    0.9974 S.o2      1 <0>         2.6926
     13 O3          5.1009    3.9019    0.7736 O.2       1 <0>        -0.9494
     14 O4          2.6332    4.2295    0.8531 O.2       1 <0>        -0.9522
     15 C7          3.7559    2.7847    2.6439 C.ar      1 <0>        -0.7355
     16 C8          2.5559    2.6917    3.3247 C.ar      1 <0>         0.0305
     17 C9          2.5286    2.2009    4.6153 C.ar      1 <0>        -0.2176
     18 C10         3.7085    1.8004    5.2295 C.ar      1 <0>         0.2727
     19 C11         4.9122    1.8952    4.5427 C.ar      1 <0>        -0.2171
     20 C12         4.9315    2.3816    3.2503 C.ar      1 <0>         0.0312
     21 N3          3.6846    1.3039    6.5348 N.pl3     1 <0>        -0.8640
     22 H1         -0.9595    1.9050    0.0260 H         1 <0>         0.1447
     23 H2          1.1537    3.1667    0.0077 H         1 <0>         0.1688
     24 H3          3.3371   -0.5107   -0.0330 H         1 <0>         0.1495
     25 H4         -0.9265   -0.5555    0.0083 H         1 <0>         0.1479
     26 H5          1.2460   -2.2879    2.2711 H         1 <0>         0.4168
     27 H6          1.2577   -3.8899    1.7650 H         1 <0>         0.4221
     28 H7          4.2965    1.8619   -0.6235 H         1 <0>         0.4303
     29 H8          1.6390    3.0036    2.8468 H         1 <0>         0.1382
     30 H9          1.5911    2.1288    5.1466 H         1 <0>         0.1318
     31 H10         5.8313    1.5850    5.0174 H         1 <0>         0.1325
     32 H11         5.8665    2.4515    2.7142 H         1 <0>         0.1406
     33 H12         2.8435    1.2385    7.0135 H         1 <0>         0.4044
     34 H13         4.5091    1.0246    6.9626 H         1 <0>         0.4046
@<TRIPOS>BOND
     1    1    6 ar
     2    1    2 ar
     3    1   22 1
     4    2    3 ar
     5    2   23 1
     6    3    4 ar
     7    3   11 1
     8    4    5 ar
     9    4   24 1
    10    5    6 ar
    11    5    7 1
    12    6   25 1
    13    7    8 2
    14    7    9 2
    15    7   10 1
    16   10   26 1
    17   10   27 1
    18   11   12 1
    19   11   28 1
    20   12   13 2
    21   12   14 2
    22   12   15 1
    23   15   20 ar
    24   15   16 ar
    25   16   17 ar
    26   16   29 1
    27   17   18 ar
    28   17   30 1
    29   18   19 ar
    30   18   21 1
    31   19   20 ar
    32   19   31 1
    33   20   32 1
    34   21   33 1
    35   21   34 1
@<TRIPOS>MOLECULE
ZINC13835659
   39    40     0     0     0
SMALL
USER_CHARGES

@<TRIPOS>ATOM
      1 C1          1.0037   -0.3469   -0.9071 C.ar      1 <0>        -0.0945
      2 C2          2.1873    0.3645   -0.9240 C.ar      1 <0>        -0.0069
      3 C3          2.3751    1.4181   -0.0482 C.ar      1 <0>        -0.6767
      4 C4          1.3791    1.7629    0.8470 C.ar      1 <0>        -0.0121
      5 C5          0.1931    1.0555    0.8690 C.ar      1 <0>        -0.1532
      6 C6          0.0014   -0.0032   -0.0093 C.ar      1 <0>         0.1999
      7 N1         -1.1989   -0.7214    0.0101 N.pl3     1 <0>        -0.6469
      8 C7         -1.1822   -2.0647   -0.0990 C.2       1 <0>         0.5495
      9 S1          0.3101   -2.9035   -0.1186 S.2       1 <0>        -0.5892
     10 N2         -2.3404   -2.7476   -0.1927 N.pl3     1 <0>        -0.6451
     11 C8         -2.3222   -4.2077   -0.3113 C.3       1 <0>         0.0721
     12 H1         -1.4957   -4.6096    0.2747 H         1 <0>         0.1190
     13 C9         -3.6424   -4.7782    0.2108 C.3       1 <0>        -0.0640
     14 C10        -3.7611   -4.4995    1.6871 C.2       1 <0>         0.0846
     15 C11        -4.2301   -3.3727    2.2562 C.2       1 <0>        -0.0184
     16 N3         -4.1707   -3.5245    3.5875 N.pl3     1 <0>        -0.4713
     17 H2         -3.0518   -6.2388    2.6156 H         1 <0>         0.4673
     18 C12        -3.6827   -4.7025    3.8650 C.cat     1 <0>         0.2970
     19 N4         -3.4185   -5.3454    2.7072 N.pl3     1 <0>        -0.5047
     20 C13        -2.1461   -4.5920   -1.7578 C.2       1 <0>         0.5006
     21 O1         -1.5765   -5.6303   -2.0476 O.co2     1 <0>        -0.6600
     22 O2         -2.5731   -3.8647   -2.6382 O.co2     1 <0>        -0.6748
     23 S2          3.8869    2.3228   -0.0726 S.o2      1 <0>         2.7019
     24 O3          4.0287    2.9115    1.2130 O.2       1 <0>        -0.9663
     25 O4          4.8688    1.4581   -0.6270 O.2       1 <0>        -0.9599
     26 N5          3.6942    3.5695   -1.1454 N.pl3     1 <0>        -1.2503
     27 H3          0.8559   -1.1668   -1.5943 H         1 <0>         0.1569
     28 H4          2.9673    0.0975   -1.6217 H         1 <0>         0.1492
     29 H5          1.5289    2.5860    1.5299 H         1 <0>         0.1461
     30 H6         -0.5842    1.3250    1.5686 H         1 <0>         0.1322
     31 H7         -2.0431   -0.2527    0.1020 H         1 <0>         0.4051
     32 H8         -3.1859   -2.2723   -0.1816 H         1 <0>         0.3900
     33 H9         -4.4741   -4.3097   -0.3154 H         1 <0>         0.1187
     34 H10        -3.6653   -5.8546    0.0413 H         1 <0>         0.1220
     35 H11        -4.5909   -2.4998    1.7324 H         1 <0>         0.2167
     36 H12        -3.5203   -5.0989    4.8564 H         1 <0>         0.2647
     37 H13         2.8530    3.6789   -1.6158 H         1 <0>         0.4167
     38 H14         4.4225    4.1904   -1.3033 H         1 <0>         0.4208
     39 H15        -4.4469   -2.8629    4.2409 H         1 <0>         0.4634
@<TRIPOS>BOND
     1    1    6 ar
     2    1    2 ar
     3    1   27 1
     4    2    3 ar
     5    2   28 1
     6    3    4 ar
     7    3   23 1
     8    4    5 ar
     9    4   29 1
    10    5    6 ar
    11    5   30 1
    12    6    7 1
    13    7    8 1
    14    7   31 1
    15    8    9 2
    16    8   10 1
    17   10   11 1
    18   10   32 1
    19   11   12 1
    20   11   13 1
    21   11   20 1
    22   13   33 1
    23   13   34 1
    24   13   14 1
    25   14   15 2
    26   14   19 1
    27   15   16 1
    28   15   35 1
    29   16   18 2
    30   16   39 1
    31   17   19 1
    32   18   36 1
    33   18   19 1
    34   20   21 2
    35   20   22 1
    36   23   24 2
    37   23   25 2
    38   23   26 1
    39   26   37 1
    40   26   38 1
@<TRIPOS>MOLECULE
ZINC13835659
   39    40     0     0     0
SMALL
USER_CHARGES

@<TRIPOS>ATOM
      1 C1          1.0037   -0.3469   -0.9071 C.ar      1 <0>        -0.0944
      2 C2          2.1873    0.3645   -0.9240 C.ar      1 <0>        -0.0065
      3 C3          2.3751    1.4181   -0.0482 C.ar      1 <0>        -0.6763
      4 C4          1.3791    1.7629    0.8470 C.ar      1 <0>        -0.0119
      5 C5          0.1931    1.0555    0.8690 C.ar      1 <0>        -0.1532
      6 C6          0.0014   -0.0032   -0.0093 C.ar      1 <0>         0.1992
      7 N1         -1.1989   -0.7214    0.0101 N.pl3     1 <0>        -0.6477
      8 C7         -1.1822   -2.0647   -0.0990 C.2       1 <0>         0.5466
      9 N2         -2.3404   -2.7476   -0.1927 N.pl3     1 <0>        -0.6488
     10 C8         -2.3222   -4.2077   -0.3113 C.3       1 <0>         0.0696
     11 H1         -1.4957   -4.6096    0.2747 H         1 <0>         0.1243
     12 C9         -3.6424   -4.7782    0.2108 C.3       1 <0>        -0.0603
     13 C10        -3.7611   -4.4995    1.6871 C.2       1 <0>         0.0430
     14 C11        -3.2410   -5.2485    2.6781 C.2       1 <0>         0.0363
     15 N3         -3.5824   -4.6396    3.8556 N.pl3     1 <0>        -0.5056
     16 H2         -3.3521   -4.9422    4.7479 H         1 <0>         0.4651
     17 C12        -4.2998   -3.5391    3.5429 C.cat     1 <0>         0.2899
     18 N4         -4.3983   -3.4590    2.2440 N.pl3     1 <0>        -0.4770
     19 C13        -2.1461   -4.5920   -1.7578 C.2       1 <0>         0.5001
     20 O1         -1.5765   -5.6303   -2.0476 O.co2     1 <0>        -0.6580
     21 O2         -2.5731   -3.8647   -2.6382 O.co2     1 <0>        -0.6780
     22 S1          0.3101   -2.9035   -0.1186 S.2       1 <0>        -0.5805
     23 S2          3.8869    2.3228   -0.0726 S.o2      1 <0>         2.7019
     24 O3          4.0287    2.9115    1.2130 O.2       1 <0>        -0.9660
     25 O4          4.8688    1.4581   -0.6270 O.2       1 <0>        -0.9595
     26 N5          3.6942    3.5695   -1.1454 N.pl3     1 <0>        -1.2503
     27 H3          0.8559   -1.1668   -1.5943 H         1 <0>         0.1568
     28 H4          2.9673    0.0975   -1.6217 H         1 <0>         0.1496
     29 H5          1.5289    2.5860    1.5299 H         1 <0>         0.1463
     30 H6         -0.5842    1.3250    1.5686 H         1 <0>         0.1317
     31 H7         -2.0431   -0.2527    0.1020 H         1 <0>         0.4036
     32 H8         -4.4741   -4.3097   -0.3154 H         1 <0>         0.1000
     33 H9         -3.6653   -5.8546    0.0413 H         1 <0>         0.1364
     34 H10        -2.6655   -6.1554    2.5655 H         1 <0>         0.2301
     35 H11        -4.7190   -2.8389    4.2503 H         1 <0>         0.2626
     36 H12         2.8530    3.6789   -1.6158 H         1 <0>         0.4167
     37 H13         4.4225    4.1904   -1.3033 H         1 <0>         0.4209
     38 H14        -3.1859   -2.2723   -0.1816 H         1 <0>         0.3842
     39 H15        -4.8611   -2.7585    1.7582 H         1 <0>         0.4593
@<TRIPOS>BOND
     1    1    6 ar
     2    1    2 ar
     3    1   27 1
     4    2    3 ar
     5    2   28 1
     6    3    4 ar
     7    3   23 1
     8    4    5 ar
     9    4   29 1
    10    5    6 ar
    11    5   30 1
    12    6    7 1
    13    7    8 1
    14    7   31 1
    15    8    9 1
    16    8   22 2
    17    9   10 1
    18    9   38 1
    19   10   11 1
    20   10   12 1
    21   10   19 1
    22   12   13 1
    23   12   32 1
    24   12   33 1
    25   13   18 1
    26   13   14 2
    27   14   15 1
    28   14   34 1
    29   15   16 1
    30   15   17 1
    31   17   18 2
    32   17   35 1
    33   18   39 1
    34   19   20 2
    35   19   21 1
    36   23   24 2
    37   23   25 2
    38   23   26 1
    39   26   36 1
    40   26   37 1
@<TRIPOS>MOLECULE
ZINC13835659
   38    39     0     0     0
SMALL
USER_CHARGES

@<TRIPOS>ATOM
      1 C1          1.0037   -0.3469   -0.9071 C.ar      1 <0>        -0.0954
      2 C2          2.1873    0.3645   -0.9240 C.ar      1 <0>        -0.0109
      3 C3          2.3751    1.4181   -0.0482 C.ar      1 <0>        -0.6830
      4 C4          1.3791    1.7629    0.8470 C.ar      1 <0>        -0.0128
      5 C5          0.1931    1.0555    0.8690 C.ar      1 <0>        -0.1555
      6 C6          0.0014   -0.0032   -0.0093 C.ar      1 <0>         0.2140
      7 N1         -1.1989   -0.7214    0.0101 N.pl3     1 <0>        -0.6519
      8 C7         -1.1822   -2.0647   -0.0990 C.2       1 <0>         0.5568
      9 S1          0.3101   -2.9035   -0.1186 S.2       1 <0>        -0.6152
     10 N2         -2.3404   -2.7476   -0.1927 N.pl3     1 <0>        -0.6222
     11 C8         -2.3222   -4.2077   -0.3113 C.3       1 <0>         0.0758
     12 H1         -1.4957   -4.6096    0.2747 H         1 <0>         0.1132
     13 C9         -3.6424   -4.7782    0.2108 C.3       1 <0>        -0.0456
     14 C10        -3.7611   -4.4995    1.6871 C.2       1 <0>        -0.0045
     15 C11        -4.2306   -3.3729    2.2562 C.2       1 <0>        -0.0360
     16 N3         -4.1710   -3.5246    3.5875 N.2       1 <0>        -0.4941
     17 H2         -3.0510   -6.2384    2.6156 H         1 <0>         0.4213
     18 C12        -3.6824   -4.7024    3.8651 C.2       1 <0>         0.1761
     19 N4         -3.4180   -5.3452    2.7072 N.pl3     1 <0>        -0.5618
     20 C13        -2.1461   -4.5920   -1.7578 C.2       1 <0>         0.5046
     21 O1         -1.5765   -5.6303   -2.0476 O.co2     1 <0>        -0.6717
     22 O2         -2.5731   -3.8647   -2.6382 O.co2     1 <0>        -0.6873
     23 S2          3.8869    2.3228   -0.0726 S.o2      1 <0>         2.7030
     24 O3          4.0287    2.9115    1.2130 O.2       1 <0>        -0.9694
     25 O4          4.8688    1.4581   -0.6270 O.2       1 <0>        -0.9640
     26 N5          3.6942    3.5695   -1.1454 N.pl3     1 <0>        -1.2516
     27 H3          0.8559   -1.1668   -1.5943 H         1 <0>         0.1574
     28 H4          2.9673    0.0975   -1.6217 H         1 <0>         0.1457
     29 H5          1.5289    2.5860    1.5299 H         1 <0>         0.1435
     30 H6         -0.5842    1.3250    1.5686 H         1 <0>         0.1339
     31 H7         -2.0431   -0.2527    0.1020 H         1 <0>         0.4065
     32 H8         -3.1859   -2.2723   -0.1816 H         1 <0>         0.3930
     33 H9         -4.4741   -4.3097   -0.3154 H         1 <0>         0.0928
     34 H10        -3.6653   -5.8546    0.0413 H         1 <0>         0.0952
     35 H11        -4.5917   -2.5002    1.7324 H         1 <0>         0.1601
     36 H12        -3.5198   -5.0987    4.8564 H         1 <0>         0.2055
     37 H13         2.8530    3.6789   -1.6158 H         1 <0>         0.4168
     38 H14         4.4225    4.1904   -1.3033 H         1 <0>         0.4181
@<TRIPOS>BOND
     1    1    6 ar
     2    1    2 ar
     3    1   27 1
     4    2    3 ar
     5    2   28 1
     6    3    4 ar
     7    3   23 1
     8    4    5 ar
     9    4   29 1
    10    5    6 ar
    11    5   30 1
    12    6    7 1
    13    7    8 1
    14    7   31 1
    15    8    9 2
    16    8   10 1
    17   10   11 1
    18   10   32 1
    19   11   12 1
    20   11   13 1
    21   11   20 1
    22   13   33 1
    23   13   34 1
    24   13   14 1
    25   14   15 2
    26   14   19 1
    27   15   16 1
    28   15   35 1
    29   16   18 2
    30   17   19 1
    31   18   36 1
    32   18   19 1
    33   20   21 2
    34   20   22 1
    35   23   24 2
    36   23   25 2
    37   23   26 1
    38   26   37 1
    39   26   38 1
@<TRIPOS>MOLECULE
ZINC16428551
   39    40     0     0     0
SMALL
USER_CHARGES

@<TRIPOS>ATOM
      1 C1          1.0037   -0.3469   -0.9071 C.ar      1 <0>        -0.0989
      2 C2          2.1873    0.3645   -0.9240 C.ar      1 <0>        -0.0108
      3 C3          2.3751    1.4181   -0.0482 C.ar      1 <0>        -0.6770
      4 C4          1.3791    1.7629    0.8470 C.ar      1 <0>        -0.0080
      5 C5          0.1931    1.0555    0.8690 C.ar      1 <0>        -0.1494
      6 C6          0.0014   -0.0032   -0.0093 C.ar      1 <0>         0.2009
      7 N1         -1.1989   -0.7214    0.0101 N.pl3     1 <0>        -0.6480
      8 C7         -1.1822   -2.0647   -0.0990 C.2       1 <0>         0.5540
      9 S1          0.3101   -2.9035   -0.1186 S.2       1 <0>        -0.5847
     10 N2         -2.3404   -2.7476   -0.1927 N.pl3     1 <0>        -0.6476
     11 C8         -2.3222   -4.2077   -0.3113 C.3       1 <0>         0.0696
     12 H1         -1.4572   -4.5137   -0.8997 H         1 <0>         0.1251
     13 C9         -3.6026   -4.6790   -1.0037 C.3       1 <0>        -0.0591
     14 C10        -3.6265   -4.1643   -2.4199 C.2       1 <0>         0.0747
     15 C11        -3.0488   -4.7381   -3.4925 C.2       1 <0>         0.0032
     16 N3         -3.3029   -3.9692   -4.5617 N.pl3     1 <0>        -0.4684
     17 H2         -4.7501   -2.3983   -2.3253 H         1 <0>         0.4597
     18 C12        -4.0162   -2.9407   -4.1924 C.cat     1 <0>         0.2886
     19 N4         -4.2447   -3.0267   -2.8642 N.pl3     1 <0>        -0.5139
     20 C13        -2.2385   -4.8222    1.0621 C.2       1 <0>         0.5005
     21 O1         -2.3809   -4.1246    2.0519 O.co2     1 <0>        -0.6693
     22 O2         -2.0283   -6.0170    1.1836 O.co2     1 <0>        -0.6684
     23 S2          3.8869    2.3228   -0.0726 S.o2      1 <0>         2.7010
     24 O3          4.0287    2.9115    1.2130 O.2       1 <0>        -0.9623
     25 O4          4.8688    1.4581   -0.6270 O.2       1 <0>        -0.9607
     26 N5          3.6942    3.5695   -1.1454 N.pl3     1 <0>        -1.2508
     27 H3          0.8559   -1.1668   -1.5943 H         1 <0>         0.1504
     28 H4          2.9673    0.0975   -1.6217 H         1 <0>         0.1471
     29 H5          1.5289    2.5860    1.5299 H         1 <0>         0.1478
     30 H6         -0.5842    1.3250    1.5686 H         1 <0>         0.1364
     31 H7         -2.0431   -0.2527    0.1020 H         1 <0>         0.4047
     32 H8         -3.1859   -2.2723   -0.1816 H         1 <0>         0.3834
     33 H9         -3.6308   -5.7686   -1.0127 H         1 <0>         0.1417
     34 H10        -4.4692   -4.2975   -0.4638 H         1 <0>         0.0979
     35 H11        -2.4804   -5.6565   -3.4919 H         1 <0>         0.2279
     36 H12        -4.3683   -2.1530   -4.8420 H         1 <0>         0.2622
     37 H13         2.8530    3.6789   -1.6158 H         1 <0>         0.4152
     38 H14         4.4225    4.1904   -1.3033 H         1 <0>         0.4207
     39 H15        -3.0037   -4.1493   -5.4667 H         1 <0>         0.4647
@<TRIPOS>BOND
     1    1    6 ar
     2    1    2 ar
     3    1   27 1
     4    2    3 ar
     5    2   28 1
     6    3    4 ar
     7    3   23 1
     8    4    5 ar
     9    4   29 1
    10    5    6 ar
    11    5   30 1
    12    6    7 1
    13    7    8 1
    14    7   31 1
    15    8    9 2
    16    8   10 1
    17   10   11 1
    18   10   32 1
    19   11   12 1
    20   11   13 1
    21   11   20 1
    22   13   33 1
    23   13   34 1
    24   13   14 1
    25   14   15 2
    26   14   19 1
    27   15   16 1
    28   15   35 1
    29   16   18 2
    30   16   39 1
    31   17   19 1
    32   18   36 1
    33   18   19 1
    34   20   21 2
    35   20   22 1
    36   23   24 2
    37   23   25 2
    38   23   26 1
    39   26   37 1
    40   26   38 1
@<TRIPOS>MOLECULE
ZINC16428551
   39    40     0     0     0
SMALL
USER_CHARGES

@<TRIPOS>ATOM
      1 C1          1.0037   -0.3469   -0.9071 C.ar      1 <0>        -0.0989
      2 C2          2.1873    0.3645   -0.9240 C.ar      1 <0>        -0.0112
      3 C3          2.3751    1.4181   -0.0482 C.ar      1 <0>        -0.6772
      4 C4          1.3791    1.7629    0.8470 C.ar      1 <0>        -0.0081
      5 C5          0.1931    1.0555    0.8690 C.ar      1 <0>        -0.1492
      6 C6          0.0014   -0.0032   -0.0093 C.ar      1 <0>         0.2016
      7 N1         -1.1989   -0.7214    0.0101 N.pl3     1 <0>        -0.6472
      8 C7         -1.1822   -2.0647   -0.0990 C.2       1 <0>         0.5566
      9 N2         -2.3404   -2.7476   -0.1927 N.pl3     1 <0>        -0.6441
     10 C8         -2.3222   -4.2077   -0.3113 C.3       1 <0>         0.0707
     11 H1         -1.4572   -4.5137   -0.8997 H         1 <0>         0.1190
     12 C9         -3.6026   -4.6790   -1.0037 C.3       1 <0>        -0.0626
     13 C10        -3.6265   -4.1643   -2.4199 C.2       1 <0>         0.0546
     14 C11        -4.0612   -2.9521   -2.8141 C.2       1 <0>         0.0132
     15 N3         -3.9068   -2.8987   -4.1731 N.pl3     1 <0>        -0.5087
     16 H2         -4.1318   -2.1513   -4.7490 H         1 <0>         0.4637
     17 C12        -3.3828   -4.0809   -4.5624 C.cat     1 <0>         0.2986
     18 N4         -3.2132   -4.8309   -3.5079 N.pl3     1 <0>        -0.4688
     19 C13        -2.2385   -4.8222    1.0621 C.2       1 <0>         0.5008
     20 O1         -2.3809   -4.1246    2.0519 O.co2     1 <0>        -0.6669
     21 O2         -2.0283   -6.0170    1.1836 O.co2     1 <0>        -0.6712
     22 S1          0.3101   -2.9035   -0.1186 S.2       1 <0>        -0.5928
     23 S2          3.8869    2.3228   -0.0726 S.o2      1 <0>         2.7010
     24 O3          4.0287    2.9115    1.2130 O.2       1 <0>        -0.9625
     25 O4          4.8688    1.4581   -0.6270 O.2       1 <0>        -0.9611
     26 N5          3.6942    3.5695   -1.1454 N.pl3     1 <0>        -1.2509
     27 H3          0.8559   -1.1668   -1.5943 H         1 <0>         0.1501
     28 H4          2.9673    0.0975   -1.6217 H         1 <0>         0.1467
     29 H5          1.5289    2.5860    1.5299 H         1 <0>         0.1477
     30 H6         -0.5842    1.3250    1.5686 H         1 <0>         0.1369
     31 H7         -2.0431   -0.2527    0.1020 H         1 <0>         0.4061
     32 H8         -3.6308   -5.7686   -1.0127 H         1 <0>         0.1250
     33 H9         -4.4692   -4.2975   -0.4638 H         1 <0>         0.1143
     34 H10        -4.4560   -2.1722   -2.1799 H         1 <0>         0.2185
     35 H11        -3.1404   -4.3582   -5.5776 H         1 <0>         0.2650
     36 H12         2.8530    3.6789   -1.6158 H         1 <0>         0.4153
     37 H13         4.4225    4.1904   -1.3033 H         1 <0>         0.4206
     38 H14        -3.1859   -2.2723   -0.1816 H         1 <0>         0.3884
     39 H15        -2.8477   -5.7294   -3.5108 H         1 <0>         0.4672
@<TRIPOS>BOND
     1    1    6 ar
     2    1    2 ar
     3    1   27 1
     4    2    3 ar
     5    2   28 1
     6    3    4 ar
     7    3   23 1
     8    4    5 ar
     9    4   29 1
    10    5    6 ar
    11    5   30 1
    12    6    7 1
    13    7    8 1
    14    7   31 1
    15    8    9 1
    16    8   22 2
    17    9   10 1
    18    9   38 1
    19   10   11 1
    20   10   12 1
    21   10   19 1
    22   12   13 1
    23   12   32 1
    24   12   33 1
    25   13   18 1
    26   13   14 2
    27   14   15 1
    28   14   34 1
    29   15   16 1
    30   15   17 1
    31   17   18 2
    32   17   35 1
    33   18   39 1
    34   19   20 2
    35   19   21 1
    36   23   24 2
    37   23   25 2
    38   23   26 1
    39   26   36 1
    40   26   37 1
@<TRIPOS>MOLECULE
ZINC16428551
   38    39     0     0     0
SMALL
USER_CHARGES

@<TRIPOS>ATOM
      1 C1          1.0037   -0.3469   -0.9071 C.ar      1 <0>        -0.0967
      2 C2          2.1873    0.3645   -0.9240 C.ar      1 <0>        -0.0117
      3 C3          2.3751    1.4181   -0.0482 C.ar      1 <0>        -0.6826
      4 C4          1.3791    1.7629    0.8470 C.ar      1 <0>        -0.0115
      5 C5          0.1931    1.0555    0.8690 C.ar      1 <0>        -0.1544
      6 C6          0.0014   -0.0032   -0.0093 C.ar      1 <0>         0.2136
      7 N1         -1.1989   -0.7214    0.0101 N.pl3     1 <0>        -0.6535
      8 C7         -1.1822   -2.0647   -0.0990 C.2       1 <0>         0.5589
      9 S1          0.3101   -2.9035   -0.1186 S.2       1 <0>        -0.6053
     10 N2         -2.3404   -2.7476   -0.1927 N.pl3     1 <0>        -0.6261
     11 C8         -2.3222   -4.2077   -0.3113 C.3       1 <0>         0.0727
     12 H1         -1.4572   -4.5137   -0.8997 H         1 <0>         0.1212
     13 C9         -3.6026   -4.6790   -1.0037 C.3       1 <0>        -0.0400
     14 C10        -3.6265   -4.1643   -2.4199 C.2       1 <0>        -0.0116
     15 C11        -3.0492   -4.7384   -3.4926 C.2       1 <0>        -0.0198
     16 N3         -3.3031   -3.9694   -4.5618 N.2       1 <0>        -0.4904
     17 H2         -4.7494   -2.3978   -2.3251 H         1 <0>         0.4125
     18 C12        -4.0159   -2.9405   -4.1924 C.2       1 <0>         0.1710
     19 N4         -4.2443   -3.0264   -2.8642 N.pl3     1 <0>        -0.5712
     20 C13        -2.2385   -4.8222    1.0621 C.2       1 <0>         0.5043
     21 O1         -2.3809   -4.1246    2.0519 O.co2     1 <0>        -0.6842
     22 O2         -2.0283   -6.0170    1.1836 O.co2     1 <0>        -0.6773
     23 S2          3.8869    2.3228   -0.0726 S.o2      1 <0>         2.7026
     24 O3          4.0287    2.9115    1.2130 O.2       1 <0>        -0.9678
     25 O4          4.8688    1.4581   -0.6270 O.2       1 <0>        -0.9636
     26 N5          3.6942    3.5695   -1.1454 N.pl3     1 <0>        -1.2517
     27 H3          0.8559   -1.1668   -1.5943 H         1 <0>         0.1544
     28 H4          2.9673    0.0975   -1.6217 H         1 <0>         0.1455
     29 H5          1.5289    2.5860    1.5299 H         1 <0>         0.1440
     30 H6         -0.5842    1.3250    1.5686 H         1 <0>         0.1343
     31 H7         -2.0431   -0.2527    0.1020 H         1 <0>         0.4040
     32 H8         -3.1859   -2.2723   -0.1816 H         1 <0>         0.3845
     33 H9         -3.6308   -5.7686   -1.0127 H         1 <0>         0.1170
     34 H10        -4.4692   -4.2975   -0.4638 H         1 <0>         0.0698
     35 H11        -2.4812   -5.6569   -3.4920 H         1 <0>         0.1714
     36 H12        -4.3679   -2.1527   -4.8419 H         1 <0>         0.2030
     37 H13         2.8530    3.6789   -1.6158 H         1 <0>         0.4161
     38 H14         4.4225    4.1904   -1.3033 H         1 <0>         0.4183
@<TRIPOS>BOND
     1    1    6 ar
     2    1    2 ar
     3    1   27 1
     4    2    3 ar
     5    2   28 1
     6    3    4 ar
     7    3   23 1
     8    4    5 ar
     9    4   29 1
    10    5    6 ar
    11    5   30 1
    12    6    7 1
    13    7    8 1
    14    7   31 1
    15    8    9 2
    16    8   10 1
    17   10   11 1
    18   10   32 1
    19   11   12 1
    20   11   13 1
    21   11   20 1
    22   13   33 1
    23   13   34 1
    24   13   14 1
    25   14   15 2
    26   14   19 1
    27   15   16 1
    28   15   35 1
    29   16   18 2
    30   17   19 1
    31   18   36 1
    32   18   19 1
    33   20   21 2
    34   20   22 1
    35   23   24 2
    36   23   25 2
    37   23   26 1
    38   26   37 1
    39   26   38 1
@<TRIPOS>MOLECULE
ZINC05741146
   38    39     0     0     0
SMALL
USER_CHARGES

@<TRIPOS>ATOM
      1 C1          0.4477    1.2924    0.8950 C.ar      1 <0>        -0.1308
      2 C2          1.7142    1.7655    1.1833 C.ar      1 <0>        -0.1173
      3 C3          2.8070    0.9260    1.0748 C.ar      1 <0>        -0.0971
      4 C4          2.6333   -0.3869    0.6785 C.ar      1 <0>        -0.0589
      5 C5          1.3668   -0.8603    0.3911 C.ar      1 <0>        -0.1220
      6 C6          0.2741   -0.0204    0.4981 C.ar      1 <0>        -0.1192
      7 C7          3.8248   -1.3019    0.5593 C.3       1 <0>         0.1013
      8 H1          4.7331   -0.7060    0.4705 H         1 <0>         0.1237
      9 C8          3.9136   -2.1733    1.7857 C.2       1 <0>         0.5134
     10 O1          3.6768   -3.3665    1.7041 O.co2     1 <0>        -0.6807
     11 O2          4.2223   -1.6851    2.8594 O.co2     1 <0>        -0.6726
     12 N1          3.6759   -2.1453   -0.6293 N.pl3     1 <0>        -0.6263
     13 C9          4.7664   -2.6594   -1.2317 C.2       1 <0>         0.5617
     14 S1          6.3256   -2.3268   -0.6080 S.2       1 <0>        -0.6150
     15 N2          4.6294   -3.4353   -2.3252 N.pl3     1 <0>        -0.6524
     16 C10         5.7634   -3.8959   -3.0025 C.ar      1 <0>         0.2050
     17 C11         6.8316   -4.4262   -2.2908 C.ar      1 <0>        -0.0904
     18 C12         7.9495   -4.8806   -2.9625 C.ar      1 <0>        -0.0170
     19 C13         8.0062   -4.8074   -4.3423 C.ar      1 <0>        -0.6813
     20 C14         6.9443   -4.2800   -5.0539 C.ar      1 <0>        -0.0151
     21 C15         5.8211   -3.8292   -4.3885 C.ar      1 <0>        -0.1527
     22 S2          9.4347   -5.3871   -5.1954 S.o2      1 <0>         2.7036
     23 O3          9.4665   -4.7073   -6.4428 O.2       1 <0>        -0.9687
     24 O4         10.5113   -5.3310   -4.2696 O.2       1 <0>        -0.9611
     25 N3          9.1858   -6.9886   -5.5353 N.pl3     1 <0>        -1.2499
     26 H2         -0.4066    1.9471    0.9840 H         1 <0>         0.1183
     27 H3          1.8499    2.7913    1.4929 H         1 <0>         0.1219
     28 H4          3.7965    1.2958    1.2994 H         1 <0>         0.1270
     29 H5          1.2311   -1.8860    0.0811 H         1 <0>         0.1154
     30 H6         -0.7154   -0.3901    0.2732 H         1 <0>         0.1190
     31 H7          2.7924   -2.3337   -0.9826 H         1 <0>         0.3920
     32 H8          3.7445   -3.6743   -2.6425 H         1 <0>         0.4063
     33 H9          6.7882   -4.4829   -1.2131 H         1 <0>         0.1631
     34 H10         8.7805   -5.2931   -2.4096 H         1 <0>         0.1454
     35 H11         6.9916   -4.2242   -6.1314 H         1 <0>         0.1425
     36 H12         4.9904   -3.4210   -4.9452 H         1 <0>         0.1326
     37 H13         9.5880   -7.3853   -6.3239 H         1 <0>         0.4187
     38 H14         8.6378   -7.5301   -4.9459 H         1 <0>         0.4175
@<TRIPOS>BOND
     1    1    6 ar
     2    1    2 ar
     3    1   26 1
     4    2    3 ar
     5    2   27 1
     6    3    4 ar
     7    3   28 1
     8    4    5 ar
     9    4    7 1
    10    5    6 ar
    11    5   29 1
    12    6   30 1
    13    7    8 1
    14    7    9 1
    15    7   12 1
    16    9   10 2
    17    9   11 1
    18   12   13 1
    19   12   31 1
    20   13   14 2
    21   13   15 1
    22   15   16 1
    23   15   32 1
    24   16   21 ar
    25   16   17 ar
    26   17   18 ar
    27   17   33 1
    28   18   19 ar
    29   18   34 1
    30   19   20 ar
    31   19   22 1
    32   20   21 ar
    33   20   35 1
    34   21   36 1
    35   22   23 2
    36   22   24 2
    37   22   25 1
    38   25   37 1
    39   25   38 1
@<TRIPOS>MOLECULE
ZINC05741156
   38    39     0     0     0
SMALL
USER_CHARGES

@<TRIPOS>ATOM
      1 C1         -0.3161    1.3595    0.7572 C.ar      1 <0>        -0.1303
      2 C2          0.7628    2.1434    1.1209 C.ar      1 <0>        -0.1184
      3 C3          2.0398    1.6146    1.0993 C.ar      1 <0>        -0.1015
      4 C4          2.2379    0.3017    0.7144 C.ar      1 <0>        -0.0640
      5 C5          1.1588   -0.4824    0.3516 C.ar      1 <0>        -0.1160
      6 C6         -0.1180    0.0468    0.3718 C.ar      1 <0>        -0.1198
      7 C7          3.6302   -0.2744    0.6899 C.3       1 <0>         0.1032
      8 H1          4.2842    0.3290    1.3193 H         1 <0>         0.1236
      9 C8          4.1505   -0.2708   -0.7244 C.2       1 <0>         0.5122
     10 O1          4.7629    0.6955   -1.1462 O.co2     1 <0>        -0.6662
     11 O2          3.9591   -1.2341   -1.4469 O.co2     1 <0>        -0.6851
     12 N1          3.5987   -1.6492    1.1951 N.pl3     1 <0>        -0.6267
     13 C9          4.7058   -2.1931    1.7382 C.2       1 <0>         0.5538
     14 S1          6.1489   -1.2774    1.8376 S.2       1 <0>        -0.6089
     15 N2          4.6768   -3.4579    2.2029 N.pl3     1 <0>        -0.6521
     16 C10         5.8475   -4.0528    2.6851 C.ar      1 <0>         0.2045
     17 C11         6.6821   -3.3504    3.5447 C.ar      1 <0>        -0.0927
     18 C12         7.8369   -3.9408    4.0193 C.ar      1 <0>        -0.0182
     19 C13         8.1627   -5.2298    3.6392 C.ar      1 <0>        -0.6810
     20 C14         7.3339   -5.9320    2.7835 C.ar      1 <0>        -0.0135
     21 C15         6.1747   -5.3494    2.3099 C.ar      1 <0>        -0.1501
     22 S2          9.6375   -5.9790    4.2461 S.o2      1 <0>         2.7031
     23 O3          9.9944   -6.9885    3.3119 O.2       1 <0>        -0.9670
     24 O4         10.5173   -4.9192    4.5957 O.2       1 <0>        -0.9613
     25 N3          9.2480   -6.7553    5.6560 N.pl3     1 <0>        -1.2500
     26 H2         -1.3143    1.7713    0.7784 H         1 <0>         0.1183
     27 H3          0.6081    3.1691    1.4216 H         1 <0>         0.1219
     28 H4          2.8829    2.2272    1.3827 H         1 <0>         0.1274
     29 H5          1.3136   -1.5080    0.0506 H         1 <0>         0.1178
     30 H6         -0.9610   -0.5658    0.0880 H         1 <0>         0.1192
     31 H7          2.7810   -2.1680    1.1387 H         1 <0>         0.3931
     32 H8          3.8443   -3.9556    2.2031 H         1 <0>         0.4061
     33 H9          6.4285   -2.3433    3.8413 H         1 <0>         0.1604
     34 H10         8.4863   -3.3951    4.6877 H         1 <0>         0.1450
     35 H11         7.5912   -6.9386    2.4885 H         1 <0>         0.1433
     36 H12         5.5257   -5.8997    1.6448 H         1 <0>         0.1342
     37 H13         9.7361   -7.5499    5.9231 H         1 <0>         0.4188
     38 H14         8.5317   -6.4154    6.2149 H         1 <0>         0.4167
@<TRIPOS>BOND
     1    1    6 ar
     2    1    2 ar
     3    1   26 1
     4    2    3 ar
     5    2   27 1
     6    3    4 ar
     7    3   28 1
     8    4    5 ar
     9    4    7 1
    10    5    6 ar
    11    5   29 1
    12    6   30 1
    13    7    8 1
    14    7    9 1
    15    7   12 1
    16    9   10 2
    17    9   11 1
    18   12   13 1
    19   12   31 1
    20   13   14 2
    21   13   15 1
    22   15   16 1
    23   15   32 1
    24   16   21 ar
    25   16   17 ar
    26   17   18 ar
    27   17   33 1
    28   18   19 ar
    29   18   34 1
    30   19   20 ar
    31   19   22 1
    32   20   21 ar
    33   20   35 1
    34   21   36 1
    35   22   23 2
    36   22   24 2
    37   22   25 1
    38   25   37 1
    39   25   38 1
@<TRIPOS>MOLECULE
ZINC00610058
   35    36     0     0     0
SMALL
USER_CHARGES

@<TRIPOS>ATOM
      1 C1         -0.6338    1.3806   -0.4051 C.ar      1 <0>        -0.0749
      2 C2          0.5415    1.9887    0.0093 C.ar      1 <0>        -0.1586
      3 C3          1.6251    1.2001    0.3461 C.ar      1 <0>         0.1010
      4 N1          1.5503   -0.1147    0.2763 N.ar      1 <0>        -0.4674
      5 C4          0.4494   -0.7269   -0.1133 C.ar      1 <0>         0.0931
      6 C5         -0.6748   -0.0038   -0.4654 C.ar      1 <0>        -0.1489
      7 C6          0.4166   -2.2322   -0.1760 C.3       1 <0>         0.1779
      8 N2          0.9568   -2.6793   -1.4623 N.pl3     1 <0>        -0.6670
      9 C7          1.0261   -3.9956   -1.7432 C.2       1 <0>         0.5533
     10 S1          0.4830   -5.1453   -0.5968 S.2       1 <0>        -0.5949
     11 N3          1.5231   -4.4069   -2.9265 N.pl3     1 <0>        -0.6402
     12 C8          1.6777   -5.7733   -3.1833 C.ar      1 <0>         0.1861
     13 C9          0.6557   -6.6602   -2.8706 C.ar      1 <0>        -0.0923
     14 C10         0.8113   -8.0086   -3.1258 C.ar      1 <0>        -0.0109
     15 C11         1.9833   -8.4759   -3.6917 C.ar      1 <0>        -0.6719
     16 C12         3.0029   -7.5955   -4.0042 C.ar      1 <0>        -0.0125
     17 C13         2.8513   -6.2452   -3.7568 C.ar      1 <0>        -0.1447
     18 S2          2.1783  -10.1971   -4.0146 S.o2      1 <0>         2.7013
     19 O1          3.5765  -10.4491   -4.0431 O.2       1 <0>        -0.9630
     20 O2          1.2993  -10.8784   -3.1300 O.2       1 <0>        -0.9597
     21 N4          1.6160  -10.4745   -5.5473 N.pl3     1 <0>        -1.2501
     22 H1         -1.4982    1.9713   -0.6704 H         1 <0>         0.1406
     23 H2          0.6092    3.0649    0.0679 H         1 <0>         0.1409
     24 H3          2.5441    1.6660    0.6699 H         1 <0>         0.1618
     25 H4         -1.5737   -0.5110   -0.7834 H         1 <0>         0.1399
     26 H5          1.0197   -2.6428    0.6338 H         1 <0>         0.1100
     27 H6         -0.6121   -2.5778   -0.0741 H         1 <0>         0.1087
     28 H7          1.2645   -2.0279   -2.1119 H         1 <0>         0.4005
     29 H8          1.7735   -3.7555   -3.6002 H         1 <0>         0.4105
     30 H9         -0.2596   -6.2959   -2.4281 H         1 <0>         0.1596
     31 H10         0.0169   -8.6987   -2.8829 H         1 <0>         0.1496
     32 H11         3.9170   -7.9637   -4.4460 H         1 <0>         0.1485
     33 H12         3.6463   -5.5576   -4.0048 H         1 <0>         0.1361
     34 H13         1.2657   -9.7403   -6.0756 H         1 <0>         0.4164
     35 H14         1.6369  -11.3711   -5.9167 H         1 <0>         0.4213
@<TRIPOS>BOND
     1    1    6 ar
     2    1    2 ar
     3    1   22 1
     4    2    3 ar
     5    2   23 1
     6    3    4 ar
     7    3   24 1
     8    4    5 ar
     9    5    6 ar
    10    5    7 1
    11    6   25 1
    12    7    8 1
    13    7   26 1
    14    7   27 1
    15    8    9 1
    16    8   28 1
    17    9   10 2
    18    9   11 1
    19   11   12 1
    20   11   29 1
    21   12   17 ar
    22   12   13 ar
    23   13   14 ar
    24   13   30 1
    25   14   15 ar
    26   14   31 1
    27   15   16 ar
    28   15   18 1
    29   16   17 ar
    30   16   32 1
    31   17   33 1
    32   18   19 2
    33   18   20 2
    34   18   21 1
    35   21   34 1
    36   21   35 1
@<TRIPOS>MOLECULE
ZINC05740940
   35    36     0     0     0
SMALL
USER_CHARGES

@<TRIPOS>ATOM
      1 C1          0.3903    1.3430    1.8061 C.ar      1 <0>        -0.1272
      2 C2          1.2293    1.9656    0.8949 C.ar      1 <0>        -0.1213
      3 C3          2.3421    1.3109    0.4083 C.ar      1 <0>        -0.0854
      4 C4          2.6299    0.0193    0.8303 C.ar      1 <0>         0.1334
      5 C5          1.7825   -0.6148    1.7537 C.ar      1 <0>        -0.1341
      6 C6          0.6582    0.0628    2.2370 C.ar      1 <0>        -0.0846
      7 C7          2.0749   -1.9828    2.2090 C.2       1 <0>         0.5237
      8 O1          1.2809   -2.5701    2.9311 O.co2     1 <0>        -0.6729
      9 O2          3.1122   -2.5333    1.8654 O.co2     1 <0>        -0.6953
     10 N1          3.7506   -0.6427    0.3408 N.pl3     1 <0>        -0.5678
     11 C8          4.9178    0.0175    0.2058 C.2       1 <0>         0.5544
     12 S1          5.0339    1.6574    0.6835 S.2       1 <0>        -0.6250
     13 N2          5.9937   -0.6133   -0.3052 N.pl3     1 <0>        -0.6429
     14 C9          7.1790    0.0950   -0.5285 C.ar      1 <0>         0.2000
     15 C10         7.6705    0.9540    0.4459 C.ar      1 <0>        -0.0912
     16 C11         8.8411    1.6519    0.2222 C.ar      1 <0>        -0.0166
     17 C12         9.5237    1.4961   -0.9703 C.ar      1 <0>        -0.6797
     18 C13         9.0370    0.6416   -1.9425 C.ar      1 <0>        -0.0138
     19 C14         7.8700   -0.0635   -1.7228 C.ar      1 <0>        -0.1486
     20 S2         11.0165    2.3888   -1.2518 S.o2      1 <0>         2.7037
     21 O3         11.1733    2.4837   -2.6610 O.2       1 <0>        -0.9674
     22 O4         10.9696    3.5339   -0.4117 O.2       1 <0>        -0.9612
     23 N3         12.2617    1.4472   -0.6994 N.pl3     1 <0>        -1.2495
     24 H1         -0.4757    1.8664    2.1835 H         1 <0>         0.1179
     25 H2          1.0102    2.9699    0.5634 H         1 <0>         0.1201
     26 H3          2.9900    1.8032   -0.3019 H         1 <0>         0.1413
     27 H4          0.0013   -0.4173    2.9472 H         1 <0>         0.1310
     28 H5          3.6923   -1.5796    0.0965 H         1 <0>         0.4220
     29 H6          5.9460   -1.5584   -0.5181 H         1 <0>         0.4138
     30 H7          7.1377    1.0764    1.3773 H         1 <0>         0.1612
     31 H8          9.2237    2.3203    0.9794 H         1 <0>         0.1458
     32 H9          9.5722    0.5224   -2.8729 H         1 <0>         0.1442
     33 H10         7.4928   -0.7342   -2.4807 H         1 <0>         0.1350
     34 H11        13.1366    1.5082   -1.1137 H         1 <0>         0.4193
     35 H12        12.1161    0.8347    0.0385 H         1 <0>         0.4176
@<TRIPOS>BOND
     1    1    6 ar
     2    1    2 ar
     3    1   24 1
     4    2    3 ar
     5    2   25 1
     6    3    4 ar
     7    3   26 1
     8    4    5 ar
     9    4   10 1
    10    5    6 ar
    11    5    7 1
    12    6   27 1
    13    7    8 2
    14    7    9 1
    15   10   11 1
    16   10   28 1
    17   11   12 2
    18   11   13 1
    19   13   14 1
    20   13   29 1
    21   14   19 ar
    22   14   15 ar
    23   15   16 ar
    24   15   30 1
    25   16   17 ar
    26   16   31 1
    27   17   18 ar
    28   17   20 1
    29   18   19 ar
    30   18   32 1
    31   19   33 1
    32   20   21 2
    33   20   22 2
    34   20   23 1
    35   23   34 1
    36   23   35 1
@<TRIPOS>MOLECULE
ZINC02571868
   19    19     0     0     0
SMALL
USER_CHARGES

@<TRIPOS>ATOM
      1 C1         -0.0172    1.4140    0.0098 C.ar      1 <0>        -0.1225
      2 C2          1.1587    2.1044    0.0023 C.ar      1 <0>         0.0012
      3 C3          2.3710    1.4260   -0.0134 C.ar      1 <0>        -0.6919
      4 C4          2.4065    0.0372   -0.0216 C.ar      1 <0>         0.0147
      5 C5          1.2478   -0.6818   -0.0140 C.ar      1 <0>        -0.1905
      6 C6          0.0021   -0.0041    0.0020 C.ar      1 <0>         0.1962
      7 N1         -1.1323   -0.6888    0.0096 N.2       1 <0>        -0.4660
      8 C7         -1.1079   -1.9386    0.0027 C.1       1 <0>         0.2170
      9 S1         -1.0777   -3.4918   -0.0060 S.2       1 <0>         0.0761
     10 S2          3.8794    2.3365   -0.0235 S.o2      1 <0>         2.7047
     11 O1          4.8651    1.4832   -0.5887 O.2       1 <0>        -0.9610
     12 O2          3.5781    3.6155   -0.5645 O.2       1 <0>        -0.9581
     13 N2          4.3143    2.5811    1.5556 N.pl3     1 <0>        -1.2478
     14 H1         -0.9579    1.9442    0.0261 H         1 <0>         0.1473
     15 H2          1.1476    3.1843    0.0082 H         1 <0>         0.1537
     16 H3          3.3568   -0.4758   -0.0346 H         1 <0>         0.1510
     17 H4          1.2786   -1.7613   -0.0208 H         1 <0>         0.1359
     18 H5          5.2515    2.6534    1.7949 H         1 <0>         0.4227
     19 H6          3.6318    2.6520    2.2412 H         1 <0>         0.4174
@<TRIPOS>BOND
     1    1    6 ar
     2    1    2 ar
     3    1   14 1
     4    2    3 ar
     5    2   15 1
     6    3    4 ar
     7    3   10 1
     8    4    5 ar
     9    4   16 1
    10    5    6 ar
    11    5   17 1
    12    6    7 1
    13    7    8 2
    14    8    9 2
    15   10   11 2
    16   10   12 2
    17   10   13 1
    18   13   18 1
    19   13   19 1
@<TRIPOS>MOLECULE
ZINC05672745
   42    43     0     0     0
SMALL
USER_CHARGES

@<TRIPOS>ATOM
      1 C1         -0.8733   -0.4491    0.6733 C.ar      1 <0>        -0.1196
      2 C2          0.0705    0.5525    0.8033 C.ar      1 <0>        -0.1308
      3 C3          1.4147    0.2564    0.6760 C.ar      1 <0>        -0.1079
      4 C4          1.8152   -1.0415    0.4193 C.ar      1 <0>        -0.1073
      5 C5          0.8715   -2.0434    0.2903 C.ar      1 <0>        -0.0602
      6 C6         -0.4728   -1.7469    0.4161 C.ar      1 <0>        -0.1189
      7 C7          3.2806   -1.3642    0.2795 C.3       1 <0>         0.1537
      8 H1          3.8338   -0.4521    0.0559 H         1 <0>         0.1012
      9 C8          3.7973   -1.9662    1.5878 C.3       1 <0>         0.0347
     10 H2          3.5785   -1.2869    2.4117 H         1 <0>         0.1212
     11 C9          3.1194   -3.2894    1.8341 C.2       1 <0>         0.5033
     12 O1          3.6139   -4.3173    1.4035 O.co2     1 <0>        -0.6895
     13 O2          2.0764   -3.3321    2.4641 O.co2     1 <0>        -0.6571
     14 N1          5.2451   -2.1693    1.4937 N.pl3     1 <0>        -0.6237
     15 C10         5.9955   -2.1989    2.6128 C.2       1 <0>         0.5536
     16 S1          5.2570   -1.9991    4.1443 S.2       1 <0>        -0.6137
     17 N2          7.3275   -2.3857    2.5262 N.pl3     1 <0>        -0.6525
     18 C11         8.1183   -2.3280    3.6787 C.ar      1 <0>         0.2047
     19 C12         7.7155   -2.9874    4.8327 C.ar      1 <0>        -0.0909
     20 C13         8.4988   -2.9288    5.9688 C.ar      1 <0>        -0.0170
     21 C14         9.6826   -2.2142    5.9581 C.ar      1 <0>        -0.6812
     22 C15        10.0864   -1.5565    4.8107 C.ar      1 <0>        -0.0149
     23 C16         9.3106   -1.6159    3.6696 C.ar      1 <0>        -0.1525
     24 S2         10.6783   -2.1411    7.4099 S.o2      1 <0>         2.7034
     25 O3         11.4621   -0.9603    7.3058 O.2       1 <0>        -0.9684
     26 O4          9.8120   -2.3859    8.5094 O.2       1 <0>        -0.9611
     27 N3         11.7328   -3.4163    7.3452 N.pl3     1 <0>        -1.2498
     28 O5          3.4623   -2.3039   -0.7817 O.3       1 <0>        -0.5612
     29 H3         -1.9233   -0.2185    0.7772 H         1 <0>         0.1167
     30 H4         -0.2424    1.5666    1.0038 H         1 <0>         0.1175
     31 H5          2.1520    1.0391    0.7768 H         1 <0>         0.1169
     32 H6          1.1844   -3.0573    0.0893 H         1 <0>         0.1202
     33 H7         -1.2101   -2.5296    0.3150 H         1 <0>         0.1191
     34 H8          5.6635   -2.2825    0.6260 H         1 <0>         0.3981
     35 H9          7.7378   -2.5602    1.6647 H         1 <0>         0.4070
     36 H10         6.7907   -3.5450    4.8419 H         1 <0>         0.1619
     37 H11         8.1861   -3.4414    6.8665 H         1 <0>         0.1454
     38 H12        11.0116   -0.9993    4.8056 H         1 <0>         0.1427
     39 H13         9.6286   -1.1054    2.7726 H         1 <0>         0.1329
     40 H14        12.6069   -3.3443    7.7596 H         1 <0>         0.4188
     41 H15        11.4764   -4.2352    6.8929 H         1 <0>         0.4175
     42 H16         2.9971   -3.1412   -0.6495 H         1 <0>         0.3875
@<TRIPOS>BOND
     1    1    6 ar
     2    1    2 ar
     3    1   29 1
     4    2    3 ar
     5    2   30 1
     6    3    4 ar
     7    3   31 1
     8    4    5 ar
     9    4    7 1
    10    5    6 ar
    11    5   32 1
    12    6   33 1
    13    7    8 1
    14    7    9 1
    15    7   28 1
    16    9   10 1
    17    9   11 1
    18    9   14 1
    19   11   12 2
    20   11   13 1
    21   14   15 1
    22   14   34 1
    23   15   16 2
    24   15   17 1
    25   17   18 1
    26   17   35 1
    27   18   23 ar
    28   18   19 ar
    29   19   20 ar
    30   19   36 1
    31   20   21 ar
    32   20   37 1
    33   21   22 ar
    34   21   24 1
    35   22   23 ar
    36   22   38 1
    37   23   39 1
    38   24   25 2
    39   24   26 2
    40   24   27 1
    41   27   40 1
    42   27   41 1
    43   28   42 1
@<TRIPOS>MOLECULE
ZINC05672750
   42    43     0     0     0
SMALL
USER_CHARGES

@<TRIPOS>ATOM
      1 C1         -1.1719    0.4599   -0.2221 C.ar      1 <0>        -0.1251
      2 C2         -0.2810    1.5168   -0.2057 C.ar      1 <0>        -0.1135
      3 C3          1.0785    1.2739   -0.1458 C.ar      1 <0>        -0.1041
      4 C4          1.5471   -0.0258   -0.1019 C.ar      1 <0>        -0.1052
      5 C5          0.6562   -1.0827   -0.1174 C.ar      1 <0>        -0.1189
      6 C6         -0.7032   -0.8398   -0.1787 C.ar      1 <0>        -0.1166
      7 C7          3.0293   -0.2906   -0.0376 C.3       1 <0>         0.1513
      8 H1          3.5710    0.5892   -0.3849 H         1 <0>         0.1311
      9 C8          3.4301   -0.5993    1.4063 C.3       1 <0>         0.0424
     10 H2          3.1853    0.2522    2.0413 H         1 <0>         0.1237
     11 C9          4.9123   -0.8641    1.4706 C.2       1 <0>         0.5154
     12 O1          5.7025    0.0487    1.3009 O.co2     1 <0>        -0.6796
     13 O2          5.3211   -1.9911    1.6923 O.co2     1 <0>        -0.6794
     14 N1          2.7021   -1.7818    1.8731 N.pl3     1 <0>        -0.6266
     15 C10         2.4820   -1.9611    3.1906 C.2       1 <0>         0.5637
     16 S1          3.0533   -0.8071    4.3187 S.2       1 <0>        -0.6092
     17 N2          1.8123   -3.0490    3.6200 N.pl3     1 <0>        -0.6523
     18 C11         1.6608   -3.2811    4.9912 C.ar      1 <0>         0.2056
     19 C12         1.2840   -2.2443    5.8350 C.ar      1 <0>        -0.0926
     20 C13         1.1348   -2.4768    7.1882 C.ar      1 <0>        -0.0185
     21 C14         1.3607   -3.7401    7.7032 C.ar      1 <0>        -0.6810
     22 C15         1.7360   -4.7746    6.8657 C.ar      1 <0>        -0.0134
     23 C16         1.8813   -4.5500    5.5108 C.ar      1 <0>        -0.1500
     24 S2          1.1704   -4.0323    9.4304 S.o2      1 <0>         2.7031
     25 O3          1.9686   -5.1662    9.7408 O.2       1 <0>        -0.9668
     26 O4          1.3443   -2.7784   10.0759 O.2       1 <0>        -0.9614
     27 N3         -0.4044   -4.4791    9.6808 N.pl3     1 <0>        -1.2500
     28 O5          3.3503   -1.4069   -0.8700 O.3       1 <0>        -0.5369
     29 H3         -2.2342    0.6498   -0.2643 H         1 <0>         0.1201
     30 H4         -0.6471    2.5323   -0.2400 H         1 <0>         0.1234
     31 H5          1.7746    2.0996   -0.1337 H         1 <0>         0.1285
     32 H6          1.0224   -2.0981   -0.0835 H         1 <0>         0.1083
     33 H7         -1.3993   -1.6655   -0.1912 H         1 <0>         0.1197
     34 H8          2.3784   -2.4357    1.2339 H         1 <0>         0.3840
     35 H9          1.4353   -3.6711    2.9783 H         1 <0>         0.4047
     36 H10         1.1081   -1.2573    5.4335 H         1 <0>         0.1597
     37 H11         0.8418   -1.6710    7.8449 H         1 <0>         0.1446
     38 H12         1.9116   -5.7601    7.2711 H         1 <0>         0.1432
     39 H13         2.1705   -5.3593    4.8566 H         1 <0>         0.1341
     40 H14        -0.6285   -5.0782   10.4101 H         1 <0>         0.4188
     41 H15        -1.1028   -4.1418    9.0982 H         1 <0>         0.4166
     42 H16         2.9028   -2.2265   -0.6187 H         1 <0>         0.3591
@<TRIPOS>BOND
     1    1    6 ar
     2    1    2 ar
     3    1   29 1
     4    2    3 ar
     5    2   30 1
     6    3    4 ar
     7    3   31 1
     8    4    5 ar
     9    4    7 1
    10    5    6 ar
    11    5   32 1
    12    6   33 1
    13    7    8 1
    14    7    9 1
    15    7   28 1
    16    9   10 1
    17    9   11 1
    18    9   14 1
    19   11   12 2
    20   11   13 1
    21   14   15 1
    22   14   34 1
    23   15   16 2
    24   15   17 1
    25   17   18 1
    26   17   35 1
    27   18   23 ar
    28   18   19 ar
    29   19   20 ar
    30   19   36 1
    31   20   21 ar
    32   20   37 1
    33   21   22 ar
    34   21   24 1
    35   22   23 ar
    36   22   38 1
    37   23   39 1
    38   24   25 2
    39   24   26 2
    40   24   27 1
    41   27   40 1
    42   27   41 1
    43   28   42 1
@<TRIPOS>MOLECULE
ZINC05672771
   42    43     0     0     0
SMALL
USER_CHARGES

@<TRIPOS>ATOM
      1 C1          1.4891    1.9188   -0.1455 C.ar      1 <0>        -0.1257
      2 C2          2.8415    2.1970   -0.2118 C.ar      1 <0>        -0.1130
      3 C3          3.7601    1.1641   -0.2191 C.ar      1 <0>        -0.1051
      4 C4          3.3263   -0.1471   -0.1596 C.ar      1 <0>        -0.1045
      5 C5          1.9739   -0.4253   -0.0924 C.ar      1 <0>        -0.1218
      6 C6          1.0553    0.6076   -0.0865 C.ar      1 <0>        -0.1163
      7 C7          4.3278   -1.2732   -0.1685 C.3       1 <0>         0.1497
      8 H1          5.2829   -0.9130    0.2136 H         1 <0>         0.1270
      9 C8          4.5102   -1.7822   -1.5998 C.3       1 <0>         0.0421
     10 H2          4.9543   -0.9965   -2.2109 H         1 <0>         0.1225
     11 C9          5.4165   -2.9862   -1.5931 C.2       1 <0>         0.5144
     12 O1          4.9444   -4.1039   -1.4730 O.co2     1 <0>        -0.6828
     13 O2          6.6218   -2.8426   -1.7077 O.co2     1 <0>        -0.6729
     14 N1          3.2069   -2.1550   -2.1553 N.pl3     1 <0>        -0.6268
     15 C10         3.0153   -2.1455   -3.4894 C.2       1 <0>         0.5567
     16 S1          4.2950   -1.6977   -4.5347 S.2       1 <0>        -0.6062
     17 N2          1.8163   -2.4885   -4.0004 N.pl3     1 <0>        -0.6522
     18 C11         1.5900   -2.3937   -5.3777 C.ar      1 <0>         0.2047
     19 C12         2.5370   -2.8734   -6.2732 C.ar      1 <0>        -0.0909
     20 C13         2.3103   -2.7786   -7.6323 C.ar      1 <0>        -0.0166
     21 C14         1.1422   -2.2065   -8.1017 C.ar      1 <0>        -0.6809
     22 C15         0.1973   -1.7279   -7.2126 C.ar      1 <0>        -0.0149
     23 C16         0.4153   -1.8248   -5.8523 C.ar      1 <0>        -0.1520
     24 S2          0.8573   -2.0865   -9.8364 S.o2      1 <0>         2.7034
     25 O3         -0.0621   -1.0194  -10.0241 O.2       1 <0>        -0.9684
     26 O4          2.1339   -2.1109  -10.4601 O.2       1 <0>        -0.9608
     27 N3          0.0768   -3.4710  -10.3013 N.pl3     1 <0>        -1.2498
     28 O5          3.8547   -2.3379    0.6590 O.3       1 <0>        -0.5338
     29 H3          0.7716    2.7259   -0.1353 H         1 <0>         0.1200
     30 H4          3.1804    3.2214   -0.2583 H         1 <0>         0.1232
     31 H5          4.8167    1.3814   -0.2716 H         1 <0>         0.1278
     32 H6          1.6350   -1.4497   -0.0462 H         1 <0>         0.1115
     33 H7         -0.0014    0.3902   -0.0344 H         1 <0>         0.1200
     34 H8          2.4818   -2.4088   -1.5630 H         1 <0>         0.3858
     35 H9          1.1103   -2.8012   -3.4133 H         1 <0>         0.4054
     36 H10         3.4498   -3.3197   -5.9072 H         1 <0>         0.1623
     37 H11         3.0463   -3.1515   -8.3292 H         1 <0>         0.1456
     38 H12        -0.7140   -1.2815   -7.5824 H         1 <0>         0.1426
     39 H13        -0.3248   -1.4545   -5.1584 H         1 <0>         0.1323
     40 H14        -0.5390   -3.4523  -11.0505 H         1 <0>         0.4188
     41 H15         0.2355   -4.3007   -9.8245 H         1 <0>         0.4175
     42 H16         3.0068   -2.7078    0.3775 H         1 <0>         0.3622
@<TRIPOS>BOND
     1    1    6 ar
     2    1    2 ar
     3    1   29 1
     4    2    3 ar
     5    2   30 1
     6    3    4 ar
     7    3   31 1
     8    4    5 ar
     9    4    7 1
    10    5    6 ar
    11    5   32 1
    12    6   33 1
    13    7    8 1
    14    7    9 1
    15    7   28 1
    16    9   10 1
    17    9   11 1
    18    9   14 1
    19   11   12 2
    20   11   13 1
    21   14   15 1
    22   14   34 1
    23   15   16 2
    24   15   17 1
    25   17   18 1
    26   17   35 1
    27   18   23 ar
    28   18   19 ar
    29   19   20 ar
    30   19   36 1
    31   20   21 ar
    32   20   37 1
    33   21   22 ar
    34   21   24 1
    35   22   23 ar
    36   22   38 1
    37   23   39 1
    38   24   25 2
    39   24   26 2
    40   24   27 1
    41   27   40 1
    42   27   41 1
    43   28   42 1
@<TRIPOS>MOLECULE
ZINC05672775
   42    43     0     0     0
SMALL
USER_CHARGES

@<TRIPOS>ATOM
      1 C1          1.2500    2.8597    0.7441 C.ar      1 <0>        -0.1190
      2 C2          2.5905    3.1877    0.8236 C.ar      1 <0>        -0.1354
      3 C3          3.5524    2.2074    0.6667 C.ar      1 <0>        -0.1090
      4 C4          3.1738    0.8990    0.4308 C.ar      1 <0>        -0.1063
      5 C5          1.8333    0.5708    0.3522 C.ar      1 <0>        -0.0384
      6 C6          0.8714    1.5514    0.5076 C.ar      1 <0>        -0.1245
      7 C7          4.2225   -0.1695    0.2588 C.3       1 <0>         0.1556
      8 H1          5.1376    0.1344    0.7672 H         1 <0>         0.1011
      9 C8          4.5087   -0.3680   -1.2311 C.3       1 <0>         0.0348
     10 H2          4.7838    0.5870   -1.6786 H         1 <0>         0.1219
     11 C9          3.2765   -0.9056   -1.9120 C.2       1 <0>         0.5007
     12 O1          2.2982   -0.1920   -2.0541 O.co2     1 <0>        -0.6634
     13 O2          3.2578   -2.0541   -2.3208 O.co2     1 <0>        -0.6809
     14 N1          5.6109   -1.3193   -1.3940 N.pl3     1 <0>        -0.6235
     15 C10         6.3696   -1.2872   -2.5075 C.2       1 <0>         0.5604
     16 S1          6.0454   -0.1349   -3.7314 S.2       1 <0>        -0.6177
     17 N2          7.3836   -2.1623   -2.6574 N.pl3     1 <0>        -0.6526
     18 C11         8.1147   -2.1881   -3.8498 C.ar      1 <0>         0.2060
     19 C12         8.5477   -1.0012   -4.4266 C.ar      1 <0>        -0.0932
     20 C13         9.2696   -1.0302   -5.6036 C.ar      1 <0>        -0.0186
     21 C14         9.5610   -2.2393   -6.2081 C.ar      1 <0>        -0.6815
     22 C15         9.1314   -3.4229   -5.6364 C.ar      1 <0>        -0.0134
     23 C16         8.4140   -3.4011   -4.4565 C.ar      1 <0>        -0.1503
     24 S2         10.4814   -2.2718   -7.7103 S.o2      1 <0>         2.7031
     25 O3         10.1532   -3.4916   -8.3613 O.2       1 <0>        -0.9671
     26 O4         10.2964   -1.0053   -8.3274 O.2       1 <0>        -0.9616
     27 N3         12.0831   -2.3697   -7.3012 N.pl3     1 <0>        -1.2500
     28 O5          3.7500   -1.3955    0.8206 O.3       1 <0>        -0.5625
     29 H3          0.4983    3.6247    0.8711 H         1 <0>         0.1146
     30 H4          2.8862    4.2099    1.0079 H         1 <0>         0.1156
     31 H5          4.5997    2.4639    0.7281 H         1 <0>         0.1149
     32 H6          1.5376   -0.4513    0.1675 H         1 <0>         0.1182
     33 H7         -0.1759    1.2950    0.4458 H         1 <0>         0.1169
     34 H8          5.7947   -1.9721   -0.7006 H         1 <0>         0.3968
     35 H9          7.6065   -2.7742   -1.9385 H         1 <0>         0.4062
     36 H10         8.3198   -0.0566   -3.9553 H         1 <0>         0.1598
     37 H11         9.6066   -0.1076   -6.0526 H         1 <0>         0.1445
     38 H12         9.3606   -4.3655   -6.1110 H         1 <0>         0.1431
     39 H13         8.0822   -4.3260   -4.0083 H         1 <0>         0.1341
     40 H14        12.7080   -2.8184   -7.8920 H         1 <0>         0.4187
     41 H15        12.3963   -1.9783   -6.4708 H         1 <0>         0.4167
     42 H16         2.9367   -1.7261    0.4154 H         1 <0>         0.3849
@<TRIPOS>BOND
     1    1    6 ar
     2    1    2 ar
     3    1   29 1
     4    2    3 ar
     5    2   30 1
     6    3    4 ar
     7    3   31 1
     8    4    5 ar
     9    4    7 1
    10    5    6 ar
    11    5   32 1
    12    6   33 1
    13    7    8 1
    14    7    9 1
    15    7   28 1
    16    9   10 1
    17    9   11 1
    18    9   14 1
    19   11   12 2
    20   11   13 1
    21   14   15 1
    22   14   34 1
    23   15   16 2
    24   15   17 1
    25   17   18 1
    26   17   35 1
    27   18   23 ar
    28   18   19 ar
    29   19   20 ar
    30   19   36 1
    31   20   21 ar
    32   20   37 1
    33   21   22 ar
    34   21   24 1
    35   22   23 ar
    36   22   38 1
    37   23   39 1
    38   24   25 2
    39   24   26 2
    40   24   27 1
    41   27   40 1
    42   27   41 1
    43   28   42 1
@<TRIPOS>MOLECULE
ZINC13584108
   45    47     0     0     0
SMALL
USER_CHARGES

@<TRIPOS>ATOM
      1 C1          0.9665    0.7165   -0.0732 C.ar      1 <0>        -0.1480
      2 C2          2.3209    1.0119   -0.1495 C.ar      1 <0>        -0.1042
      3 C3          3.2560    0.0042   -0.2359 C.ar      1 <0>        -0.1282
      4 C4          2.8417   -1.3239   -0.2464 C.ar      1 <0>         0.0958
      5 C5          1.4683   -1.6179   -0.1684 C.ar      1 <0>        -0.0961
      6 C6          0.5376   -0.5806   -0.0821 C.ar      1 <0>        -0.0787
      7 C7          1.3646   -3.0787   -0.2021 C.2       1 <0>        -0.1610
      8 C8          2.6148   -3.5589   -0.2937 C.2       1 <0>         0.0560
      9 N1          3.5106   -2.5250   -0.3214 N.pl3     1 <0>        -0.5951
     10 H1          4.4736   -2.6236   -0.3842 H         1 <0>         0.4143
     11 C9          0.0951   -3.8888   -0.1444 C.3       1 <0>        -0.0432
     12 C10        -0.4921   -4.0176   -1.5513 C.3       1 <0>         0.0754
     13 H2          0.2593   -4.4343   -2.2219 H         1 <0>         0.1140
     14 C11        -1.6921   -4.9284   -1.5133 C.2       1 <0>         0.5039
     15 O1         -2.8024   -4.4660   -1.3132 O.co2     1 <0>        -0.6926
     16 O2         -1.5527   -6.1277   -1.6828 O.co2     1 <0>        -0.6739
     17 N2         -0.8979   -2.6952   -2.0340 N.pl3     1 <0>        -0.6170
     18 C12        -0.9628   -2.4518   -3.3580 C.2       1 <0>         0.5568
     19 N3         -1.3361   -1.2353   -3.8020 N.pl3     1 <0>        -0.6539
     20 C13        -1.3183   -0.9552   -5.1725 C.ar      1 <0>         0.2094
     21 C14        -1.8451   -1.8686   -6.0764 C.ar      1 <0>        -0.0914
     22 C15        -1.8265   -1.5888   -7.4287 C.ar      1 <0>        -0.0141
     23 C16        -1.2840   -0.4007   -7.8831 C.ar      1 <0>        -0.6809
     24 C17        -0.7587    0.5109   -6.9857 C.ar      1 <0>        -0.0170
     25 C18        -0.7790    0.2395   -5.6316 C.ar      1 <0>        -0.1530
     26 S1         -1.2616   -0.0478   -9.6092 S.o2      1 <0>         2.7026
     27 O3         -0.2087    0.8829   -9.8199 O.2       1 <0>        -0.9699
     28 O4         -1.3179   -1.2991  -10.2803 O.2       1 <0>        -0.9641
     29 N4         -2.6717    0.7441   -9.9654 N.pl3     1 <0>        -1.2515
     30 S2         -0.5712   -3.6880   -4.4758 S.2       1 <0>        -0.6205
     31 H3          0.2465    1.5183   -0.0018 H         1 <0>         0.1199
     32 H4          2.6445    2.0423   -0.1415 H         1 <0>         0.1221
     33 H5          4.3073    0.2443   -0.2955 H         1 <0>         0.1170
     34 H6         -0.5176   -0.8029   -0.0221 H         1 <0>         0.1139
     35 H7          2.8750   -4.6061   -0.3391 H         1 <0>         0.1734
     36 H8          0.3149   -4.8810    0.2498 H         1 <0>         0.0945
     37 H9         -0.6244   -3.3909    0.5055 H         1 <0>         0.0727
     38 H10        -1.6171   -0.5540   -3.1713 H         1 <0>         0.4053
     39 H11        -2.2686   -2.7968   -5.7222 H         1 <0>         0.1628
     40 H12        -2.2356   -2.2988   -8.1321 H         1 <0>         0.1452
     41 H13        -0.3357    1.4379   -7.3437 H         1 <0>         0.1424
     42 H14        -0.3726    0.9538   -4.9309 H         1 <0>         0.1326
     43 H15        -3.3172    0.9243   -9.2642 H         1 <0>         0.4168
     44 H16        -2.8521    1.0278  -10.8753 H         1 <0>         0.4180
     45 H17        -1.1198   -1.9948   -1.4006 H         1 <0>         0.3897
@<TRIPOS>BOND
     1    1    6 ar
     2    1    2 ar
     3    1   31 1
     4    2    3 ar
     5    2   32 1
     6    3    4 ar
     7    3   33 1
     8    4    9 1
     9    4    5 ar
    10    5    6 ar
    11    5    7 1
    12    6   34 1
    13    7    8 2
    14    7   11 1
    15    8    9 1
    16    8   35 1
    17    9   10 1
    18   11   12 1
    19   11   36 1
    20   11   37 1
    21   12   13 1
    22   12   14 1
    23   12   17 1
    24   14   15 2
    25   14   16 1
    26   17   18 1
    27   17   45 1
    28   18   19 1
    29   18   30 2
    30   19   20 1
    31   19   38 1
    32   20   25 ar
    33   20   21 ar
    34   21   22 ar
    35   21   39 1
    36   22   23 ar
    37   22   40 1
    38   23   24 ar
    39   23   26 1
    40   24   25 ar
    41   24   41 1
    42   25   42 1
    43   26   27 2
    44   26   28 2
    45   26   29 1
    46   29   43 1
    47   29   44 1
