@<TRIPOS>MOLECULE
ZINC04598916
   56    56     0     0     0
SMALL
USER_CHARGES
2-(2-benzyloxycarbonylamino-4-methyl-pentanoyl)amino-4-methyl-pentanoic acid
@<TRIPOS>ATOM
      1 C1          0.6955    3.0474    3.4910 C.3       1 <0>        -0.1459
      2 C2          0.3988    2.7556    2.0187 C.3       1 <0>        -0.0913
      3 C3          0.3401    4.0711    1.2398 C.3       1 <0>        -0.1408
      4 C4          1.5049    1.8700    1.4414 C.3       1 <0>        -0.1227
      5 C5          1.1461    1.4756    0.0073 C.3       1 <0>         0.1450
      6 H1          0.9575    2.3741   -0.5803 H         1 <0>         0.1199
      7 C6          2.2894    0.7068   -0.6033 C.2       1 <0>         0.5142
      8 O1          2.1174   -0.4292   -0.9917 O.2       1 <0>        -0.5396
      9 N1          3.5030    1.2816   -0.7176 N.am      1 <0>        -0.6892
     10 C7          4.6145    0.5342   -1.3112 C.3       1 <0>         0.1014
     11 H2          4.5307   -0.5182   -1.0399 H         1 <0>         0.0932
     12 C8          5.9403    1.0914   -0.7890 C.3       1 <0>        -0.1048
     13 C9          6.0398    0.8432    0.7175 C.3       1 <0>        -0.0969
     14 C10         6.1226   -0.6615    0.9820 C.3       1 <0>        -0.1476
     15 C11         7.2940    1.5271    1.2653 C.3       1 <0>        -0.1446
     16 C12         4.5679    0.6715   -2.8112 C.2       1 <0>         0.4569
     17 O2          3.6958    1.3265   -3.3311 O.co2     1 <0>        -0.6296
     18 N2         -0.0556    0.6377    0.0174 N.am      1 <0>        -0.6859
     19 C13        -1.2760    1.2097    0.0225 C.2       1 <0>         0.6507
     20 O3         -1.3795    2.4204    0.0238 O.2       1 <0>        -0.5642
     21 O4         -2.3804    0.4396    0.0262 O.3       1 <0>        -0.3646
     22 C14        -3.6610    1.1238    0.0316 C.3       1 <0>         0.1303
     23 C15        -4.7736    0.1074    0.0352 C.ar      1 <0>        -0.0975
     24 C16        -5.2923   -0.3538   -1.1603 C.ar      1 <0>        -0.0921
     25 C17        -6.3096   -1.2898   -1.1571 C.ar      1 <0>        -0.1237
     26 C18        -6.8150   -1.7571    0.0417 C.ar      1 <0>        -0.1104
     27 C19        -6.3001   -1.2917    1.2372 C.ar      1 <0>        -0.1254
     28 C20        -5.2793   -0.3596    1.2340 C.ar      1 <0>        -0.0937
     29 H3          1.6530    3.5617    3.5737 H         1 <0>         0.0530
     30 H4         -0.0925    3.6783    3.9023 H         1 <0>         0.0514
     31 H5          0.7374    2.1102    4.0459 H         1 <0>         0.0492
     32 H6         -0.5587    2.2413    1.9360 H         1 <0>         0.0745
     33 H7          1.2976    4.5854    1.3224 H         1 <0>         0.0429
     34 H8          0.1287    3.8632    0.1909 H         1 <0>         0.0746
     35 H9         -0.4479    4.7020    1.6510 H         1 <0>         0.0468
     36 H10         1.6064    0.9719    2.0506 H         1 <0>         0.0715
     37 H11         2.4470    2.4182    1.4425 H         1 <0>         0.0800
     38 H12         3.6406    2.1901   -0.4070 H         1 <0>         0.3932
     39 H13         6.7679    0.5939   -1.2947 H         1 <0>         0.0871
     40 H14         5.9863    2.1628   -0.9845 H         1 <0>         0.0606
     41 H15         5.1582    1.2511    1.2119 H         1 <0>         0.0660
     42 H16         7.0042   -1.0694    0.4875 H         1 <0>         0.0553
     43 H17         6.1935   -0.8383    2.0552 H         1 <0>         0.0470
     44 H18         5.2290   -1.1487    0.5917 H         1 <0>         0.0578
     45 H19         7.3682    1.3452    2.3374 H         1 <0>         0.0490
     46 H20         8.1752    1.1235    0.7665 H         1 <0>         0.0543
     47 H21         7.2323    2.5998    1.0822 H         1 <0>         0.0518
     48 H22         0.0270   -0.3288    0.0165 H         1 <0>         0.4152
     49 H23        -3.7360    1.7476    0.9223 H         1 <0>         0.0795
     50 H24        -3.7428    1.7489   -0.8576 H         1 <0>         0.0805
     51 H25        -4.9003    0.0144   -2.0968 H         1 <0>         0.1263
     52 H26        -6.7121   -1.6531   -2.0911 H         1 <0>         0.1253
     53 H27        -7.6123   -2.4856    0.0443 H         1 <0>         0.1231
     54 H28        -6.6952   -1.6566    2.1738 H         1 <0>         0.1243
     55 H29        -4.8771    0.0040    2.1680 H         1 <0>         0.1245
     56 O5          5.4953    0.0662   -3.5697 O.co2     1 <0>        -0.7660
@<TRIPOS>BOND
     1    1    2 1
     2    1   29 1
     3    1   30 1
     4    1   31 1
     5    2    3 1
     6    2    4 1
     7    2   32 1
     8    3   33 1
     9    3   34 1
    10    3   35 1
    11    4    5 1
    12    4   36 1
    13    4   37 1
    14    5    6 1
    15    5    7 1
    16    5   18 1
    17    7    8 2
    18    7    9 am
    19    9   10 1
    20    9   38 1
    21   10   11 1
    22   10   12 1
    23   10   16 1
    24   12   13 1
    25   12   39 1
    26   12   40 1
    27   13   14 1
    28   13   15 1
    29   13   41 1
    30   14   42 1
    31   14   43 1
    32   14   44 1
    33   15   45 1
    34   15   46 1
    35   15   47 1
    36   16   17 2
    37   16   56 1
    38   18   19 am
    39   18   48 1
    40   19   20 2
    41   19   21 1
    42   21   22 1
    43   22   23 1
    44   22   49 1
    45   22   50 1
    46   23   28 ar
    47   23   24 ar
    48   24   25 ar
    49   24   51 1
    50   25   26 ar
    51   25   52 1
    52   26   27 ar
    53   26   53 1
    54   27   28 ar
    55   27   54 1
    56   28   55 1
@<TRIPOS>MOLECULE
ZINC04598917
   56    56     0     0     0
SMALL
USER_CHARGES
2-(2-benzyloxycarbonylamino-4-methyl-pentanoyl)amino-4-methyl-pentanoic acid
@<TRIPOS>ATOM
      1 C1          1.3363   -1.3215    4.3089 C.3       1 <0>        -0.1384
      2 C2         -0.1873   -1.2211    4.2119 C.3       1 <0>        -0.0910
      3 C3         -0.8093   -2.5826    4.5287 C.3       1 <0>        -0.1466
      4 C4         -0.6948   -0.1828    5.2145 C.3       1 <0>        -0.1229
      5 C5         -0.1723    1.2012    4.8240 C.3       1 <0>         0.1477
      6 H1          0.9143    1.1698    4.7433 H         1 <0>         0.1153
      7 C6         -0.5691    2.2034    5.8772 C.2       1 <0>         0.5132
      8 O1         -1.2632    3.1525    5.5801 O.2       1 <0>        -0.5397
      9 N1         -0.1525    2.0451    7.1491 N.am      1 <0>        -0.6893
     10 C7         -0.5382    3.0194    8.1729 C.3       1 <0>         0.1008
     11 H2         -0.5792    4.0146    7.7302 H         1 <0>         0.0929
     12 C8          0.4925    3.0062    9.3036 C.3       1 <0>        -0.1048
     13 C9          1.8414    3.4924    8.7698 C.3       1 <0>        -0.0974
     14 C10         1.7240    4.9579    8.3463 C.3       1 <0>        -0.1479
     15 C11         2.9008    3.3616    9.8659 C.3       1 <0>        -0.1444
     16 C12        -1.8935    2.6587    8.7244 C.2       1 <0>         0.4579
     17 O2         -2.4773    1.6875    8.3052 O.co2     1 <0>        -0.6287
     18 N2         -0.7466    1.5941    3.5349 N.am      1 <0>        -0.6861
     19 C13        -0.1645    1.1929    2.3874 C.2       1 <0>         0.6505
     20 O3          0.8367    0.5052    2.4222 O.2       1 <0>        -0.5663
     21 O4         -0.6923    1.5541    1.2026 O.3       1 <0>        -0.3645
     22 C14        -0.0127    1.0858    0.0080 C.3       1 <0>         0.1308
     23 C15        -0.7416    1.5850   -1.2129 C.ar      1 <0>        -0.0979
     24 C16        -1.7499    0.8246   -1.7750 C.ar      1 <0>        -0.0930
     25 C17        -2.4217    1.2848   -2.8921 C.ar      1 <0>        -0.1245
     26 C18        -2.0785    2.5007   -3.4529 C.ar      1 <0>        -0.1101
     27 C19        -1.0663    3.2585   -2.8942 C.ar      1 <0>        -0.1244
     28 C20        -0.3980    2.8008   -1.7740 C.ar      1 <0>        -0.0928
     29 H3          1.7795   -0.3516    4.0832 H         1 <0>         0.0717
     30 H4          1.6170   -1.6233    5.3180 H         1 <0>         0.0424
     31 H5          1.6979   -2.0613    3.5946 H         1 <0>         0.0459
     32 H6         -0.4680   -0.9194    3.2028 H         1 <0>         0.0728
     33 H7         -1.8948   -2.5111    4.4596 H         1 <0>         0.0511
     34 H8         -0.4477   -3.3223    3.8144 H         1 <0>         0.0500
     35 H9         -0.5286   -2.8844    5.5378 H         1 <0>         0.0539
     36 H10        -0.3387   -0.4373    6.2128 H         1 <0>         0.0821
     37 H11        -1.7848   -0.1746    5.2087 H         1 <0>         0.0766
     38 H12         0.4027    1.2860    7.3867 H         1 <0>         0.3931
     39 H13         0.1603    3.6651   10.1058 H         1 <0>         0.0871
     40 H14         0.5980    1.9914    9.6872 H         1 <0>         0.0606
     41 H15         2.1313    2.8880    7.9103 H         1 <0>         0.0656
     42 H16         1.4340    5.5624    9.2057 H         1 <0>         0.0556
     43 H17         2.6849    5.3044    7.9660 H         1 <0>         0.0471
     44 H18         0.9692    5.0511    7.5654 H         1 <0>         0.0578
     45 H19         2.9844    2.3176   10.1677 H         1 <0>         0.0519
     46 H20         3.8617    3.7081    9.4857 H         1 <0>         0.0491
     47 H21         2.6108    3.9661   10.7254 H         1 <0>         0.0543
     48 H22        -1.5459    2.1431    3.5071 H         1 <0>         0.4168
     49 H23         0.0021   -0.0041    0.0020 H         1 <0>         0.0797
     50 H24         1.0099    1.4631    0.0003 H         1 <0>         0.0796
     51 H25        -2.0153   -0.1273   -1.3392 H         1 <0>         0.1252
     52 H26        -3.2122    0.6925   -3.3288 H         1 <0>         0.1248
     53 H27        -2.6009    2.8585   -4.3278 H         1 <0>         0.1232
     54 H28        -0.7979    4.2083   -3.3326 H         1 <0>         0.1249
     55 H29         0.3927    3.3928   -1.3375 H         1 <0>         0.1252
     56 O5         -2.4521    3.4165    9.6812 O.co2     1 <0>        -0.7663
@<TRIPOS>BOND
     1    1    2 1
     2    1   29 1
     3    1   30 1
     4    1   31 1
     5    2    3 1
     6    2    4 1
     7    2   32 1
     8    3   33 1
     9    3   34 1
    10    3   35 1
    11    4    5 1
    12    4   36 1
    13    4   37 1
    14    5    6 1
    15    5    7 1
    16    5   18 1
    17    7    8 2
    18    7    9 am
    19    9   10 1
    20    9   38 1
    21   10   11 1
    22   10   12 1
    23   10   16 1
    24   12   13 1
    25   12   39 1
    26   12   40 1
    27   13   14 1
    28   13   15 1
    29   13   41 1
    30   14   42 1
    31   14   43 1
    32   14   44 1
    33   15   45 1
    34   15   46 1
    35   15   47 1
    36   16   17 2
    37   16   56 1
    38   18   19 am
    39   18   48 1
    40   19   20 2
    41   19   21 1
    42   21   22 1
    43   22   23 1
    44   22   49 1
    45   22   50 1
    46   23   28 ar
    47   23   24 ar
    48   24   25 ar
    49   24   51 1
    50   25   26 ar
    51   25   52 1
    52   26   27 ar
    53   26   53 1
    54   27   28 ar
    55   27   54 1
    56   28   55 1
@<TRIPOS>MOLECULE
ZINC25724098
   62    61     0     0     0
SMALL
USER_CHARGES
(2S)-2-acetamido-N-[(1R)-1-[[(1R)-1-formyl-3-methylsulfanyl-propyl]carbamoyl]-3-methyl-butyl]-4-methyl-pentanamide
@<TRIPOS>ATOM
      1 C1          9.3586    0.5923    7.0336 C.3       1 <0>        -0.1493
      2 C2          8.6806   -0.1874    5.9053 C.3       1 <0>        -0.0902
      3 C3          7.9570   -1.4028    6.4885 C.3       1 <0>        -0.1528
      4 C4          7.6697    0.7163    5.1966 C.3       1 <0>        -0.1283
      5 C5          7.0825   -0.0217    3.9919 C.3       1 <0>         0.1417
      6 H1          6.6717   -0.9980    4.2886 H         1 <0>         0.1075
      7 C6          5.9994    0.8192    3.3666 C.2       1 <0>         0.5054
      8 O1          6.2373    1.4744    2.3742 O.2       1 <0>        -0.5092
      9 N1          4.7665    0.8431    3.9104 N.am      1 <0>        -0.7330
     10 C7          3.6851    1.5711    3.2419 C.3       1 <0>         0.1368
     11 H2          3.8638    1.5088    2.1583 H         1 <0>         0.1083
     12 C8          3.6808    3.0260    3.7156 C.3       1 <0>        -0.1170
     13 C9          2.6504    3.8212    2.9113 C.3       1 <0>        -0.1049
     14 C10         2.5448    5.2385    3.4777 C.3       1 <0>        -0.1445
     15 C11         3.0883    3.8885    1.4468 C.3       1 <0>        -0.1544
     16 C12         2.3640    0.9292    3.5790 C.2       1 <0>         0.5254
     17 O2          2.2626    0.2329    4.5668 O.2       1 <0>        -0.5381
     18 N2          1.2951    1.1289    2.7827 N.am      1 <0>        -0.7268
     19 C13         0.0393    0.4241    3.0519 C.3       1 <0>         0.0848
     20 H3          0.2951   -0.5691    3.4496 H         1 <0>         0.1226
     21 C14        -0.7672    0.3064    1.7571 C.3       1 <0>        -0.1038
     22 C15        -0.0112   -0.5785    0.7640 C.3       1 <0>        -0.0871
     23 S1         -0.9673   -0.7181   -0.7712 S.3       1 <0>        -0.2601
     24 C16         0.0518   -1.7838   -1.8277 C.3       1 <0>        -0.1231
     25 C17        -0.7592    1.1927    4.0730 C.2       1 <0>         0.3264
     26 O3         -0.3243    2.2229    4.5288 O.2       1 <0>        -0.4364
     27 N3          8.1392   -0.2678    3.0074 N.am      1 <0>        -0.7362
     28 C18         8.8059    0.7683    2.4612 C.2       1 <0>         0.5172
     29 O4          8.5311    1.9044    2.7846 O.2       1 <0>        -0.5177
     30 C19         9.8929    0.5151    1.4486 C.3       1 <0>        -0.1751
     31 H4          9.8788    1.4661    6.6143 H         1 <0>         0.0548
     32 H5         10.0854   -0.0575    7.5431 H         1 <0>         0.0557
     33 H6          8.5991    0.9289    7.7546 H         1 <0>         0.0553
     34 H7          9.4402   -0.5239    5.1843 H         1 <0>         0.0714
     35 H8          7.4695   -1.9634    5.6773 H         1 <0>         0.0535
     36 H9          7.1975   -1.0662    7.2095 H         1 <0>         0.0571
     37 H10         8.6838   -2.0526    6.9980 H         1 <0>         0.0563
     38 H11         6.8614    0.9802    5.8945 H         1 <0>         0.0729
     39 H12         8.1733    1.6328    4.8553 H         1 <0>         0.0942
     40 H13         4.5721    0.3160    4.8561 H         1 <0>         0.4289
     41 H14         3.4202    3.0631    4.7836 H         1 <0>         0.0709
     42 H15         4.6791    3.4632    3.5664 H         1 <0>         0.0833
     43 H16         1.6707    3.3256    2.9787 H         1 <0>         0.0799
     44 H17         1.8040    5.8102    2.8994 H         1 <0>         0.0568
     45 H18         3.5245    5.7342    3.4103 H         1 <0>         0.0555
     46 H19         2.2300    5.1901    4.5306 H         1 <0>         0.0554
     47 H20         2.3475    4.4602    0.8685 H         1 <0>         0.0588
     48 H21         3.1642    2.8695    1.0396 H         1 <0>         0.0508
     49 H22         4.0680    4.3842    1.3795 H         1 <0>         0.0626
     50 H23         1.3656    1.8211    1.9307 H         1 <0>         0.4265
     51 H24        -1.7476   -0.1421    1.9753 H         1 <0>         0.1011
     52 H25        -0.9102    1.3065    1.3220 H         1 <0>         0.0872
     53 H26         0.9692   -0.1300    0.5458 H         1 <0>         0.0839
     54 H27         0.1318   -1.5786    1.1991 H         1 <0>         0.0859
     55 H28        -0.4509   -1.9295   -2.7952 H         1 <0>         0.1054
     56 H29         0.1934   -2.7584   -1.3376 H         1 <0>         0.0781
     57 H30         1.0309   -1.3098   -1.9909 H         1 <0>         0.0779
     58 H31        -1.7383    0.8153    4.4031 H         1 <0>         0.1081
     59 H32         8.3884   -1.2982    2.7140 H         1 <0>         0.4240
     60 H33        10.3179    1.4747    1.1192 H         1 <0>         0.0901
     61 H34         9.4707   -0.0156    0.5825 H         1 <0>         0.0849
     62 H35        10.6834   -0.0987    1.9050 H         1 <0>         0.0848
@<TRIPOS>BOND
     1    1    2 1
     2    1   31 1
     3    1   32 1
     4    1   33 1
     5    2    3 1
     6    2    4 1
     7    2   34 1
     8    3   35 1
     9    3   36 1
    10    3   37 1
    11    4    5 1
    12    4   38 1
    13    4   39 1
    14    5    6 1
    15    5    7 1
    16    5   27 1
    17    7    8 2
    18    7    9 am
    19    9   10 1
    20    9   40 1
    21   10   11 1
    22   10   12 1
    23   10   16 1
    24   12   13 1
    25   12   41 1
    26   12   42 1
    27   13   14 1
    28   13   15 1
    29   13   43 1
    30   14   44 1
    31   14   45 1
    32   14   46 1
    33   15   47 1
    34   15   48 1
    35   15   49 1
    36   16   17 2
    37   16   18 am
    38   18   19 1
    39   18   50 1
    40   19   20 1
    41   19   21 1
    42   19   25 1
    43   21   22 1
    44   21   51 1
    45   21   52 1
    46   22   23 1
    47   22   53 1
    48   22   54 1
    49   23   24 1
    50   24   55 1
    51   24   56 1
    52   24   57 1
    53   25   26 2
    54   25   58 1
    55   27   28 am
    56   27   59 1
    57   28   29 2
    58   28   30 1
    59   30   60 1
    60   30   61 1
    61   30   62 1
@<TRIPOS>MOLECULE
ZINC25723677
   64    63     0     0     0
SMALL
USER_CHARGES
(2R)-2-[[(2S)-2-acetamido-4-methyl-pentanoyl]amino]-N-[(1R)-1-formylpentyl]-4-methyl-pentanamide
@<TRIPOS>ATOM
      1 C1         -0.0616   -1.5813   -1.5239 C.3       1 <0>        -0.1561
      2 C2         -0.8176   -0.6963   -0.5309 C.3       1 <0>        -0.1259
      3 C3         -0.0111   -0.5786    0.7640 C.3       1 <0>        -0.1191
      4 C4         -0.7671    0.3063    1.7570 C.3       1 <0>        -0.1203
      5 C5          0.0393    0.4240    3.0519 C.3       1 <0>         0.0800
      6 H1          0.2950   -0.5692    3.4497 H         1 <0>         0.1199
      7 C6         -0.7592    1.1926    4.0730 C.2       1 <0>         0.3242
      8 O1         -0.3243    2.2229    4.5288 O.2       1 <0>        -0.4402
      9 N1          1.2951    1.1288    2.7827 N.am      1 <0>        -0.7236
     10 C7          2.3640    0.9292    3.5790 C.2       1 <0>         0.5250
     11 O2          2.2627    0.2329    4.5668 O.2       1 <0>        -0.5400
     12 C8          3.6851    1.5711    3.2419 C.3       1 <0>         0.1367
     13 H2          3.8638    1.5088    2.1583 H         1 <0>         0.1085
     14 C9          3.6808    3.0260    3.7155 C.3       1 <0>        -0.1169
     15 C10         2.6504    3.8211    2.9113 C.3       1 <0>        -0.1050
     16 C11         2.5448    5.2385    3.4777 C.3       1 <0>        -0.1444
     17 C12         3.0882    3.8885    1.4468 C.3       1 <0>        -0.1543
     18 N2          4.7665    0.8431    3.9104 N.am      1 <0>        -0.7327
     19 C13         5.9995    0.8192    3.3666 C.2       1 <0>         0.5055
     20 O3          6.2374    1.4745    2.3742 O.2       1 <0>        -0.5096
     21 C14         7.0825   -0.0217    3.9919 C.3       1 <0>         0.1417
     22 H3          6.6717   -0.9980    4.2886 H         1 <0>         0.1076
     23 C15         7.6697    0.7164    5.1966 C.3       1 <0>        -0.1283
     24 C16         8.6806   -0.1873    5.9053 C.3       1 <0>        -0.0902
     25 C17         9.3587    0.5924    7.0336 C.3       1 <0>        -0.1493
     26 C18         7.9570   -1.4027    6.4885 C.3       1 <0>        -0.1529
     27 N3          8.1392   -0.2678    3.0075 N.am      1 <0>        -0.7360
     28 C19         8.8060    0.7683    2.4612 C.2       1 <0>         0.5172
     29 O4          8.5311    1.9045    2.7846 O.2       1 <0>        -0.5181
     30 C20         9.8929    0.5152    1.4486 C.3       1 <0>        -0.1750
     31 H4         -0.6414   -1.6659   -2.4548 H         1 <0>         0.0555
     32 H5          0.0813   -2.5814   -1.0887 H         1 <0>         0.0543
     33 H6          0.9189   -1.1328   -1.7420 H         1 <0>         0.0540
     34 H7         -0.9605    0.3038   -0.9661 H         1 <0>         0.0627
     35 H8         -1.7981   -1.1447   -0.3127 H         1 <0>         0.0637
     36 H9          0.1318   -1.5787    1.1991 H         1 <0>         0.0664
     37 H10         0.9694   -0.1301    0.5459 H         1 <0>         0.0649
     38 H11        -0.9100    1.3064    1.3219 H         1 <0>         0.0756
     39 H12        -1.7476   -0.1421    1.9751 H         1 <0>         0.0896
     40 H13        -1.7382    0.8151    4.4032 H         1 <0>         0.1043
     41 H14         1.3656    1.8209    1.9306 H         1 <0>         0.4251
     42 H15         3.4203    3.0631    4.7836 H         1 <0>         0.0704
     43 H16         4.6791    3.4632    3.5662 H         1 <0>         0.0829
     44 H17         1.6708    3.3253    2.9788 H         1 <0>         0.0801
     45 H18         1.8039    5.8101    2.8995 H         1 <0>         0.0563
     46 H19         3.5244    5.7342    3.4102 H         1 <0>         0.0554
     47 H20         2.2301    5.1901    4.5306 H         1 <0>         0.0552
     48 H21         2.3473    4.4602    0.8686 H         1 <0>         0.0579
     49 H22         3.1642    2.8695    1.0396 H         1 <0>         0.0517
     50 H23         4.0678    4.3843    1.3794 H         1 <0>         0.0625
     51 H24         4.5721    0.3160    4.8561 H         1 <0>         0.4287
     52 H25         8.1733    1.6328    4.8553 H         1 <0>         0.0941
     53 H26         6.8615    0.9804    5.8945 H         1 <0>         0.0728
     54 H27         9.4401   -0.5238    5.1843 H         1 <0>         0.0714
     55 H28        10.0855   -0.0574    7.5430 H         1 <0>         0.0556
     56 H29         8.5992    0.9290    7.7546 H         1 <0>         0.0552
     57 H30         9.8789    1.4662    6.6143 H         1 <0>         0.0547
     58 H31         8.6838   -2.0524    6.9980 H         1 <0>         0.0562
     59 H32         7.4696   -1.9633    5.6773 H         1 <0>         0.0538
     60 H33         7.1975   -1.0661    7.2095 H         1 <0>         0.0570
     61 H34         8.3885   -1.2982    2.7142 H         1 <0>         0.4240
     62 H35        10.3179    1.4749    1.1193 H         1 <0>         0.0900
     63 H36         9.4707   -0.0154    0.5825 H         1 <0>         0.0850
     64 H37        10.6835   -0.0986    1.9050 H         1 <0>         0.0847
@<TRIPOS>BOND
     1    1    2 1
     2    1   31 1
     3    1   32 1
     4    1   33 1
     5    2    3 1
     6    2   34 1
     7    2   35 1
     8    3    4 1
     9    3   36 1
    10    3   37 1
    11    4    5 1
    12    4   38 1
    13    4   39 1
    14    5    6 1
    15    5    7 1
    16    5    9 1
    17    7    8 2
    18    7   40 1
    19    9   10 am
    20    9   41 1
    21   10   11 2
    22   10   12 1
    23   12   13 1
    24   12   14 1
    25   12   18 1
    26   14   15 1
    27   14   42 1
    28   14   43 1
    29   15   16 1
    30   15   17 1
    31   15   44 1
    32   16   45 1
    33   16   46 1
    34   16   47 1
    35   17   48 1
    36   17   49 1
    37   17   50 1
    38   18   19 am
    39   18   51 1
    40   19   20 2
    41   19   21 1
    42   21   22 1
    43   21   23 1
    44   21   27 1
    45   23   24 1
    46   23   52 1
    47   23   53 1
    48   24   25 1
    49   24   26 1
    50   24   54 1
    51   25   55 1
    52   25   56 1
    53   25   57 1
    54   26   58 1
    55   26   59 1
    56   26   60 1
    57   27   28 am
    58   27   61 1
    59   28   29 2
    60   28   30 1
    61   30   62 1
    62   30   63 1
    63   30   64 1
@<TRIPOS>MOLECULE
ZINC13493521
   50    50     0     0     0
SMALL
USER_CHARGES

@<TRIPOS>ATOM
      1 C1          1.0377   -1.4079   -2.5341 C.3       1 <0>        -0.1531
      2 C2          1.5174   -2.7000   -1.8698 C.3       1 <0>        -0.0940
      3 C3          0.5092   -3.8182   -2.1422 C.3       1 <0>        -0.1496
      4 C4          2.8810   -3.0921   -2.4424 C.3       1 <0>        -0.1176
      5 C5          3.9174   -2.0327   -2.0625 C.3       1 <0>         0.0768
      6 H1          3.5730   -1.0526   -2.3925 H         1 <0>         0.1234
      7 C6          5.2310   -2.3537   -2.7277 C.2       1 <0>         0.3264
      8 O1          6.2146   -2.5542   -2.0565 O.2       1 <0>        -0.4390
      9 N1          4.0958   -2.0235   -0.6084 N.am      1 <0>        -0.7130
     10 C7          4.5336   -0.9088    0.0098 C.2       1 <0>         0.5094
     11 O2          4.8646    0.0572   -0.6445 O.2       1 <0>        -0.5199
     12 C8          4.6119   -0.8627    1.5141 C.3       1 <0>         0.1430
     13 H2          4.9556   -1.8265    1.8897 H         1 <0>         0.1101
     14 C9          3.2270   -0.5561    2.0877 C.3       1 <0>        -0.0925
     15 C10         3.2768   -0.6426    3.6144 C.3       1 <0>        -0.1500
     16 C11         2.8027    0.8533    1.6702 C.3       1 <0>        -0.1524
     17 N2          5.5522    0.1839    1.9223 N.pl3     1 <0>        -1.0915
     18 S1          6.9536   -0.2217    2.7059 S.o2      1 <0>         2.6937
     19 O3          7.6671    0.9893    2.9149 O.2       1 <0>        -0.9501
     20 O4          6.5866   -1.0838    3.7742 O.2       1 <0>        -0.9470
     21 C12         7.9151   -1.1862    1.5880 C.ar      1 <0>        -0.6951
     22 C13         7.7683   -2.5606    1.5589 C.ar      1 <0>         0.0065
     23 C14         8.5216   -3.3181    0.6822 C.ar      1 <0>        -0.1659
     24 C15         9.4236   -2.7001   -0.1673 C.ar      1 <0>         0.1667
     25 C16         9.5697   -1.3235   -0.1373 C.ar      1 <0>        -0.1718
     26 C17         8.8115   -0.5676    0.7366 C.ar      1 <0>         0.0177
     27 F1         10.1608   -3.4396   -1.0244 F         1 <0>        -0.1288
     28 H3          1.7560   -0.6113   -2.3401 H         1 <0>         0.0560
     29 H4          0.9492   -1.5633   -3.6093 H         1 <0>         0.0576
     30 H5          0.0663   -1.1286   -2.1261 H         1 <0>         0.0574
     31 H6          1.6060   -2.5446   -0.7946 H         1 <0>         0.0735
     32 H7          0.4207   -3.9736   -3.2174 H         1 <0>         0.0567
     33 H8          0.8510   -4.7387   -1.6689 H         1 <0>         0.0555
     34 H9         -0.4622   -3.5389   -1.7342 H         1 <0>         0.0578
     35 H10         3.1820   -4.0574   -2.0354 H         1 <0>         0.0752
     36 H11         2.8129   -3.1609   -3.5281 H         1 <0>         0.0891
     37 H12         5.2926   -2.4046   -3.8047 H         1 <0>         0.1009
     38 H13         3.8988   -2.8197   -0.0905 H         1 <0>         0.4039
     39 H14         2.5073   -1.2803    1.7060 H         1 <0>         0.0879
     40 H15         3.9335    0.1366    4.0012 H         1 <0>         0.0602
     41 H16         2.2739   -0.5064    4.0189 H         1 <0>         0.0635
     42 H17         3.6585   -1.6196    3.9107 H         1 <0>         0.0655
     43 H18         2.7240    0.9024    0.5842 H         1 <0>         0.0595
     44 H19         1.8361    1.0886    2.1156 H         1 <0>         0.0643
     45 H20         3.5458    1.5731    2.0135 H         1 <0>         0.0608
     46 H21         5.3539    1.1145    1.7336 H         1 <0>         0.4274
     47 H22         7.0650   -3.0425    2.2219 H         1 <0>         0.1468
     48 H23         8.4071   -4.3918    0.6600 H         1 <0>         0.1443
     49 H24        10.2732   -0.8404   -0.7992 H         1 <0>         0.1453
     50 H25         8.9221    0.5065    0.7570 H         1 <0>         0.1489
@<TRIPOS>BOND
     1    1    2 1
     2    1   28 1
     3    1   29 1
     4    1   30 1
     5    2    3 1
     6    2    4 1
     7    2   31 1
     8    3   32 1
     9    3   33 1
    10    3   34 1
    11    4    5 1
    12    4   35 1
    13    4   36 1
    14    5    6 1
    15    5    7 1
    16    5    9 1
    17    7    8 2
    18    7   37 1
    19    9   10 am
    20    9   38 1
    21   10   11 2
    22   10   12 1
    23   12   13 1
    24   12   14 1
    25   12   17 1
    26   14   15 1
    27   14   16 1
    28   14   39 1
    29   15   40 1
    30   15   41 1
    31   15   42 1
    32   16   43 1
    33   16   44 1
    34   16   45 1
    35   17   18 1
    36   17   46 1
    37   18   19 2
    38   18   20 2
    39   18   21 1
    40   21   26 ar
    41   21   22 ar
    42   22   23 ar
    43   22   47 1
    44   23   24 ar
    45   23   48 1
    46   24   25 ar
    47   24   27 1
    48   25   26 ar
    49   25   49 1
    50   26   50 1
@<TRIPOS>MOLECULE
ZINC04598914
   56    56     0     0     0
SMALL
USER_CHARGES
2-(2-benzyloxycarbonylamino-4-methyl-pentanoyl)amino-4-methyl-pentanoic acid
@<TRIPOS>ATOM
      1 C1         -0.3566   -2.8801   -2.4985 C.3       1 <0>        -0.1500
      2 C2         -0.8904   -2.3479   -1.1670 C.3       1 <0>        -0.1168
      3 C3         -2.3244   -2.8394   -0.9595 C.3       1 <0>        -0.1363
      4 C4         -0.0074   -2.8541   -0.0247 C.3       1 <0>        -0.1165
      5 C5          1.3884   -2.2399   -0.1484 C.3       1 <0>         0.1458
      6 H1          1.8183   -2.5063   -1.1139 H         1 <0>         0.1102
      7 C6          1.2887   -0.7401   -0.0395 C.2       1 <0>         0.5159
      8 O1          1.5041   -0.1935    1.0215 O.2       1 <0>        -0.5358
      9 N1          0.9601   -0.0063   -1.1212 N.am      1 <0>        -0.6903
     10 C7          0.9680    1.4566   -1.0438 C.3       1 <0>         0.0999
     11 H2          1.7746    1.7814   -0.3865 H         1 <0>         0.0910
     12 C8          1.1830    2.0401   -2.4417 C.3       1 <0>        -0.1048
     13 C9          2.5491    1.6013   -2.9729 C.3       1 <0>        -0.0984
     14 C10         2.7007    2.0543   -4.4264 C.3       1 <0>        -0.1444
     15 C11         3.6537    2.2336   -2.1238 C.3       1 <0>        -0.1470
     16 C12        -0.3509    1.9378   -0.4961 C.2       1 <0>         0.4587
     17 O2         -1.2094    1.1405   -0.2007 O.co2     1 <0>        -0.6254
     18 N2          2.2440   -2.7516    0.9251 N.am      1 <0>        -0.6902
     19 C13         2.8464   -3.9500    0.7933 C.2       1 <0>         0.6526
     20 O3          2.7568   -4.5634   -0.2518 O.2       1 <0>        -0.5743
     21 O4          3.5476   -4.4675    1.8196 O.3       1 <0>        -0.3634
     22 C14         4.1696   -5.7621    1.6067 C.3       1 <0>         0.1294
     23 C15         4.9051   -6.1774    2.8547 C.ar      1 <0>        -0.0980
     24 C16         6.2329   -5.8313    3.0220 C.ar      1 <0>        -0.0930
     25 C17         6.9062   -6.2081    4.1690 C.ar      1 <0>        -0.1243
     26 C18         6.2545   -6.9396    5.1442 C.ar      1 <0>        -0.1099
     27 C19         4.9283   -7.2906    4.9744 C.ar      1 <0>        -0.1244
     28 C20         4.2535   -6.9093    3.8297 C.ar      1 <0>        -0.0928
     29 H3         -0.4285   -3.9676   -2.5102 H         1 <0>         0.0556
     30 H4         -0.9467   -2.4681   -3.3172 H         1 <0>         0.0570
     31 H5          0.6856   -2.5835   -2.6167 H         1 <0>         0.0512
     32 H6         -0.8782   -1.2581   -1.1802 H         1 <0>         0.1027
     33 H7         -2.7047   -2.4603   -0.0109 H         1 <0>         0.0565
     34 H8         -2.9535   -2.4788   -1.7733 H         1 <0>         0.0551
     35 H9         -2.3366   -3.9293   -0.9463 H         1 <0>         0.0470
     36 H10         0.0676   -3.9402   -0.0773 H         1 <0>         0.0752
     37 H11        -0.4478   -2.5661    0.9299 H         1 <0>         0.0745
     38 H12         0.7184   -0.4468   -1.9509 H         1 <0>         0.3937
     39 H13         0.4007    1.6803   -3.1099 H         1 <0>         0.0608
     40 H14         1.1455    3.1283   -2.3910 H         1 <0>         0.0871
     41 H15         2.6274    0.5153   -2.9208 H         1 <0>         0.0652
     42 H16         3.6357    1.6678   -4.8319 H         1 <0>         0.0490
     43 H17         1.8651    1.6745   -5.0144 H         1 <0>         0.0527
     44 H18         2.7091    3.1435   -4.4685 H         1 <0>         0.0543
     45 H19         3.5457    1.9108   -1.0883 H         1 <0>         0.0569
     46 H20         4.6269    1.9209   -2.5023 H         1 <0>         0.0472
     47 H21         3.5754    3.3195   -2.1759 H         1 <0>         0.0557
     48 H22         2.3769   -2.2279    1.7307 H         1 <0>         0.4171
     49 H23         3.4019   -6.5003    1.3747 H         1 <0>         0.0804
     50 H24         4.8723   -5.6953    0.7761 H         1 <0>         0.0801
     51 H25         6.7433   -5.2633    2.2582 H         1 <0>         0.1253
     52 H26         7.9425   -5.9342    4.3015 H         1 <0>         0.1251
     53 H27         6.7816   -7.2372    6.0386 H         1 <0>         0.1234
     54 H28         4.4192   -7.8624    5.7361 H         1 <0>         0.1251
     55 H29         3.2174   -7.1835    3.6970 H         1 <0>         0.1255
     56 O5         -0.5720    3.2521   -0.3364 O.co2     1 <0>        -0.7670
@<TRIPOS>BOND
     1    1    2 1
     2    1   29 1
     3    1   30 1
     4    1   31 1
     5    2    3 1
     6    2    4 1
     7    2   32 1
     8    3   33 1
     9    3   34 1
    10    3   35 1
    11    4    5 1
    12    4   36 1
    13    4   37 1
    14    5    6 1
    15    5    7 1
    16    5   18 1
    17    7    8 2
    18    7    9 am
    19    9   10 1
    20    9   38 1
    21   10   11 1
    22   10   12 1
    23   10   16 1
    24   12   13 1
    25   12   39 1
    26   12   40 1
    27   13   14 1
    28   13   15 1
    29   13   41 1
    30   14   42 1
    31   14   43 1
    32   14   44 1
    33   15   45 1
    34   15   46 1
    35   15   47 1
    36   16   17 2
    37   16   56 1
    38   18   19 am
    39   18   48 1
    40   19   20 2
    41   19   21 1
    42   21   22 1
    43   22   23 1
    44   22   49 1
    45   22   50 1
    46   23   28 ar
    47   23   24 ar
    48   24   25 ar
    49   24   51 1
    50   25   26 ar
    51   25   52 1
    52   26   27 ar
    53   26   53 1
    54   27   28 ar
    55   27   54 1
    56   28   55 1
@<TRIPOS>MOLECULE
ZINC28263619
   53    53     0     0     0
SMALL
USER_CHARGES

@<TRIPOS>ATOM
      1 C1          0.6073   -0.3490   -1.4680 C.3       1 <0>        -0.1387
      2 C2         -0.2961    0.3696   -0.4638 C.3       1 <0>        -0.0987
      3 C3         -0.8737    1.6309   -1.1090 C.3       1 <0>        -0.1476
      4 C4         -1.4383   -0.5600   -0.0491 C.3       1 <0>         0.1545
      5 H1         -1.0260   -1.4923    0.3369 H         1 <0>         0.1147
      6 C5         -2.2640    0.1054    1.0216 C.2       1 <0>         0.5292
      7 O1         -3.2907    0.6796    0.7265 O.2       1 <0>        -0.5251
      8 N1         -1.8616    0.0625    2.3072 N.am      1 <0>        -0.7045
      9 C6         -2.6095    0.7926    3.3337 C.3       1 <0>         0.1162
     10 H2         -2.9946    1.7208    2.9114 H         1 <0>         0.1335
     11 C7         -1.6834    1.1125    4.5088 C.3       1 <0>        -0.1214
     12 C8         -0.6030    2.0594    4.0535 C.2       1 <0>         0.4586
     13 O2         -0.5764    2.4393    2.9069 O.2       1 <0>        -0.4871
     14 O3          0.3299    2.4807    4.9219 O.3       1 <0>        -0.3512
     15 C9          1.3239    3.3773    4.4219 C.3       1 <0>         0.0337
     16 C10        -3.7587   -0.0547    3.8160 C.2       1 <0>         0.3159
     17 O4         -3.7419   -1.2497    3.6431 O.2       1 <0>        -0.4066
     18 C11        -4.9287    0.5894    4.5139 C.3       1 <0>         0.0179
     19 F1         -5.8609   -0.3931    4.8647 F         1 <0>        -0.1928
     20 N2         -2.2833   -0.8441   -1.2116 N.am      1 <0>        -0.6914
     21 C12        -1.9528   -1.8396   -2.0579 C.2       1 <0>         0.6535
     22 O5         -0.9539   -2.5015   -1.8566 O.2       1 <0>        -0.5636
     23 O6         -2.7294   -2.1006   -3.1262 O.3       1 <0>        -0.3570
     24 C13        -2.3190   -3.1698   -3.9809 C.3       1 <0>         0.1293
     25 C14        -3.3025   -3.3131   -5.1137 C.ar      1 <0>        -0.1013
     26 C15        -4.3985   -4.1442   -4.9765 C.ar      1 <0>        -0.0931
     27 C16        -5.3007   -4.2757   -6.0156 C.ar      1 <0>        -0.1232
     28 C17        -5.1070   -3.5757   -7.1918 C.ar      1 <0>        -0.1071
     29 C18        -4.0114   -2.7439   -7.3287 C.ar      1 <0>        -0.1235
     30 C19        -3.1116   -2.6091   -6.2880 C.ar      1 <0>        -0.0932
     31 H3          1.4211    0.3133   -1.7634 H         1 <0>         0.0543
     32 H4          1.0189   -1.2476   -1.0083 H         1 <0>         0.0640
     33 H5          0.0256   -0.6247   -2.3476 H         1 <0>         0.0571
     34 H6          0.2856    0.6453    0.4158 H         1 <0>         0.0871
     35 H7         -1.4192    1.3595   -2.0128 H         1 <0>         0.0569
     36 H8         -1.5512    2.1196   -0.4088 H         1 <0>         0.0606
     37 H9         -0.0624    2.3122   -1.3651 H         1 <0>         0.0595
     38 H10        -1.0767   -0.4519    2.5528 H         1 <0>         0.4084
     39 H11        -2.2594    1.5765    5.3095 H         1 <0>         0.1332
     40 H12        -1.2291    0.1917    4.8745 H         1 <0>         0.1234
     41 H13         1.8731    2.8961    3.6126 H         1 <0>         0.0631
     42 H14         0.8428    4.2809    4.0476 H         1 <0>         0.0633
     43 H15         2.0139    3.6387    5.2242 H         1 <0>         0.1050
     44 H16        -4.5806    1.0974    5.4133 H         1 <0>         0.1148
     45 H17        -5.3969    1.3126    3.8462 H         1 <0>         0.1169
     46 H18        -3.0807   -0.3156   -1.3722 H         1 <0>         0.4172
     47 H19        -1.3296   -2.9535   -4.3839 H         1 <0>         0.0789
     48 H20        -2.2841   -4.0979   -3.4105 H         1 <0>         0.0789
     49 H21        -4.5499   -4.6911   -4.0576 H         1 <0>         0.1248
     50 H22        -6.1566   -4.9255   -5.9087 H         1 <0>         0.1264
     51 H23        -5.8114   -3.6790   -8.0039 H         1 <0>         0.1253
     52 H24        -3.8599   -2.1973   -8.2478 H         1 <0>         0.1263
     53 H25        -2.2577   -1.9564   -6.3936 H         1 <0>         0.1247
@<TRIPOS>BOND
     1    1    2 1
     2    1   31 1
     3    1   32 1
     4    1   33 1
     5    2    3 1
     6    2    4 1
     7    2   34 1
     8    3   35 1
     9    3   36 1
    10    3   37 1
    11    4    5 1
    12    4    6 1
    13    4   20 1
    14    6    7 2
    15    6    8 am
    16    8    9 1
    17    8   38 1
    18    9   10 1
    19    9   11 1
    20    9   16 1
    21   11   12 1
    22   11   39 1
    23   11   40 1
    24   12   13 2
    25   12   14 1
    26   14   15 1
    27   15   41 1
    28   15   42 1
    29   15   43 1
    30   16   17 2
    31   16   18 1
    32   18   19 1
    33   18   44 1
    34   18   45 1
    35   20   21 am
    36   20   46 1
    37   21   22 2
    38   21   23 1
    39   23   24 1
    40   24   25 1
    41   24   47 1
    42   24   48 1
    43   25   30 ar
    44   25   26 ar
    45   26   27 ar
    46   26   49 1
    47   27   28 ar
    48   27   50 1
    49   28   29 ar
    50   28   51 1
    51   29   30 ar
    52   29   52 1
    53   30   53 1
@<TRIPOS>MOLECULE
ZINC28263624
   53    53     0     0     0
SMALL
USER_CHARGES
methyl (3S)-3-[[(2S)-2-benzyloxycarbonylamino-3-methyl-butanoyl]amino]-5-fluoro-4-oxo-pentanoate
@<TRIPOS>ATOM
      1 C1         -3.0099    5.3618    5.5848 C.3       1 <0>        -0.1395
      2 C2         -2.3641    4.4640    4.5275 C.3       1 <0>        -0.0989
      3 C3         -2.3833    5.1759    3.1733 C.3       1 <0>        -0.1508
      4 C4         -0.9175    4.1657    4.9264 C.3       1 <0>         0.1573
      5 H1         -0.8721    3.6752    5.9099 H         1 <0>         0.1181
      6 C5         -0.2814    3.2814    3.8850 C.2       1 <0>         0.5325
      7 O1          0.7005    3.6625    3.2836 O.2       1 <0>        -0.5332
      8 N1         -0.8036    2.0671    3.6220 N.am      1 <0>        -0.7171
      9 C6         -0.1853    1.2075    2.6097 C.3       1 <0>         0.1166
     10 H2          0.9001    1.3827    2.6443 H         1 <0>         0.1343
     11 C7         -0.5159   -0.2555    2.9120 C.3       1 <0>        -0.1208
     12 C8          0.1217   -0.6551    4.2177 C.2       1 <0>         0.4588
     13 O2          0.7736    0.1478    4.8423 O.2       1 <0>        -0.4891
     14 O3         -0.0347   -1.9030    4.6867 O.3       1 <0>        -0.3574
     15 C9          0.6076   -2.2176    5.9504 C.3       1 <0>         0.0324
     16 C10        -0.7181    1.5718    1.2479 C.2       1 <0>         0.3161
     17 O4         -1.7103    2.2532    1.1502 O.2       1 <0>        -0.4053
     18 C11        -0.0127    1.0858    0.0080 C.3       1 <0>         0.0136
     19 F1         -0.6893    1.5493   -1.1254 F         1 <0>        -0.1930
     20 N2         -0.1690    5.4213    5.0241 N.am      1 <0>        -0.7056
     21 C12        -0.2000    6.1373    6.1655 C.2       1 <0>         0.6550
     22 O5         -0.8487    5.7413    7.1136 O.2       1 <0>        -0.5720
     23 O6          0.4879    7.2912    6.2553 O.3       1 <0>        -0.3631
     24 C13         0.4087    8.0095    7.5146 C.3       1 <0>         0.1292
     25 C14         1.2355    9.2666    7.4287 C.ar      1 <0>        -0.1010
     26 C15         2.5677    9.2442    7.7971 C.ar      1 <0>        -0.0931
     27 C16         3.3273   10.3961    7.7137 C.ar      1 <0>        -0.1234
     28 C17         2.7522   11.5728    7.2714 C.ar      1 <0>        -0.1073
     29 C18         1.4185   11.5965    6.9085 C.ar      1 <0>        -0.1236
     30 C19         0.6603   10.4433    6.9869 C.ar      1 <0>        -0.0932
     31 H3         -2.9961    4.8500    6.5584 H         1 <0>         0.0667
     32 H4         -4.0500    5.5763    5.2980 H         1 <0>         0.0535
     33 H5         -2.4479    6.3045    5.6581 H         1 <0>         0.0544
     34 H6         -2.9260    3.5212    4.4542 H         1 <0>         0.0843
     35 H7         -1.9190    4.5304    2.4132 H         1 <0>         0.0603
     36 H8         -1.8213    6.1187    3.2467 H         1 <0>         0.0571
     37 H9         -3.4234    5.3904    2.8865 H         1 <0>         0.0612
     38 H10        -1.6941    1.7215    4.1675 H         1 <0>         0.4280
     39 H11        -1.6067   -0.3776    2.9841 H         1 <0>         0.1247
     40 H12        -0.1282   -0.8935    2.1042 H         1 <0>         0.1324
     41 H13         0.4004   -3.2647    6.2163 H         1 <0>         0.1064
     42 H14         0.2152   -1.5552    6.7360 H         1 <0>         0.0665
     43 H15         1.6937   -2.0712    5.8561 H         1 <0>         0.0664
     44 H16         1.0193    1.4665    0.0002 H         1 <0>         0.1171
     45 H17         0.0022   -0.0141    0.0019 H         1 <0>         0.1153
     46 H18         0.4183    5.7797    4.1658 H         1 <0>         0.4396
     47 H19        -0.6391    8.2731    7.7211 H         1 <0>         0.0815
     48 H20         0.7930    7.3725    8.3249 H         1 <0>         0.0814
     49 H21         3.0160    8.3258    8.1464 H         1 <0>         0.1247
     50 H22         4.3692   10.3776    7.9976 H         1 <0>         0.1262
     51 H23         3.3447   12.4736    7.2098 H         1 <0>         0.1251
     52 H24         0.9691   12.5159    6.5633 H         1 <0>         0.1262
     53 H25        -0.3817   10.4619    6.7033 H         1 <0>         0.1246
@<TRIPOS>BOND
     1    1    2 1
     2    1   31 1
     3    1   32 1
     4    1   33 1
     5    2    3 1
     6    2    4 1
     7    2   34 1
     8    3   35 1
     9    3   36 1
    10    3   37 1
    11    4    5 1
    12    4    6 1
    13    4   20 1
    14    6    7 2
    15    6    8 am
    16    8    9 1
    17    8   38 1
    18    9   10 1
    19    9   11 1
    20    9   16 1
    21   11   12 1
    22   11   39 1
    23   11   40 1
    24   12   13 2
    25   12   14 1
    26   14   15 1
    27   15   41 1
    28   15   42 1
    29   15   43 1
    30   16   17 2
    31   16   18 1
    32   18   19 1
    33   18   44 1
    34   18   45 1
    35   20   21 am
    36   20   46 1
    37   21   22 2
    38   21   23 1
    39   23   24 1
    40   24   25 1
    41   24   47 1
    42   24   48 1
    43   25   30 ar
    44   25   26 ar
    45   26   27 ar
    46   26   49 1
    47   27   28 ar
    48   27   50 1
    49   28   29 ar
    50   28   51 1
    51   29   30 ar
    52   29   52 1
    53   30   53 1
@<TRIPOS>MOLECULE
ZINC00005886
   20    20     0     0     0
SMALL
USER_CHARGES
3-(1H-pyrrol-3-yl)propanamide
@<TRIPOS>ATOM
      1 C1          1.0463    1.7398    3.1622 C.2       1 <0>        -0.1958
      2 C2          1.4159    0.9579    4.1968 C.2       1 <0>        -0.0163
      3 N1          0.6361   -0.1604    4.1858 N.pl3     1 <0>        -0.5614
      4 H1          0.6888   -0.8924    4.8202 H         1 <0>         0.4148
      5 C3         -0.2333   -0.0776    3.1389 C.2       1 <0>        -0.0132
      6 C4          0.0000    1.0800    2.4877 C.2       1 <0>        -0.1684
      7 C5         -0.7288    1.5792    1.2668 C.3       1 <0>        -0.0308
      8 C6         -0.0127    1.0858    0.0080 C.3       1 <0>        -0.1345
      9 C7         -0.7416    1.5850   -1.2129 C.2       1 <0>         0.5136
     10 O1         -1.7359    2.2682   -1.0884 O.2       1 <0>        -0.5441
     11 N2         -0.2884    1.2723   -2.4431 N.am      1 <0>        -0.8599
     12 H2          1.4736    2.6962    2.8991 H         1 <0>         0.1346
     13 H3          2.1954    1.1793    4.9108 H         1 <0>         0.1628
     14 H4         -0.9789   -0.8131    2.8753 H         1 <0>         0.1620
     15 H5         -0.7436    2.6691    1.2728 H         1 <0>         0.0753
     16 H6         -1.7514    1.2020    1.2746 H         1 <0>         0.0723
     17 H7          0.0021   -0.0041    0.0020 H         1 <0>         0.0925
     18 H8          1.0099    1.4631    0.0003 H         1 <0>         0.0946
     19 H9          0.5068    0.7259   -2.5426 H         1 <0>         0.4015
     20 H10        -0.7576    1.5936   -3.2289 H         1 <0>         0.4004
@<TRIPOS>BOND
     1    1    6 1
     2    1    2 2
     3    1   12 1
     4    2    3 1
     5    2   13 1
     6    3    4 1
     7    3    5 1
     8    5    6 2
     9    5   14 1
    10    6    7 1
    11    7    8 1
    12    7   15 1
    13    7   16 1
    14    8    9 1
    15    8   17 1
    16    8   18 1
    17    9   10 2
    18    9   11 am
    19   11   19 1
    20   11   20 1
@<TRIPOS>MOLECULE
ZINC01544687
   50    50     0     0     0
SMALL
USER_CHARGES

@<TRIPOS>ATOM
      1 C1         -1.1732    1.0687    3.0917 C.3       1 <0>        -0.1494
      2 C2          0.2326    0.9205    2.5062 C.3       1 <0>        -0.0936
      3 C3          1.1241    0.1764    3.5025 C.3       1 <0>        -0.1526
      4 C4          0.1595    0.1302    1.1981 C.3       1 <0>        -0.1173
      5 C5          1.5400    0.1066    0.5388 C.3       1 <0>         0.0743
      6 H1          2.2670   -0.3149    1.2329 H         1 <0>         0.1250
      7 C6          1.4869   -0.7387   -0.7077 C.2       1 <0>         0.3275
      8 O1          1.7526   -0.2507   -1.7799 O.2       1 <0>        -0.4413
      9 N1          1.9362    1.4722    0.1863 N.am      1 <0>        -0.7132
     10 C7          3.2417    1.7871    0.0728 C.2       1 <0>         0.5111
     11 O2          4.0900    0.9741    0.3736 O.2       1 <0>        -0.5218
     12 C8          3.6476    3.1494   -0.4277 C.3       1 <0>         0.1431
     13 H2          3.0085    3.9078    0.0244 H         1 <0>         0.1095
     14 C9          3.4991    3.1986   -1.9497 C.3       1 <0>        -0.0914
     15 C10         3.8739    4.5937   -2.4539 C.3       1 <0>        -0.1497
     16 C11         4.4252    2.1604   -2.5863 C.3       1 <0>        -0.1500
     17 N2          5.0433    3.4072   -0.0647 N.pl3     1 <0>        -1.0910
     18 S1          5.4150    4.6496    0.9651 S.o2      1 <0>         2.6929
     19 O3          6.8219    4.6079    1.1607 O.2       1 <0>        -0.9488
     20 O4          4.7488    5.8022    0.4681 O.2       1 <0>        -0.9451
     21 C12         4.6789    4.2744    2.5214 C.ar      1 <0>        -0.6946
     22 C13         3.3915    4.6966    2.7962 C.ar      1 <0>         0.0038
     23 C14         2.8130    4.4025    4.0163 C.ar      1 <0>        -0.1732
     24 C15         3.5232    3.6847    4.9636 C.ar      1 <0>         0.1599
     25 C16         4.8125    3.2623    4.6872 C.ar      1 <0>        -0.1728
     26 C17         5.3871    3.5531    3.4644 C.ar      1 <0>         0.0186
     27 F1          2.9588    3.3969    6.1569 F         1 <0>        -0.1276
     28 H3         -1.7849    1.6711    2.4200 H         1 <0>         0.0557
     29 H4         -1.6241    0.0832    3.2081 H         1 <0>         0.0572
     30 H5         -1.1121    1.5575    4.0640 H         1 <0>         0.0572
     31 H6          0.6510    1.9079    2.3113 H         1 <0>         0.0718
     32 H7          0.7057   -0.8110    3.6974 H         1 <0>         0.0582
     33 H8          2.1256    0.0708    3.0854 H         1 <0>         0.0560
     34 H9          1.1761    0.7394    4.4344 H         1 <0>         0.0553
     35 H10        -0.1605   -0.8905    1.4076 H         1 <0>         0.0897
     36 H11        -0.5559    0.6047    0.5264 H         1 <0>         0.0759
     37 H12         1.2113   -1.7808   -0.6421 H         1 <0>         0.1035
     38 H13         1.2589    2.1499    0.0345 H         1 <0>         0.4042
     39 H14         2.4665    2.9794   -2.2213 H         1 <0>         0.0899
     40 H15         4.9350    4.7706   -2.2782 H         1 <0>         0.0584
     41 H16         3.6660    4.6621   -3.5217 H         1 <0>         0.0631
     42 H17         3.2876    5.3422   -1.9209 H         1 <0>         0.0663
     43 H18         4.1145    1.1610   -2.2818 H         1 <0>         0.0614
     44 H19         4.3715    2.2426   -3.6719 H         1 <0>         0.0629
     45 H20         5.4496    2.3379   -2.2588 H         1 <0>         0.0573
     46 H21         5.7496    2.8501   -0.4275 H         1 <0>         0.4280
     47 H22         2.8378    5.2568    2.0573 H         1 <0>         0.1496
     48 H23         1.8073    4.7327    4.2309 H         1 <0>         0.1471
     49 H24         5.3676    2.7026    5.4255 H         1 <0>         0.1477
     50 H25         6.3911    3.2199    3.2469 H         1 <0>         0.1513
@<TRIPOS>BOND
     1    1    2 1
     2    1   28 1
     3    1   29 1
     4    1   30 1
     5    2    3 1
     6    2    4 1
     7    2   31 1
     8    3   32 1
     9    3   33 1
    10    3   34 1
    11    4    5 1
    12    4   35 1
    13    4   36 1
    14    5    6 1
    15    5    7 1
    16    5    9 1
    17    7    8 2
    18    7   37 1
    19    9   10 am
    20    9   38 1
    21   10   11 2
    22   10   12 1
    23   12   13 1
    24   12   14 1
    25   12   17 1
    26   14   15 1
    27   14   16 1
    28   14   39 1
    29   15   40 1
    30   15   41 1
    31   15   42 1
    32   16   43 1
    33   16   44 1
    34   16   45 1
    35   17   18 1
    36   17   46 1
    37   18   19 2
    38   18   20 2
    39   18   21 1
    40   21   26 ar
    41   21   22 ar
    42   22   23 ar
    43   22   47 1
    44   23   24 ar
    45   23   48 1
    46   24   25 ar
    47   24   27 1
    48   25   26 ar
    49   25   49 1
    50   26   50 1
@<TRIPOS>MOLECULE
ZINC03826241
   64    63     0     0     0
SMALL
USER_CHARGES

@<TRIPOS>ATOM
      1 C1         -0.9023    2.1143    0.2015 C.3       1 <0>        -0.1552
      2 C2         -0.5019    0.6439    0.3372 C.3       1 <0>        -0.1247
      3 C3         -1.7579   -0.2297    0.3263 C.3       1 <0>        -0.1202
      4 C4         -1.3576   -1.7002    0.4620 C.3       1 <0>        -0.1216
      5 C5         -2.6136   -2.5738    0.4511 C.3       1 <0>         0.0734
      6 H1         -3.1952   -2.3627   -0.4462 H         1 <0>         0.1237
      7 C6         -2.2148   -4.0270    0.4610 C.2       1 <0>         0.3279
      8 O1         -2.5694   -4.7443    1.3655 O.2       1 <0>        -0.4402
      9 N1         -3.4222   -2.2812    1.6372 N.am      1 <0>        -0.7103
     10 C7         -4.7499   -2.5122    1.6214 C.2       1 <0>         0.5236
     11 O2         -5.2843   -2.9091    0.6076 O.2       1 <0>        -0.5347
     12 C8         -5.5704   -2.2774    2.8634 C.3       1 <0>         0.1308
     13 H2         -5.3201   -1.3042    3.2857 H         1 <0>         0.1119
     14 C9         -5.2676   -3.3715    3.8892 C.3       1 <0>        -0.1165
     15 C10        -3.7900   -3.3082    4.2811 C.3       1 <0>        -0.1129
     16 C11        -3.5164   -2.0021    5.0297 C.3       1 <0>        -0.1559
     17 C12        -3.4509   -4.4949    5.1853 C.3       1 <0>        -0.1408
     18 N2         -6.9945   -2.3096    2.5212 N.am      1 <0>        -0.7188
     19 C13        -7.8949   -1.7125    3.3270 C.2       1 <0>         0.5055
     20 O3         -7.5196   -1.0732    4.2868 O.2       1 <0>        -0.5044
     21 C14        -9.3680   -1.8393    3.0353 C.3       1 <0>         0.1365
     22 H3         -9.5872   -2.8552    2.7067 H         1 <0>         0.1098
     23 C15        -9.7565   -0.8518    1.9331 C.3       1 <0>        -0.1291
     24 C16       -11.2342   -1.0353    1.5817 C.3       1 <0>        -0.0910
     25 C17       -11.6585    0.0431    0.5827 C.3       1 <0>        -0.1477
     26 C18       -11.4427   -2.4174    0.9594 C.3       1 <0>        -0.1522
     27 N3        -10.1334   -1.5427    4.2487 N.am      1 <0>        -0.7217
     28 C19       -10.0209   -0.3359    4.8383 C.2       1 <0>         0.5169
     29 O4         -9.2860    0.5044    4.3643 O.2       1 <0>        -0.5150
     30 C20       -10.8082   -0.0308    6.0865 C.3       1 <0>        -0.1698
     31 H4         -0.0075    2.7367    0.2092 H         1 <0>         0.0553
     32 H5         -1.4380    2.2600   -0.7365 H         1 <0>         0.0544
     33 H6         -1.5465    2.3939    1.0351 H         1 <0>         0.0541
     34 H7          0.1423    0.3643   -0.4964 H         1 <0>         0.0637
     35 H8          0.0339    0.4983    1.2752 H         1 <0>         0.0622
     36 H9         -2.4022    0.0498    1.1599 H         1 <0>         0.0643
     37 H10        -2.2937   -0.0841   -0.6117 H         1 <0>         0.0677
     38 H11        -0.7133   -1.9797   -0.3716 H         1 <0>         0.0908
     39 H12        -0.8218   -1.8458    1.4000 H         1 <0>         0.0746
     40 H13        -1.6118   -4.4270   -0.3408 H         1 <0>         0.1056
     41 H14        -3.0020   -1.9213    2.4340 H         1 <0>         0.4077
     42 H15        -5.8851   -3.2205    4.7746 H         1 <0>         0.0810
     43 H16        -5.4869   -4.3471    3.4553 H         1 <0>         0.0715
     44 H17        -3.1738   -3.3481    3.3829 H         1 <0>         0.0876
     45 H18        -4.0760   -1.9954    5.9651 H         1 <0>         0.0618
     46 H19        -2.4506   -1.9222    5.2434 H         1 <0>         0.0581
     47 H20        -3.8278   -1.1584    4.4139 H         1 <0>         0.0529
     48 H21        -3.6457   -5.4254    4.6520 H         1 <0>         0.0557
     49 H22        -2.3982   -4.4498    5.4646 H         1 <0>         0.0558
     50 H23        -4.0671   -4.4550    6.0836 H         1 <0>         0.0535
     51 H24        -7.2895   -2.7607    1.7147 H         1 <0>         0.4087
     52 H25        -9.5900    0.1670    2.2829 H         1 <0>         0.0936
     53 H26        -9.1470   -1.0364    1.0485 H         1 <0>         0.0743
     54 H27       -11.8362   -0.9496    2.4863 H         1 <0>         0.0716
     55 H28       -12.7303   -0.0332    0.3991 H         1 <0>         0.0556
     56 H29       -11.4290    1.0273    0.9911 H         1 <0>         0.0550
     57 H30       -11.1187   -0.0966   -0.3539 H         1 <0>         0.0552
     58 H31       -11.1404   -3.1856    1.6711 H         1 <0>         0.0531
     59 H32       -12.4954   -2.5481    0.7090 H         1 <0>         0.0567
     60 H33       -10.8407   -2.5031    0.0547 H         1 <0>         0.0572
     61 H34       -10.7211   -2.2148    4.6279 H         1 <0>         0.4040
     62 H35       -11.4071   -0.8996    6.3598 H         1 <0>         0.0728
     63 H36       -10.1224    0.2080    6.8994 H         1 <0>         0.0939
     64 H37       -11.4646    0.8198    5.9032 H         1 <0>         0.0926
@<TRIPOS>BOND
     1    1    2 1
     2    1   31 1
     3    1   32 1
     4    1   33 1
     5    2    3 1
     6    2   34 1
     7    2   35 1
     8    3    4 1
     9    3   36 1
    10    3   37 1
    11    4    5 1
    12    4   38 1
    13    4   39 1
    14    5    6 1
    15    5    7 1
    16    5    9 1
    17    7    8 2
    18    7   40 1
    19    9   10 am
    20    9   41 1
    21   10   11 2
    22   10   12 1
    23   12   13 1
    24   12   14 1
    25   12   18 1
    26   14   15 1
    27   14   42 1
    28   14   43 1
    29   15   16 1
    30   15   17 1
    31   15   44 1
    32   16   45 1
    33   16   46 1
    34   16   47 1
    35   17   48 1
    36   17   49 1
    37   17   50 1
    38   18   19 am
    39   18   51 1
    40   19   20 2
    41   19   21 1
    42   21   22 1
    43   21   23 1
    44   21   27 1
    45   23   24 1
    46   23   52 1
    47   23   53 1
    48   24   25 1
    49   24   26 1
    50   24   54 1
    51   25   55 1
    52   25   56 1
    53   25   57 1
    54   26   58 1
    55   26   59 1
    56   26   60 1
    57   27   28 am
    58   27   61 1
    59   28   29 2
    60   28   30 1
    61   30   62 1
    62   30   63 1
    63   30   64 1
@<TRIPOS>MOLECULE
ZINC06070256
   51    53     0     0     0
SMALL
USER_CHARGES

@<TRIPOS>ATOM
      1 C1         -0.2587    1.2802    1.1676 C.3       1 <0>        -0.1175
      2 C2         -0.2190   -0.2129    0.9677 C.ar      1 <0>        -0.0689
      3 C3         -0.2256   -0.7370   -0.3133 C.ar      1 <0>        -0.0864
      4 C4         -0.1655   -2.0958   -0.5035 C.ar      1 <0>        -0.1225
      5 C5         -0.0427   -2.9502    0.6076 C.ar      1 <0>         0.0643
      6 C6         -0.0926   -2.4270    1.8857 C.ar      1 <0>         0.1161
      7 C7         -0.1704   -1.0532    2.0647 C.ar      1 <0>        -0.1204
      8 O1         -0.0607   -3.2551    2.9639 O.3       1 <0>        -0.4873
      9 O2          0.2621   -4.2547    0.3629 O.3       1 <0>        -0.2538
     10 C8         -0.6437   -4.9957   -0.3247 C.ar      1 <0>         0.1306
     11 C9         -1.7938   -5.4803    0.2686 C.ar      1 <0>        -0.1280
     12 C10        -2.6875   -6.2316   -0.4748 C.ar      1 <0>        -0.0594
     13 C11        -2.4469   -6.5068   -1.8084 C.ar      1 <0>        -0.1370
     14 C12        -1.2974   -6.0296   -2.4251 C.ar      1 <0>         0.1691
     15 C13        -0.3944   -5.2721   -1.6808 C.ar      1 <0>        -0.2078
     16 C14         0.8503   -4.7230   -2.2698 C.2       1 <0>         0.5393
     17 O3          1.7151   -5.4277   -2.7522 O.2       1 <0>        -0.4336
     18 O4          0.9468   -3.3571   -2.2267 O.3       1 <0>        -0.3204
     19 C15        -0.2957   -2.7221   -1.8702 C.3       1 <0>         0.0813
     20 O5         -1.0569   -6.2970   -3.7330 O.3       1 <0>        -0.3295
     21 C16        -0.3431   -7.4991   -4.0289 C.3       1 <0>         0.0309
     22 C17        -3.4359   -7.3272   -2.5959 C.3       1 <0>         0.1499
     23 H1         -2.9025   -7.9403   -3.3224 H         1 <0>         0.1165
     24 C18        -4.4035   -6.3950   -3.3278 C.3       1 <0>        -0.1405
     25 C19        -5.3585   -7.2248   -4.1882 C.3       1 <0>        -0.0930
     26 C20        -6.4039   -6.3049   -4.8220 C.3       1 <0>        -0.1485
     27 C21        -4.5675   -7.9331   -5.2899 C.3       1 <0>        -0.1504
     28 O6         -4.1691   -8.1719   -1.7066 O.3       1 <0>        -0.5486
     29 H2          0.7588    1.6705    1.1934 H         1 <0>         0.0781
     30 H3         -0.8043    1.7425    0.3450 H         1 <0>         0.0728
     31 H4         -0.7591    1.5077    2.1088 H         1 <0>         0.0723
     32 H5         -0.2786   -0.0757   -1.1655 H         1 <0>         0.1386
     33 H6         -0.1973   -0.6400    3.0622 H         1 <0>         0.1428
     34 H7          0.8303   -3.4433    3.2891 H         1 <0>         0.3961
     35 H8         -1.9946   -5.2737    1.3094 H         1 <0>         0.1493
     36 H9         -3.5853   -6.6077   -0.0070 H         1 <0>         0.1437
     37 H10        -1.0925   -3.4657   -1.8548 H         1 <0>         0.0979
     38 H11        -0.5327   -1.9504   -2.6026 H         1 <0>         0.1157
     39 H12        -0.1324   -7.5429   -5.0974 H         1 <0>         0.1038
     40 H13         0.5944   -7.5111   -3.4729 H         1 <0>         0.0631
     41 H14        -0.9468   -8.3601   -3.7420 H         1 <0>         0.0524
     42 H15        -4.9763   -5.8213   -2.5992 H         1 <0>         0.0680
     43 H16        -3.8397   -5.7135   -3.9648 H         1 <0>         0.0794
     44 H17        -5.8575   -7.9668   -3.5649 H         1 <0>         0.0780
     45 H18        -5.9049   -5.5629   -5.4453 H         1 <0>         0.0543
     46 H19        -7.0843   -6.8960   -5.4349 H         1 <0>         0.0565
     47 H20        -6.9674   -5.8003   -4.0371 H         1 <0>         0.0533
     48 H21        -5.2479   -8.5243   -5.9029 H         1 <0>         0.0557
     49 H22        -4.0685   -7.1911   -5.9132 H         1 <0>         0.0556
     50 H23        -3.8227   -8.5885   -4.8384 H         1 <0>         0.0545
     51 H24        -4.6691   -7.6928   -1.0317 H         1 <0>         0.3737
@<TRIPOS>BOND
     1    1    2 1
     2    1   29 1
     3    1   30 1
     4    1   31 1
     5    2    7 ar
     6    2    3 ar
     7    3    4 ar
     8    3   32 1
     9    4   19 1
    10    4    5 ar
    11    5    6 ar
    12    5    9 1
    13    6    7 ar
    14    6    8 1
    15    7   33 1
    16    8   34 1
    17    9   10 1
    18   10   15 ar
    19   10   11 ar
    20   11   12 ar
    21   11   35 1
    22   12   13 ar
    23   12   36 1
    24   13   14 ar
    25   13   22 1
    26   14   15 ar
    27   14   20 1
    28   15   16 1
    29   16   17 2
    30   16   18 1
    31   18   19 1
    32   19   37 1
    33   19   38 1
    34   20   21 1
    35   21   39 1
    36   21   40 1
    37   21   41 1
    38   22   23 1
    39   22   24 1
    40   22   28 1
    41   24   25 1
    42   24   42 1
    43   24   43 1
    44   25   26 1
    45   25   27 1
    46   25   44 1
    47   26   45 1
    48   26   46 1
    49   26   47 1
    50   27   48 1
    51   27   49 1
    52   27   50 1
    53   28   51 1
@<TRIPOS>MOLECULE
ZINC27306749
   42    45     0     0     0
SMALL
USER_CHARGES
1-(2-chloro-4-hydroxy-phenyl)-4-oxo-7-(4-pyridyl)quinoline-3-carboxamide
@<TRIPOS>ATOM
      1 C1         -0.0203    4.1632    0.0266 C.ar      1 <0>        -0.1302
      2 C2          1.1712    3.4971    0.0106 C.ar      1 <0>        -0.0307
      3 C3          1.1880    2.1015    0.0020 C.ar      1 <0>        -0.1681
      4 C4         -0.0166    1.3757    0.0096 C.ar      1 <0>         0.1860
      5 C5         -1.2241    2.0644    0.0307 C.ar      1 <0>        -0.1382
      6 C6         -1.2251    3.4539    0.0343 C.ar      1 <0>         0.0042
      7 C7         -2.5131    4.1896    0.0522 C.ar      1 <0>        -0.0062
      8 C8         -3.7314    3.5044    0.0543 C.ar      1 <0>        -0.1604
      9 C9         -4.9063    4.2280    0.0758 C.ar      1 <0>         0.1042
     10 N1         -4.8891    5.5469    0.0841 N.ar      1 <0>        -0.4820
     11 C10        -3.7617    6.2316    0.0775 C.ar      1 <0>         0.1050
     12 C11        -2.5416    5.5871    0.0614 C.ar      1 <0>        -0.1583
     13 N2          0.0021   -0.0041    0.0020 N.pl3     1 <0>        -0.4317
     14 C12         1.1397   -0.7141   -0.0126 C.2       1 <0>         0.2144
     15 C13         2.3812   -0.1122   -0.0208 C.2       1 <0>        -0.3167
     16 C14         2.4606    1.3568   -0.0137 C.2       1 <0>         0.4311
     17 O1          3.5338    1.9343   -0.0200 O.2       1 <0>        -0.4409
     18 C15         3.6064   -0.9267   -0.0368 C.2       1 <0>         0.5812
     19 O2          4.6961   -0.3861   -0.0439 O.2       1 <0>        -0.5221
     20 N3          3.5214   -2.2718   -0.0437 N.am      1 <0>        -0.8820
     21 C16        -1.2182   -0.6918    0.0095 C.ar      1 <0>         0.0476
     22 C17        -1.5615   -1.4861    1.0958 C.ar      1 <0>        -0.0505
     23 C18        -2.7666   -2.1594    1.1049 C.ar      1 <0>        -0.1441
     24 C19        -3.6306   -2.0520    0.0242 C.ar      1 <0>         0.1946
     25 C20        -3.2870   -1.2633   -1.0640 C.ar      1 <0>        -0.1989
     26 C21        -2.0836   -0.5843   -1.0727 C.ar      1 <0>         0.0099
     27 Cl1        -1.6527    0.4019   -2.4348 Cl        1 <0>        -0.0340
     28 O3         -4.8147   -2.7197    0.0323 O.3       1 <0>        -0.4965
     29 H1         -0.0323    5.2431    0.0329 H         1 <0>         0.1391
     30 H2          2.0994    4.0492    0.0051 H         1 <0>         0.1483
     31 H3         -2.1577    1.5216    0.0409 H         1 <0>         0.1362
     32 H4         -3.7529    2.4247    0.0429 H         1 <0>         0.1331
     33 H5         -5.8526    3.7074    0.0821 H         1 <0>         0.1587
     34 H6         -3.7939    7.3111    0.0844 H         1 <0>         0.1610
     35 H7         -1.6224    6.1540    0.0564 H         1 <0>         0.1416
     36 H8          1.0821   -1.7925   -0.0179 H         1 <0>         0.1654
     37 H9          4.4374   -2.8807   -0.0557 H         1 <0>         0.4278
     38 H10         2.5360   -2.7607   -0.0374 H         1 <0>         0.4063
     39 H11        -0.8876   -1.5737    1.9352 H         1 <0>         0.1502
     40 H12        -3.0352   -2.7737    1.9516 H         1 <0>         0.1494
     41 H13        -3.9600   -1.1802   -1.9046 H         1 <0>         0.1503
     42 H14        -5.4998   -2.6349   -0.8241 H         1 <0>         0.4462
@<TRIPOS>BOND
     1    1    6 ar
     2    1    2 ar
     3    1   29 1
     4    2    3 ar
     5    2   30 1
     6    3   16 1
     7    3    4 ar
     8    4    5 ar
     9    4   13 1
    10    5    6 ar
    11    5   31 1
    12    6    7 1
    13    7   12 ar
    14    7    8 ar
    15    8    9 ar
    16    8   32 1
    17    9   10 ar
    18    9   33 1
    19   10   11 ar
    20   11   12 ar
    21   11   34 1
    22   12   35 1
    23   13   14 1
    24   13   21 1
    25   14   15 2
    26   14   36 1
    27   15   16 1
    28   15   18 1
    29   16   17 2
    30   18   19 2
    31   18   20 am
    32   20   37 1
    33   20   38 1
    34   21   26 ar
    35   21   22 ar
    36   22   23 ar
    37   22   39 1
    38   23   24 ar
    39   23   40 1
    40   24   25 ar
    41   24   28 1
    42   25   26 ar
    43   25   41 1
    44   26   27 1
    45   28   42 1
@<TRIPOS>MOLECULE
ZINC00006651
   19    19     0     0     0
SMALL
USER_CHARGES
3-(4-iodophenyl)-2-sulfanyl-prop-2-enoic acid
@<TRIPOS>ATOM
      1 C1         -2.5023    1.2653    0.0049 C.ar      1 <0>        -0.0522
      2 C2         -3.7252    1.9005   -0.0331 C.ar      1 <0>        -0.0949
      3 C3         -3.7900    3.2808   -0.1234 C.ar      1 <0>        -0.0924
      4 C4         -2.6289    4.0341   -0.1698 C.ar      1 <0>        -0.0981
      5 C5         -1.3985    3.4138   -0.1270 C.ar      1 <0>        -0.1098
      6 C6         -1.3248    2.0197   -0.0363 C.ar      1 <0>        -0.0482
      7 C7         -0.0163    1.3502    0.0095 C.3       1 <0>        -0.1049
      8 C8          0.1379    0.2131    0.7290 C.2       1 <0>         0.1432
      9 C9          1.3924   -0.5470    0.6420 C.2       1 <0>         0.4544
     10 O1          2.2919   -0.1553   -0.0759 O.co2     1 <0>        -0.6080
     11 S1         -1.1659   -0.3546    1.7695 S.2       1 <0>        -0.5032
     12 I1         -5.6541    4.2345   -0.1893 I         1 <0>        -0.0602
     13 H1         -2.4534    0.1884    0.0704 H         1 <0>         0.1550
     14 H2         -4.6351    1.3198    0.0030 H         1 <0>         0.1277
     15 H3         -2.6875    5.1102   -0.2402 H         1 <0>         0.1261
     16 H4         -0.4938    4.0026   -0.1636 H         1 <0>         0.1292
     17 H5          0.8207    1.7628   -0.5343 H         1 <0>         0.1717
     18 H6          0.5160    1.7108    0.7754 H         1 <0>         0.1420
     19 O2          1.5459   -1.6792    1.3584 O.co2     1 <0>        -0.6773
@<TRIPOS>BOND
     1    1    6 ar
     2    1    2 ar
     3    1   13 1
     4    2    3 ar
     5    2   14 1
     6    3    4 ar
     7    3   12 1
     8    4    5 ar
     9    4   15 1
    10    5    6 ar
    11    5   16 1
    12    6    7 1
    13    7   17 1
    14    7   18 1
    15    7    8 1
    16    8    9 1
    17    8   11 2
    18    9   10 2
    19    9   19 1
@<TRIPOS>MOLECULE
ZINC00018551
   33    34     0     0     0
SMALL
USER_CHARGES
6-benzyl-3-isopropyl-1H-pyrazin-2-one
@<TRIPOS>ATOM
      1 C1         -3.7930    1.7592    5.1008 C.3       1 <0>        -0.1335
      2 C2         -2.7515    2.8119    4.7158 C.3       1 <0>        -0.0269
      3 C3         -1.7503    2.9812    5.8603 C.3       1 <0>        -0.1457
      4 C4         -2.0237    2.3675    3.4733 C.2       1 <0>         0.0657
      5 C5         -1.0819    3.2246    2.8592 C.2       1 <0>         0.4845
      6 O1         -0.8512    4.3269    3.3278 O.2       1 <0>        -0.5259
      7 N1         -0.4369    2.8034    1.7499 N.am      1 <0>        -0.5915
      8 H1          0.2389    3.3900    1.3035 H         1 <0>         0.4224
      9 C6         -0.7181    1.5718    1.2479 C.2       1 <0>         0.1291
     10 C7         -1.6281    0.7777    1.8642 C.2       1 <0>        -0.0399
     11 N2         -2.2619    1.1860    2.9601 N.2       1 <0>        -0.3879
     12 C8         -0.0127    1.0858    0.0080 C.3       1 <0>        -0.0472
     13 C9         -0.7416    1.5850   -1.2129 C.ar      1 <0>        -0.0939
     14 C10        -1.7499    0.8246   -1.7750 C.ar      1 <0>        -0.1061
     15 C11        -2.4217    1.2848   -2.8921 C.ar      1 <0>        -0.1158
     16 C12        -2.0785    2.5007   -3.4529 C.ar      1 <0>        -0.1149
     17 C13        -1.0663    3.2585   -2.8942 C.ar      1 <0>        -0.1163
     18 C14        -0.3980    2.8008   -1.7740 C.ar      1 <0>        -0.1154
     19 H2         -3.2952    0.8085    5.2917 H         1 <0>         0.0622
     20 H3         -4.3194    2.0806    5.9995 H         1 <0>         0.0574
     21 H4         -4.5062    1.6386    4.2854 H         1 <0>         0.0580
     22 H5         -3.2493    3.7626    4.5249 H         1 <0>         0.0916
     23 H6         -1.0084    3.7311    5.5861 H         1 <0>         0.0668
     24 H7         -2.2768    3.3026    6.7590 H         1 <0>         0.0660
     25 H8         -1.2526    2.0305    6.0512 H         1 <0>         0.0535
     26 H9         -1.8413   -0.2007    1.4595 H         1 <0>         0.1726
     27 H10         0.0021   -0.0041    0.0020 H         1 <0>         0.1124
     28 H11         1.0099    1.4631    0.0003 H         1 <0>         0.0960
     29 H12        -2.0153   -0.1273   -1.3392 H         1 <0>         0.1268
     30 H13        -3.2122    0.6925   -3.3288 H         1 <0>         0.1263
     31 H14        -2.6009    2.8585   -4.3278 H         1 <0>         0.1247
     32 H15        -0.7979    4.2083   -3.3326 H         1 <0>         0.1250
     33 H16         0.3927    3.3928   -1.3375 H         1 <0>         0.1199
@<TRIPOS>BOND
     1    1    2 1
     2    1   19 1
     3    1   20 1
     4    1   21 1
     5    2    3 1
     6    2    4 1
     7    2   22 1
     8    3   23 1
     9    3   24 1
    10    3   25 1
    11    4   11 2
    12    4    5 1
    13    5    6 2
    14    5    7 am
    15    7    8 1
    16    7    9 1
    17    9   10 2
    18    9   12 1
    19   10   11 1
    20   10   26 1
    21   12   13 1
    22   12   27 1
    23   12   28 1
    24   13   18 ar
    25   13   14 ar
    26   14   15 ar
    27   14   29 1
    28   15   16 ar
    29   15   30 1
    30   16   17 ar
    31   16   31 1
    32   17   18 ar
    33   17   32 1
    34   18   33 1
@<TRIPOS>MOLECULE
ZINC27618719
   56    56     0     0     0
SMALL
USER_CHARGES
benzyl N-[(1S,2S)-1-[[(1S)-1-formyl-3-methyl-butyl]carbamoyl]-2-methyl-butyl]carbamate
@<TRIPOS>ATOM
      1 C1          0.0820    2.1520   -2.7508 C.3       1 <0>        -0.1630
      2 C2          0.2326    0.8462   -1.9677 C.3       1 <0>        -0.1363
      3 C3          0.7344    1.1535   -0.5554 C.3       1 <0>        -0.0950
      4 H1          1.6496    1.7608   -0.6155 H         1 <0>         0.0877
      5 C4          1.0385   -0.1566    0.1740 C.3       1 <0>        -0.1521
      6 C5         -0.3408    1.9263    0.2111 C.3       1 <0>         0.1532
      7 H2         -0.6033    2.8593   -0.3091 H         1 <0>         0.1162
      8 C6         -1.5673    1.0639    0.3627 C.2       1 <0>         0.5279
      9 O1         -1.8149    0.5440    1.4301 O.2       1 <0>        -0.5350
     10 N1         -2.3891    0.8704   -0.6878 N.am      1 <0>        -0.7229
     11 C7         -3.6302    0.1110   -0.5168 C.3       1 <0>         0.0767
     12 H3         -4.0116    0.3220    0.4932 H         1 <0>         0.1238
     13 C8         -4.6395    0.5361   -1.5852 C.3       1 <0>        -0.1165
     14 C9         -5.0260    2.0004   -1.3678 C.3       1 <0>        -0.0949
     15 C10        -5.9270    2.4656   -2.5136 C.3       1 <0>        -0.1508
     16 C11        -5.7757    2.1385   -0.0412 C.3       1 <0>        -0.1541
     17 C12        -3.3414   -1.3615   -0.6561 C.2       1 <0>         0.3247
     18 O2         -2.2151   -1.7378   -0.8756 O.2       1 <0>        -0.4407
     19 N2          0.1688    2.2879    1.5361 N.am      1 <0>        -0.7087
     20 C13         0.8762    3.4234    1.6993 C.2       1 <0>         0.6543
     21 O3          1.0124    4.1933    0.7691 O.2       1 <0>        -0.5760
     22 O4          1.4319    3.7048    2.8929 O.3       1 <0>        -0.3622
     23 C14         2.1798    4.9451    2.9959 C.3       1 <0>         0.1287
     24 C15         2.7239    5.0890    4.3939 C.ar      1 <0>        -0.1012
     25 C16         1.9782    5.7341    5.3627 C.ar      1 <0>        -0.0932
     26 C17         2.4752    5.8619    6.6463 C.ar      1 <0>        -0.1234
     27 C18         3.7221    5.3533    6.9585 C.ar      1 <0>        -0.1072
     28 C19         4.4702    4.7131    5.9882 C.ar      1 <0>        -0.1234
     29 C20         3.9709    4.5808    4.7059 C.ar      1 <0>        -0.0930
     30 H4         -0.2788    1.9311   -3.7662 H         1 <0>         0.0603
     31 H5          1.0567    2.6585   -2.8101 H         1 <0>         0.0628
     32 H6         -0.6402    2.8052   -2.2391 H         1 <0>         0.0536
     33 H7         -0.7421    0.3397   -1.9084 H         1 <0>         0.0781
     34 H8          0.9547    0.1930   -2.4794 H         1 <0>         0.0751
     35 H9          1.3993    0.0643    1.1894 H         1 <0>         0.0572
     36 H10         1.8116   -0.7121   -0.3771 H         1 <0>         0.0598
     37 H11         0.1232   -0.7638    0.2341 H         1 <0>         0.0644
     38 H12        -2.1280    1.2827   -1.6736 H         1 <0>         0.4264
     39 H13        -4.1891    0.4199   -2.5820 H         1 <0>         0.0764
     40 H14        -5.5377   -0.0948   -1.5129 H         1 <0>         0.0904
     41 H15        -4.1171    2.6194   -1.3415 H         1 <0>         0.0729
     42 H16        -6.2049    3.5184   -2.3573 H         1 <0>         0.0578
     43 H17        -6.8359    1.8465   -2.5399 H         1 <0>         0.0574
     44 H18        -5.3880    2.3663   -3.4673 H         1 <0>         0.0561
     45 H19        -6.0536    3.1913    0.1150 H         1 <0>         0.0571
     46 H20        -5.1279    1.8041    0.7825 H         1 <0>         0.0561
     47 H21        -6.6846    1.5194   -0.0675 H         1 <0>         0.0585
     48 H22        -4.1565   -2.0935   -0.5578 H         1 <0>         0.1045
     49 H23        -0.0259    1.6326    2.3979 H         1 <0>         0.4408
     50 H24         3.0129    4.9316    2.2778 H         1 <0>         0.0818
     51 H25         1.5161    5.7932    2.7716 H         1 <0>         0.0815
     52 H26         1.0058    6.1351    5.1178 H         1 <0>         0.1247
     53 H27         1.8909    6.3624    7.4043 H         1 <0>         0.1263
     54 H28         4.1120    5.4564    7.9604 H         1 <0>         0.1252
     55 H29         5.4445    4.3161    6.2320 H         1 <0>         0.1263
     56 H30         4.5554    4.0806    3.9479 H         1 <0>         0.1247
@<TRIPOS>BOND
     1    1    2 1
     2    1   30 1
     3    1   31 1
     4    1   32 1
     5    2    3 1
     6    2   33 1
     7    2   34 1
     8    3    4 1
     9    3    5 1
    10    3    6 1
    11    5   35 1
    12    5   36 1
    13    5   37 1
    14    6    7 1
    15    6    8 1
    16    6   19 1
    17    8    9 2
    18    8   10 am
    19   10   11 1
    20   10   38 1
    21   11   12 1
    22   11   13 1
    23   11   17 1
    24   13   14 1
    25   13   39 1
    26   13   40 1
    27   14   15 1
    28   14   16 1
    29   14   41 1
    30   15   42 1
    31   15   43 1
    32   15   44 1
    33   16   45 1
    34   16   46 1
    35   16   47 1
    36   17   18 2
    37   17   48 1
    38   19   20 am
    39   19   49 1
    40   20   21 2
    41   20   22 1
    42   22   23 1
    43   23   24 1
    44   23   50 1
    45   23   51 1
    46   24   29 ar
    47   24   25 ar
    48   25   26 ar
    49   25   52 1
    50   26   27 ar
    51   26   53 1
    52   27   28 ar
    53   27   54 1
    54   28   29 ar
    55   28   55 1
    56   29   56 1
@<TRIPOS>MOLECULE
ZINC01534489
   54    55     0     0     0
SMALL
USER_CHARGES

@<TRIPOS>ATOM
      1 C1         -0.0187    1.5258    0.0104 C.3       1 <0>        -0.1390
      2 C2          0.0021   -0.0041    0.0020 C.3       1 <0>        -0.1008
      3 C3          0.7421   -0.5109    1.2415 C.3       1 <0>        -0.1480
      4 C4         -1.4333   -0.5336    0.0129 C.3       1 <0>         0.1516
      5 H1         -1.9605   -0.1726   -0.8702 H         1 <0>         0.1198
      6 C5         -1.4129   -2.0405    0.0046 C.2       1 <0>         0.5252
      7 O1         -1.9211   -2.6589    0.9158 O.2       1 <0>        -0.5300
      8 N1         -0.8299   -2.7009   -1.0154 N.am      1 <0>        -0.7064
      9 C6         -0.8100   -4.1658   -1.0235 C.3       1 <0>         0.0836
     10 H2         -0.7057   -4.5333   -0.0026 H         1 <0>         0.1247
     11 C7          0.3705   -4.6552   -1.8648 C.3       1 <0>        -0.0815
     12 C8          1.6618   -4.2426   -1.2065 C.ar      1 <0>        -0.0862
     13 C9          2.2373   -3.0246   -1.5166 C.ar      1 <0>        -0.1116
     14 C10         3.4218   -2.6461   -0.9128 C.ar      1 <0>        -0.1146
     15 C11         4.0305   -3.4854    0.0015 C.ar      1 <0>        -0.1185
     16 C12         3.4545   -4.7030    0.3123 C.ar      1 <0>        -0.1159
     17 C13         2.2678   -5.0796   -0.2883 C.ar      1 <0>        -0.1128
     18 C14        -2.0964   -4.6824   -1.6145 C.2       1 <0>         0.3287
     19 O2         -2.9425   -3.9069   -1.9901 O.2       1 <0>        -0.4403
     20 N2         -2.1190   -0.0612    1.2182 N.am      1 <0>        -0.6893
     21 C15        -2.7041    1.1529    1.2285 C.2       1 <0>         0.6538
     22 O3         -2.6628    1.8557    0.2381 O.2       1 <0>        -0.5648
     23 O4         -3.3343    1.5871    2.3362 O.3       1 <0>        -0.3574
     24 C16        -3.9321    2.8837    2.2764 C.3       1 <0>         0.1293
     25 C17        -4.5858    3.1969    3.5977 C.ar      1 <0>        -0.1011
     26 C18        -5.9050    2.8467    3.8163 C.ar      1 <0>        -0.0930
     27 C19        -6.5046    3.1340    5.0283 C.ar      1 <0>        -0.1232
     28 C20        -5.7848    3.7710    6.0217 C.ar      1 <0>        -0.1073
     29 C21        -4.4653    4.1204    5.8034 C.ar      1 <0>        -0.1236
     30 C22        -3.8644    3.8293    4.5930 C.ar      1 <0>        -0.0934
     31 H3          1.0039    1.9031    0.0027 H         1 <0>         0.0544
     32 H4         -0.5459    1.8868   -0.8726 H         1 <0>         0.0676
     33 H5         -0.5289    1.8773    0.9072 H         1 <0>         0.0542
     34 H6          0.5123   -0.3556   -0.8948 H         1 <0>         0.0847
     35 H7          0.2319   -0.1594    2.1383 H         1 <0>         0.0578
     36 H8          0.7568   -1.6008    1.2356 H         1 <0>         0.0552
     37 H9          1.7647   -0.1336    1.2338 H         1 <0>         0.0621
     38 H10        -0.4234   -2.2064   -1.7442 H         1 <0>         0.4047
     39 H11         0.3342   -5.7417   -1.9444 H         1 <0>         0.1008
     40 H12         0.3138   -4.2158   -2.8607 H         1 <0>         0.0856
     41 H13         1.7618   -2.3689   -2.2310 H         1 <0>         0.1178
     42 H14         3.8718   -1.6949   -1.1556 H         1 <0>         0.1221
     43 H15         4.9563   -3.1900    0.4727 H         1 <0>         0.1212
     44 H16         3.9302   -5.3588    1.0264 H         1 <0>         0.1224
     45 H17         1.8158   -6.0292   -0.0427 H         1 <0>         0.1232
     46 H18        -2.2617   -5.7460   -1.7020 H         1 <0>         0.1077
     47 H19        -2.1520   -0.6222    2.0088 H         1 <0>         0.4163
     48 H20        -3.1646    3.6283    2.0653 H         1 <0>         0.0787
     49 H21        -4.6828    2.9016    1.4864 H         1 <0>         0.0787
     50 H22        -6.4674    2.3490    3.0402 H         1 <0>         0.1249
     51 H23        -7.5355    2.8610    5.1989 H         1 <0>         0.1263
     52 H24        -6.2535    3.9961    6.9684 H         1 <0>         0.1252
     53 H25        -3.9031    4.6184    6.5795 H         1 <0>         0.1262
     54 H26        -2.8324    4.0989    4.4238 H         1 <0>         0.1246
@<TRIPOS>BOND
     1    1    2 1
     2    1   31 1
     3    1   32 1
     4    1   33 1
     5    2    3 1
     6    2    4 1
     7    2   34 1
     8    3   35 1
     9    3   36 1
    10    3   37 1
    11    4    5 1
    12    4    6 1
    13    4   20 1
    14    6    7 2
    15    6    8 am
    16    8    9 1
    17    8   38 1
    18    9   10 1
    19    9   11 1
    20    9   18 1
    21   11   12 1
    22   11   39 1
    23   11   40 1
    24   12   17 ar
    25   12   13 ar
    26   13   14 ar
    27   13   41 1
    28   14   15 ar
    29   14   42 1
    30   15   16 ar
    31   15   43 1
    32   16   17 ar
    33   16   44 1
    34   17   45 1
    35   18   19 2
    36   18   46 1
    37   20   21 am
    38   20   47 1
    39   21   22 2
    40   21   23 1
    41   23   24 1
    42   24   25 1
    43   24   48 1
    44   24   49 1
    45   25   30 ar
    46   25   26 ar
    47   26   27 ar
    48   26   50 1
    49   27   28 ar
    50   27   51 1
    51   28   29 ar
    52   28   52 1
    53   29   30 ar
    54   29   53 1
    55   30   54 1
@<TRIPOS>MOLECULE
ZINC01996112
   54    55     0     0     0
SMALL
USER_CHARGES

@<TRIPOS>ATOM
      1 C1         -0.0187    1.5258    0.0104 C.3       1 <0>        -0.1388
      2 C2          0.0021   -0.0041    0.0020 C.3       1 <0>        -0.1007
      3 C3          0.7421   -0.5109    1.2415 C.3       1 <0>        -0.1535
      4 C4         -1.4333   -0.5336    0.0129 C.3       1 <0>         0.1524
      5 H1         -1.9605   -0.1726   -0.8702 H         1 <0>         0.1187
      6 C5         -1.4129   -2.0405    0.0046 C.2       1 <0>         0.5248
      7 O1         -1.9211   -2.6589    0.9158 O.2       1 <0>        -0.5301
      8 N1         -0.8299   -2.7009   -1.0154 N.am      1 <0>        -0.7063
      9 C6         -0.8100   -4.1658   -1.0235 C.3       1 <0>         0.0832
     10 H2         -1.7322   -4.5441   -0.5824 H         1 <0>         0.1242
     11 C7         -0.6911   -4.6663   -2.4644 C.3       1 <0>        -0.0809
     12 C8         -1.9279   -4.2801   -3.2340 C.ar      1 <0>        -0.0874
     13 C9         -3.0158   -5.1323   -3.2666 C.ar      1 <0>        -0.1131
     14 C10        -4.1503   -4.7781   -3.9726 C.ar      1 <0>        -0.1162
     15 C11        -4.1970   -3.5714   -4.6455 C.ar      1 <0>        -0.1189
     16 C12        -3.1095   -2.7188   -4.6120 C.ar      1 <0>        -0.1162
     17 C13        -1.9766   -3.0712   -3.9026 C.ar      1 <0>        -0.1133
     18 C14         0.3683   -4.6566   -0.2224 C.2       1 <0>         0.3291
     19 O2          1.1145   -3.8645    0.3013 O.2       1 <0>        -0.4383
     20 N2         -2.1190   -0.0612    1.2182 N.am      1 <0>        -0.6893
     21 C15        -2.7041    1.1529    1.2285 C.2       1 <0>         0.6538
     22 O3         -2.6628    1.8557    0.2381 O.2       1 <0>        -0.5654
     23 O4         -3.3343    1.5871    2.3362 O.3       1 <0>        -0.3574
     24 C16        -3.9321    2.8837    2.2764 C.3       1 <0>         0.1295
     25 C17        -4.5858    3.1969    3.5977 C.ar      1 <0>        -0.1012
     26 C18        -5.9050    2.8467    3.8163 C.ar      1 <0>        -0.0931
     27 C19        -6.5046    3.1340    5.0283 C.ar      1 <0>        -0.1233
     28 C20        -5.7848    3.7710    6.0217 C.ar      1 <0>        -0.1072
     29 C21        -4.4653    4.1204    5.8034 C.ar      1 <0>        -0.1235
     30 C22        -3.8644    3.8293    4.5930 C.ar      1 <0>        -0.0932
     31 H3          1.0039    1.9031    0.0027 H         1 <0>         0.0544
     32 H4         -0.5459    1.8868   -0.8726 H         1 <0>         0.0668
     33 H5         -0.5289    1.8773    0.9072 H         1 <0>         0.0537
     34 H6          0.5123   -0.3556   -0.8948 H         1 <0>         0.0845
     35 H7          0.2319   -0.1594    2.1383 H         1 <0>         0.0554
     36 H8          0.7568   -1.6008    1.2356 H         1 <0>         0.0664
     37 H9          1.7647   -0.1336    1.2338 H         1 <0>         0.0605
     38 H10        -0.4234   -2.2064   -1.7442 H         1 <0>         0.4047
     39 H11         0.1840   -4.2172   -2.9340 H         1 <0>         0.0856
     40 H12        -0.5870   -5.7513   -2.4647 H         1 <0>         0.1008
     41 H13        -2.9793   -6.0750   -2.7409 H         1 <0>         0.1238
     42 H14        -5.0000   -5.4442   -3.9987 H         1 <0>         0.1231
     43 H15        -5.0831   -3.2950   -5.1976 H         1 <0>         0.1221
     44 H16        -3.1458   -1.7763   -5.1380 H         1 <0>         0.1231
     45 H17        -1.1283   -2.4034   -3.8734 H         1 <0>         0.1188
     46 H18         0.5454   -5.7167   -0.1165 H         1 <0>         0.1071
     47 H19        -2.1520   -0.6222    2.0088 H         1 <0>         0.4165
     48 H20        -3.1646    3.6283    2.0653 H         1 <0>         0.0787
     49 H21        -4.6828    2.9016    1.4864 H         1 <0>         0.0785
     50 H22        -6.4674    2.3490    3.0402 H         1 <0>         0.1247
     51 H23        -7.5355    2.8610    5.1989 H         1 <0>         0.1263
     52 H24        -6.2535    3.9961    6.9684 H         1 <0>         0.1252
     53 H25        -3.9031    4.6184    6.5795 H         1 <0>         0.1263
     54 H26        -2.8324    4.0989    4.4238 H         1 <0>         0.1247
@<TRIPOS>BOND
     1    1    2 1
     2    1   31 1
     3    1   32 1
     4    1   33 1
     5    2    3 1
     6    2    4 1
     7    2   34 1
     8    3   35 1
     9    3   36 1
    10    3   37 1
    11    4    5 1
    12    4    6 1
    13    4   20 1
    14    6    7 2
    15    6    8 am
    16    8    9 1
    17    8   38 1
    18    9   10 1
    19    9   11 1
    20    9   18 1
    21   11   12 1
    22   11   39 1
    23   11   40 1
    24   12   17 ar
    25   12   13 ar
    26   13   14 ar
    27   13   41 1
    28   14   15 ar
    29   14   42 1
    30   15   16 ar
    31   15   43 1
    32   16   17 ar
    33   16   44 1
    34   17   45 1
    35   18   19 2
    36   18   46 1
    37   20   21 am
    38   20   47 1
    39   21   22 2
    40   21   23 1
    41   23   24 1
    42   24   25 1
    43   24   48 1
    44   24   49 1
    45   25   30 ar
    46   25   26 ar
    47   26   27 ar
    48   26   50 1
    49   27   28 ar
    50   27   51 1
    51   28   29 ar
    52   28   52 1
    53   29   30 ar
    54   29   53 1
    55   30   54 1
@<TRIPOS>MOLECULE
ZINC05962743
   69    68     0     0     0
SMALL
USER_CHARGES
(2S)-2-acetamido-N-[(1R)-1-[[(1R)-1-formyl-4-guanidino-butyl]carbamoyl]-3-methyl-butyl]-4-methyl-pentanamide
@<TRIPOS>ATOM
      1 C1         -0.2008   -1.5734  -11.6230 C.3       1 <0>        -0.1505
      2 C2         -0.6390   -2.1548  -10.2774 C.3       1 <0>        -0.0901
      3 C3          0.5115   -2.9611   -9.6713 C.3       1 <0>        -0.1526
      4 C4         -1.0186   -1.0158   -9.3290 C.3       1 <0>        -0.1293
      5 C5         -1.5743   -1.5990   -8.0282 C.3       1 <0>         0.1424
      6 H1         -0.8740   -2.3253   -7.5899 H         1 <0>         0.1070
      7 C6         -1.8333   -0.4839   -7.0481 C.2       1 <0>         0.5068
      8 O1         -2.9588   -0.0578   -6.8979 O.2       1 <0>        -0.5090
      9 N1         -0.8142    0.0398   -6.3385 N.am      1 <0>        -0.7355
     10 C7         -1.0805    1.0454   -5.3069 C.3       1 <0>         0.1394
     11 H2         -2.0634    0.8184   -4.8684 H         1 <0>         0.1066
     12 C8         -1.0690    2.4390   -5.9382 C.3       1 <0>        -0.1208
     13 C9         -1.4968    3.4745   -4.8963 C.3       1 <0>        -0.1022
     14 C10        -1.3500    4.8797   -5.4835 C.3       1 <0>        -0.1473
     15 C11        -2.9570    3.2340   -4.5079 C.3       1 <0>        -0.1532
     16 C12        -0.0165    0.9673   -4.2426 C.2       1 <0>         0.5252
     17 O2          1.0561    0.4597   -4.4935 O.2       1 <0>        -0.5324
     18 N2         -0.2568    1.4614   -3.0119 N.am      1 <0>        -0.7301
     19 C13         0.7369    1.2941   -1.9485 C.3       1 <0>         0.0809
     20 H3          1.2274    0.3217   -2.1030 H         1 <0>         0.1211
     21 C14         0.0410    1.3484   -0.5870 C.3       1 <0>        -0.1198
     22 C15        -0.9043    0.1532   -0.4494 C.3       1 <0>        -0.1402
     23 C16        -1.6003    0.2076    0.9120 C.3       1 <0>         0.0974
     24 N3         -2.5054   -0.9368    1.0438 N.pl3     1 <0>        -0.6846
     25 C17        -2.3018   -1.8248    1.9760 C.cat     1 <0>         0.7378
     26 N4         -1.3152   -1.6248    2.9122 N.pl3     1 <0>        -0.8538
     27 N5         -3.0737   -2.9615    2.0229 N.pl3     1 <0>        -0.8511
     28 C18         1.7570    2.3999   -2.0357 C.2       1 <0>         0.3187
     29 O3          1.6637    3.2409   -2.8972 O.2       1 <0>        -0.4281
     30 N6         -2.8270   -2.3058   -8.3059 N.am      1 <0>        -0.7371
     31 C19        -3.8722   -1.6413   -8.8375 C.2       1 <0>         0.5172
     32 O4         -3.7756   -0.4582   -9.0859 O.2       1 <0>        -0.5165
     33 C20        -5.1609   -2.3685   -9.1231 C.3       1 <0>        -0.1754
     34 H4         -1.0279   -0.9937  -12.0588 H         1 <0>         0.0556
     35 H5          0.0722   -2.3923  -12.3048 H         1 <0>         0.0572
     36 H6          0.6684   -0.9162  -11.4728 H         1 <0>         0.0557
     37 H7         -1.5082   -2.8120  -10.4276 H         1 <0>         0.0717
     38 H8          0.1965   -3.3791   -8.7038 H         1 <0>         0.0518
     39 H9          1.3807   -2.3038   -9.5212 H         1 <0>         0.0570
     40 H10         0.7844   -3.7800  -10.3532 H         1 <0>         0.0577
     41 H11        -0.1273   -0.4102   -9.1080 H         1 <0>         0.0728
     42 H12        -1.7833   -0.3831   -9.8033 H         1 <0>         0.0948
     43 H13         0.2175   -0.2878   -6.5339 H         1 <0>         0.4300
     44 H14        -0.0541    2.6728   -6.2922 H         1 <0>         0.0723
     45 H15        -1.7680    2.4627   -6.7872 H         1 <0>         0.0857
     46 H16        -0.8600    3.3816   -4.0042 H         1 <0>         0.0770
     47 H17        -1.6576    5.6241   -4.7343 H         1 <0>         0.0572
     48 H18        -1.9867    4.9726   -6.3757 H         1 <0>         0.0577
     49 H19        -0.3001    5.0526   -5.7626 H         1 <0>         0.0568
     50 H20        -3.2645    3.9785   -3.7588 H         1 <0>         0.0577
     51 H21        -3.0625    2.2238   -4.0856 H         1 <0>         0.0478
     52 H22        -3.5938    3.3268   -5.4000 H         1 <0>         0.0647
     53 H23        -1.1991    1.9903   -2.8059 H         1 <0>         0.4244
     54 H24         0.7959    1.3128    0.2123 H         1 <0>         0.0963
     55 H25        -0.5346    2.2823   -0.5064 H         1 <0>         0.0862
     56 H26        -1.6591    0.1888   -1.2488 H         1 <0>         0.0847
     57 H27        -0.3287   -0.7807   -0.5299 H         1 <0>         0.0802
     58 H28        -0.8455    0.1721    1.7114 H         1 <0>         0.0929
     59 H29        -2.1759    1.1415    0.9925 H         1 <0>         0.1104
     60 H30        -1.1434   -2.3742    3.6989 H         1 <0>         0.4614
     61 H31        -0.6975   -0.7154    2.8746 H         1 <0>         0.4569
     62 H32        -2.9019   -3.7109    2.8096 H         1 <0>         0.4634
     63 H33        -3.8631   -3.1216    1.2737 H         1 <0>         0.4622
     64 H34         2.5866    2.4409   -1.3146 H         1 <0>         0.1073
     65 H35        -2.9147   -3.3789   -8.0806 H         1 <0>         0.4239
     66 H36        -5.8911   -1.6661   -9.5514 H         1 <0>         0.0912
     67 H37        -5.5604   -2.7877   -8.1879 H         1 <0>         0.0839
     68 H38        -4.9718   -3.1824   -9.8385 H         1 <0>         0.0863
     69 H39        -3.3568   -1.0467    0.3561 H         1 <0>         0.4667
@<TRIPOS>BOND
     1    1    2 1
     2    1   34 1
     3    1   35 1
     4    1   36 1
     5    2    3 1
     6    2    4 1
     7    2   37 1
     8    3   38 1
     9    3   39 1
    10    3   40 1
    11    4    5 1
    12    4   41 1
    13    4   42 1
    14    5    6 1
    15    5    7 1
    16    5   30 1
    17    7    8 2
    18    7    9 am
    19    9   10 1
    20    9   43 1
    21   10   11 1
    22   10   12 1
    23   10   16 1
    24   12   13 1
    25   12   44 1
    26   12   45 1
    27   13   14 1
    28   13   15 1
    29   13   46 1
    30   14   47 1
    31   14   48 1
    32   14   49 1
    33   15   50 1
    34   15   51 1
    35   15   52 1
    36   16   17 2
    37   16   18 am
    38   18   19 1
    39   18   53 1
    40   19   20 1
    41   19   21 1
    42   19   28 1
    43   21   22 1
    44   21   54 1
    45   21   55 1
    46   22   23 1
    47   22   56 1
    48   22   57 1
    49   23   24 1
    50   23   58 1
    51   23   59 1
    52   24   25 2
    53   24   69 1
    54   25   26 1
    55   25   27 1
    56   26   60 1
    57   26   61 1
    58   27   62 1
    59   27   63 1
    60   28   29 2
    61   28   64 1
    62   30   31 am
    63   30   65 1
    64   31   32 2
    65   31   33 1
    66   33   66 1
    67   33   67 1
    68   33   68 1
@<TRIPOS>MOLECULE
ZINC01605725
   39    39     0     0     0
SMALL
USER_CHARGES
2-(2-amino-3-methyl-butanoyl)amino-3-phenyl-propanoic acid
@<TRIPOS>ATOM
      1 C1          2.8376    2.8908    3.7933 C.3       1 <0>        -0.1754
      2 C2          4.2369    2.3610    3.4736 C.3       1 <0>        -0.1055
      3 C3          4.9389    1.9586    4.7722 C.3       1 <0>        -0.1652
      4 C4          4.1234    1.1418    2.5562 C.3       1 <0>         0.0139
      5 H1          3.5457    0.3640    3.0555 H         1 <0>         0.1556
      6 C5          3.4320    1.5382    1.2772 C.2       1 <0>         0.5041
      7 O1          4.0841    1.7593    0.2788 O.2       1 <0>        -0.5316
      8 N1          2.0891    1.6470    1.2428 N.am      1 <0>        -0.6645
      9 C6          1.4170    2.0324   -0.0006 C.3       1 <0>         0.1059
     10 H2          1.9538    1.6096   -0.8498 H         1 <0>         0.0981
     11 C7         -0.0184    1.5028    0.0103 C.3       1 <0>        -0.0795
     12 C8          0.0021   -0.0041    0.0020 C.ar      1 <0>        -0.0728
     13 C9         -0.0057   -0.6888   -1.1988 C.ar      1 <0>        -0.1129
     14 C10         0.0179   -2.0709   -1.2065 C.ar      1 <0>        -0.1144
     15 C11         0.0387   -2.7685   -0.0132 C.ar      1 <0>        -0.1297
     16 C12         0.0412   -2.0838    1.1877 C.ar      1 <0>        -0.1220
     17 C13         0.0229   -0.7016    1.1953 C.ar      1 <0>        -0.1258
     18 C14         1.3973    3.5348   -0.1161 C.2       1 <0>         0.4585
     19 O2          1.8937    4.2140    0.7511 O.co2     1 <0>        -0.6269
     20 H3          2.3376    3.1775    2.8681 H         1 <0>         0.1034
     21 H4          2.2599    2.1130    4.2926 H         1 <0>         0.0616
     22 H5          2.9185    3.7594    4.4468 H         1 <0>         0.0801
     23 H6          4.8146    3.1389    2.9743 H         1 <0>         0.1036
     24 H7          5.9357    1.5812    4.5444 H         1 <0>         0.0505
     25 H8          5.0197    2.8272    5.4257 H         1 <0>         0.0875
     26 H9          4.3611    1.1808    5.2715 H         1 <0>         0.0729
     27 H10         1.5676    1.4702    2.0414 H         1 <0>         0.3994
     28 H11        -0.5455    1.8639   -0.8728 H         1 <0>         0.1063
     29 H12        -0.5286    1.8543    0.9071 H         1 <0>         0.0765
     30 H13        -0.0264   -0.1439   -2.1310 H         1 <0>         0.1265
     31 H14         0.0156   -2.6059   -2.1447 H         1 <0>         0.1220
     32 H15         0.0527   -3.8484   -0.0191 H         1 <0>         0.1191
     33 H16         0.0571   -2.6288    2.1200 H         1 <0>         0.1184
     34 H17         0.0244   -0.1667    2.1335 H         1 <0>         0.1151
     35 H18         5.4170   -0.2101    1.6975 H         1 <0>         0.4390
     36 H19         6.0226    1.3363    1.7857 H         1 <0>         0.4435
     37 O3          0.8282    4.1184   -1.1826 O.co2     1 <0>        -0.7441
     38 N2          5.4753    0.6286    2.2728 N.4       1 <0>        -0.6285
     39 H20         5.9404    0.3959    3.1580 H         1 <0>         0.4376
@<TRIPOS>BOND
     1    1    2 1
     2    1   20 1
     3    1   21 1
     4    1   22 1
     5    2    3 1
     6    2    4 1
     7    2   23 1
     8    3   24 1
     9    3   25 1
    10    3   26 1
    11    4    5 1
    12    4    6 1
    13    4   38 1
    14    6    7 2
    15    6    8 am
    16    8    9 1
    17    8   27 1
    18    9   10 1
    19    9   11 1
    20    9   18 1
    21   11   12 1
    22   11   28 1
    23   11   29 1
    24   12   17 ar
    25   12   13 ar
    26   13   14 ar
    27   13   30 1
    28   14   15 ar
    29   14   31 1
    30   15   16 ar
    31   15   32 1
    32   16   17 ar
    33   16   33 1
    34   17   34 1
    35   18   19 2
    36   18   37 1
    37   35   38 1
    38   36   38 1
    39   38   39 1
@<TRIPOS>MOLECULE
ZINC03871838
   56    56     0     0     0
SMALL
USER_CHARGES

@<TRIPOS>ATOM
      1 C1         -1.6781    3.5053    0.2498 C.3       1 <0>        -0.1552
      2 C2         -1.0703    2.1013    0.2319 C.3       1 <0>        -0.1250
      3 C3         -2.1911    1.0610    0.1805 C.3       1 <0>        -0.1203
      4 C4         -1.5834   -0.3430    0.1626 C.3       1 <0>        -0.1217
      5 C5         -2.7042   -1.3832    0.1112 C.3       1 <0>         0.0735
      6 H1         -3.3509   -1.1786   -0.7421 H         1 <0>         0.1246
      7 C6         -2.1063   -2.7593   -0.0302 C.2       1 <0>         0.3277
      8 O1         -2.3145   -3.5977    0.8135 O.2       1 <0>        -0.4397
      9 N1         -3.4894   -1.3165    1.3462 N.am      1 <0>        -0.7089
     10 C7         -4.7711   -1.7332    1.3532 C.2       1 <0>         0.5234
     11 O2         -5.2924   -2.1083    0.3244 O.2       1 <0>        -0.5300
     12 C8         -5.5565   -1.7329    2.6393 C.3       1 <0>         0.1470
     13 H2         -5.4265   -0.7757    3.1443 H         1 <0>         0.1175
     14 C9         -5.0535   -2.8594    3.5443 C.3       1 <0>        -0.1221
     15 C10        -3.5824   -2.6183    3.8889 C.3       1 <0>        -0.1125
     16 C11        -3.4600   -1.3591    4.7495 C.3       1 <0>        -0.1571
     17 C12        -3.0363   -3.8199    4.6627 C.3       1 <0>        -0.1413
     18 N2         -6.9764   -1.9407    2.3445 N.am      1 <0>        -0.6956
     19 C13        -7.9128   -1.5561    3.2344 C.2       1 <0>         0.6539
     20 O3         -7.5857   -0.9574    4.2398 O.2       1 <0>        -0.5679
     21 O4         -9.2104   -1.8355    3.0092 O.3       1 <0>        -0.3562
     22 C14       -10.1486   -1.3982    3.9944 C.3       1 <0>         0.1287
     23 C15       -11.5401   -1.7969    3.5750 C.ar      1 <0>        -0.1015
     24 C16       -12.2996   -0.9418    2.7985 C.ar      1 <0>        -0.0932
     25 C17       -13.5759   -1.3075    2.4138 C.ar      1 <0>        -0.1233
     26 C18       -14.0926   -2.5285    2.8052 C.ar      1 <0>        -0.1071
     27 C19       -13.3328   -3.3839    3.5809 C.ar      1 <0>        -0.1233
     28 C20       -12.0548   -3.0200    3.9620 C.ar      1 <0>        -0.0931
     29 H3         -0.8796    4.2464    0.2865 H         1 <0>         0.0553
     30 H4         -2.2722    3.6556   -0.6516 H         1 <0>         0.0544
     31 H5         -2.3154    3.6142    1.1274 H         1 <0>         0.0539
     32 H6         -0.4330    1.9924   -0.6456 H         1 <0>         0.0638
     33 H7         -0.4762    1.9510    1.1333 H         1 <0>         0.0624
     34 H8         -2.8284    1.1699    1.0580 H         1 <0>         0.0644
     35 H9         -2.7852    1.2113   -0.7209 H         1 <0>         0.0680
     36 H10        -0.9461   -0.4519   -0.7149 H         1 <0>         0.0914
     37 H11        -0.9893   -0.4932    1.0640 H         1 <0>         0.0752
     38 H12        -1.4915   -2.9956   -0.8861 H         1 <0>         0.1064
     39 H13        -3.0868   -0.9724    2.1589 H         1 <0>         0.4084
     40 H14        -5.6428   -2.8796    4.4610 H         1 <0>         0.0848
     41 H15        -5.1537   -3.8134    3.0267 H         1 <0>         0.0752
     42 H16        -3.0107   -2.4875    2.9702 H         1 <0>         0.0884
     43 H17        -2.4070   -1.1451    4.9324 H         1 <0>         0.0592
     44 H18        -3.9167   -0.5174    4.2289 H         1 <0>         0.0529
     45 H19        -3.9690   -1.5179    5.7001 H         1 <0>         0.0633
     46 H20        -3.1235   -4.7169    4.0497 H         1 <0>         0.0564
     47 H21        -1.9883   -3.6481    4.9082 H         1 <0>         0.0566
     48 H22        -3.6080   -3.9507    5.5815 H         1 <0>         0.0545
     49 H23        -7.2427   -2.3549    1.5088 H         1 <0>         0.4178
     50 H24        -9.9114   -1.8605    4.9526 H         1 <0>         0.0792
     51 H25       -10.0949   -0.3138    4.0911 H         1 <0>         0.0790
     52 H26       -11.8959    0.0121    2.4928 H         1 <0>         0.1248
     53 H27       -14.1696   -0.6392    1.8078 H         1 <0>         0.1264
     54 H28       -15.0901   -2.8139    2.5052 H         1 <0>         0.1253
     55 H29       -13.7366   -4.3377    3.8869 H         1 <0>         0.1264
     56 H30       -11.4597   -3.6899    4.5650 H         1 <0>         0.1249
@<TRIPOS>BOND
     1    1    2 1
     2    1   29 1
     3    1   30 1
     4    1   31 1
     5    2    3 1
     6    2   32 1
     7    2   33 1
     8    3    4 1
     9    3   34 1
    10    3   35 1
    11    4    5 1
    12    4   36 1
    13    4   37 1
    14    5    6 1
    15    5    7 1
    16    5    9 1
    17    7    8 2
    18    7   38 1
    19    9   10 am
    20    9   39 1
    21   10   11 2
    22   10   12 1
    23   12   13 1
    24   12   14 1
    25   12   18 1
    26   14   15 1
    27   14   40 1
    28   14   41 1
    29   15   16 1
    30   15   17 1
    31   15   42 1
    32   16   43 1
    33   16   44 1
    34   16   45 1
    35   17   46 1
    36   17   47 1
    37   17   48 1
    38   18   19 am
    39   18   49 1
    40   19   20 2
    41   19   21 1
    42   21   22 1
    43   22   23 1
    44   22   50 1
    45   22   51 1
    46   23   28 ar
    47   23   24 ar
    48   24   25 ar
    49   24   52 1
    50   25   26 ar
    51   25   53 1
    52   26   27 ar
    53   26   54 1
    54   27   28 ar
    55   27   55 1
    56   28   56 1
