@<TRIPOS>MOLECULE
ZINC02569810
   38    39     0     0     0
SMALL
USER_CHARGES
benzyl (1-benzyl-2-oxo-ethyl)aminoformate
@<TRIPOS>ATOM
      1 C1          1.1750    6.0081    4.9849 C.ar      1 <0>        -0.1187
      2 C2         -0.0749    5.6873    4.4890 C.ar      1 <0>        -0.1168
      3 C3         -0.6411    4.4610    4.7829 C.ar      1 <0>        -0.1105
      4 C4          0.0424    3.5555    5.5725 C.ar      1 <0>        -0.0896
      5 C5          1.2900    3.8783    6.0727 C.ar      1 <0>        -0.1123
      6 C6          1.8586    5.1025    5.7745 C.ar      1 <0>        -0.1171
      7 C7         -0.5751    2.2187    5.8932 C.3       1 <0>        -0.0831
      8 C8         -0.1723    1.2012    4.8240 C.3       1 <0>         0.1143
      9 H1          0.8245    1.1725    4.7499 H         1 <0>         0.1117
     10 C9         -0.6870   -0.1620    5.2086 C.2       1 <0>         0.3258
     11 O1         -1.4543   -0.7451    4.4810 O.2       1 <0>        -0.4382
     12 N1         -0.7466    1.5941    3.5349 N.am      1 <0>        -0.6941
     13 C10        -0.1645    1.1929    2.3874 C.2       1 <0>         0.6563
     14 O2          0.8367    0.5052    2.4222 O.2       1 <0>        -0.5722
     15 O3         -0.6923    1.5541    1.2026 O.3       1 <0>        -0.3620
     16 C11        -0.0127    1.0858    0.0080 C.3       1 <0>         0.1310
     17 C12        -0.7416    1.5850   -1.2129 C.ar      1 <0>        -0.1015
     18 C13        -1.7499    0.8246   -1.7750 C.ar      1 <0>        -0.0926
     19 C14        -2.4217    1.2848   -2.8921 C.ar      1 <0>        -0.1232
     20 C15        -2.0785    2.5007   -3.4529 C.ar      1 <0>        -0.1069
     21 C16        -1.0663    3.2585   -2.8942 C.ar      1 <0>        -0.1237
     22 C17        -0.3980    2.8008   -1.7740 C.ar      1 <0>        -0.0930
     23 H2          1.6173    6.9664    4.7556 H         1 <0>         0.1221
     24 H3         -0.6091    6.3950    3.8724 H         1 <0>         0.1228
     25 H4         -1.6178    4.2106    4.3958 H         1 <0>         0.1194
     26 H5          1.8222    3.1725    6.6933 H         1 <0>         0.1246
     27 H6          2.8349    5.3533    6.1622 H         1 <0>         0.1235
     28 H7         -1.6607    2.3152    5.9124 H         1 <0>         0.0882
     29 H8         -0.2232    1.8803    6.8678 H         1 <0>         0.1051
     30 H9         -0.3696   -0.6175    6.1350 H         1 <0>         0.1119
     31 H10        -1.5459    2.1431    3.5071 H         1 <0>         0.4091
     32 H11         0.0021   -0.0041    0.0020 H         1 <0>         0.0810
     33 H12         1.0099    1.4631    0.0003 H         1 <0>         0.0808
     34 H13        -2.0153   -0.1273   -1.3392 H         1 <0>         0.1252
     35 H14        -3.2122    0.6925   -3.3288 H         1 <0>         0.1266
     36 H15        -2.6009    2.8585   -4.3278 H         1 <0>         0.1254
     37 H16        -0.7979    4.2083   -3.3326 H         1 <0>         0.1263
     38 H17         0.3927    3.3928   -1.3375 H         1 <0>         0.1246
@<TRIPOS>BOND
     1    1    6 ar
     2    1    2 ar
     3    1   23 1
     4    2    3 ar
     5    2   24 1
     6    3    4 ar
     7    3   25 1
     8    4    5 ar
     9    4    7 1
    10    5    6 ar
    11    5   26 1
    12    6   27 1
    13    7    8 1
    14    7   28 1
    15    7   29 1
    16    8    9 1
    17    8   10 1
    18    8   12 1
    19   10   11 2
    20   10   30 1
    21   12   13 am
    22   12   31 1
    23   13   14 2
    24   13   15 1
    25   15   16 1
    26   16   17 1
    27   16   32 1
    28   16   33 1
    29   17   22 ar
    30   17   18 ar
    31   18   19 ar
    32   18   34 1
    33   19   20 ar
    34   19   35 1
    35   20   21 ar
    36   20   36 1
    37   21   22 ar
    38   21   37 1
    39   22   38 1
@<TRIPOS>MOLECULE
ZINC01534489
   54    55     0     0     0
SMALL
USER_CHARGES

@<TRIPOS>ATOM
      1 C1         -0.0187    1.5258    0.0104 C.3       1 <0>        -0.1390
      2 C2          0.0021   -0.0041    0.0020 C.3       1 <0>        -0.1008
      3 C3          0.7421   -0.5109    1.2415 C.3       1 <0>        -0.1480
      4 C4         -1.4333   -0.5336    0.0129 C.3       1 <0>         0.1516
      5 H1         -1.9605   -0.1726   -0.8702 H         1 <0>         0.1198
      6 C5         -1.4129   -2.0405    0.0046 C.2       1 <0>         0.5252
      7 O1         -1.9211   -2.6589    0.9158 O.2       1 <0>        -0.5300
      8 N1         -0.8299   -2.7009   -1.0154 N.am      1 <0>        -0.7064
      9 C6         -0.8100   -4.1658   -1.0235 C.3       1 <0>         0.0836
     10 H2         -0.7057   -4.5333   -0.0026 H         1 <0>         0.1247
     11 C7          0.3705   -4.6552   -1.8648 C.3       1 <0>        -0.0815
     12 C8          1.6618   -4.2426   -1.2065 C.ar      1 <0>        -0.0862
     13 C9          2.2373   -3.0246   -1.5166 C.ar      1 <0>        -0.1116
     14 C10         3.4218   -2.6461   -0.9128 C.ar      1 <0>        -0.1146
     15 C11         4.0305   -3.4854    0.0015 C.ar      1 <0>        -0.1185
     16 C12         3.4545   -4.7030    0.3123 C.ar      1 <0>        -0.1159
     17 C13         2.2678   -5.0796   -0.2883 C.ar      1 <0>        -0.1128
     18 C14        -2.0964   -4.6824   -1.6145 C.2       1 <0>         0.3287
     19 O2         -2.9425   -3.9069   -1.9901 O.2       1 <0>        -0.4403
     20 N2         -2.1190   -0.0612    1.2182 N.am      1 <0>        -0.6893
     21 C15        -2.7041    1.1529    1.2285 C.2       1 <0>         0.6538
     22 O3         -2.6628    1.8557    0.2381 O.2       1 <0>        -0.5648
     23 O4         -3.3343    1.5871    2.3362 O.3       1 <0>        -0.3574
     24 C16        -3.9321    2.8837    2.2764 C.3       1 <0>         0.1293
     25 C17        -4.5858    3.1969    3.5977 C.ar      1 <0>        -0.1011
     26 C18        -5.9050    2.8467    3.8163 C.ar      1 <0>        -0.0930
     27 C19        -6.5046    3.1340    5.0283 C.ar      1 <0>        -0.1232
     28 C20        -5.7848    3.7710    6.0217 C.ar      1 <0>        -0.1073
     29 C21        -4.4653    4.1204    5.8034 C.ar      1 <0>        -0.1236
     30 C22        -3.8644    3.8293    4.5930 C.ar      1 <0>        -0.0934
     31 H3          1.0039    1.9031    0.0027 H         1 <0>         0.0544
     32 H4         -0.5459    1.8868   -0.8726 H         1 <0>         0.0676
     33 H5         -0.5289    1.8773    0.9072 H         1 <0>         0.0542
     34 H6          0.5123   -0.3556   -0.8948 H         1 <0>         0.0847
     35 H7          0.2319   -0.1594    2.1383 H         1 <0>         0.0578
     36 H8          0.7568   -1.6008    1.2356 H         1 <0>         0.0552
     37 H9          1.7647   -0.1336    1.2338 H         1 <0>         0.0621
     38 H10        -0.4234   -2.2064   -1.7442 H         1 <0>         0.4047
     39 H11         0.3342   -5.7417   -1.9444 H         1 <0>         0.1008
     40 H12         0.3138   -4.2158   -2.8607 H         1 <0>         0.0856
     41 H13         1.7618   -2.3689   -2.2310 H         1 <0>         0.1178
     42 H14         3.8718   -1.6949   -1.1556 H         1 <0>         0.1221
     43 H15         4.9563   -3.1900    0.4727 H         1 <0>         0.1212
     44 H16         3.9302   -5.3588    1.0264 H         1 <0>         0.1224
     45 H17         1.8158   -6.0292   -0.0427 H         1 <0>         0.1232
     46 H18        -2.2617   -5.7460   -1.7020 H         1 <0>         0.1077
     47 H19        -2.1520   -0.6222    2.0088 H         1 <0>         0.4163
     48 H20        -3.1646    3.6283    2.0653 H         1 <0>         0.0787
     49 H21        -4.6828    2.9016    1.4864 H         1 <0>         0.0787
     50 H22        -6.4674    2.3490    3.0402 H         1 <0>         0.1249
     51 H23        -7.5355    2.8610    5.1989 H         1 <0>         0.1263
     52 H24        -6.2535    3.9961    6.9684 H         1 <0>         0.1252
     53 H25        -3.9031    4.6184    6.5795 H         1 <0>         0.1262
     54 H26        -2.8324    4.0989    4.4238 H         1 <0>         0.1246
@<TRIPOS>BOND
     1    1    2 1
     2    1   31 1
     3    1   32 1
     4    1   33 1
     5    2    3 1
     6    2    4 1
     7    2   34 1
     8    3   35 1
     9    3   36 1
    10    3   37 1
    11    4    5 1
    12    4    6 1
    13    4   20 1
    14    6    7 2
    15    6    8 am
    16    8    9 1
    17    8   38 1
    18    9   10 1
    19    9   11 1
    20    9   18 1
    21   11   12 1
    22   11   39 1
    23   11   40 1
    24   12   17 ar
    25   12   13 ar
    26   13   14 ar
    27   13   41 1
    28   14   15 ar
    29   14   42 1
    30   15   16 ar
    31   15   43 1
    32   16   17 ar
    33   16   44 1
    34   17   45 1
    35   18   19 2
    36   18   46 1
    37   20   21 am
    38   20   47 1
    39   21   22 2
    40   21   23 1
    41   23   24 1
    42   24   25 1
    43   24   48 1
    44   24   49 1
    45   25   30 ar
    46   25   26 ar
    47   26   27 ar
    48   26   50 1
    49   27   28 ar
    50   27   51 1
    51   28   29 ar
    52   28   52 1
    53   29   30 ar
    54   29   53 1
    55   30   54 1
@<TRIPOS>MOLECULE
ZINC01996112
   54    55     0     0     0
SMALL
USER_CHARGES

@<TRIPOS>ATOM
      1 C1         -0.0187    1.5258    0.0104 C.3       1 <0>        -0.1388
      2 C2          0.0021   -0.0041    0.0020 C.3       1 <0>        -0.1007
      3 C3          0.7421   -0.5109    1.2415 C.3       1 <0>        -0.1535
      4 C4         -1.4333   -0.5336    0.0129 C.3       1 <0>         0.1524
      5 H1         -1.9605   -0.1726   -0.8702 H         1 <0>         0.1187
      6 C5         -1.4129   -2.0405    0.0046 C.2       1 <0>         0.5248
      7 O1         -1.9211   -2.6589    0.9158 O.2       1 <0>        -0.5301
      8 N1         -0.8299   -2.7009   -1.0154 N.am      1 <0>        -0.7063
      9 C6         -0.8100   -4.1658   -1.0235 C.3       1 <0>         0.0832
     10 H2         -1.7322   -4.5441   -0.5824 H         1 <0>         0.1242
     11 C7         -0.6911   -4.6663   -2.4644 C.3       1 <0>        -0.0809
     12 C8         -1.9279   -4.2801   -3.2340 C.ar      1 <0>        -0.0874
     13 C9         -3.0158   -5.1323   -3.2666 C.ar      1 <0>        -0.1131
     14 C10        -4.1503   -4.7781   -3.9726 C.ar      1 <0>        -0.1162
     15 C11        -4.1970   -3.5714   -4.6455 C.ar      1 <0>        -0.1189
     16 C12        -3.1095   -2.7188   -4.6120 C.ar      1 <0>        -0.1162
     17 C13        -1.9766   -3.0712   -3.9026 C.ar      1 <0>        -0.1133
     18 C14         0.3683   -4.6566   -0.2224 C.2       1 <0>         0.3291
     19 O2          1.1145   -3.8645    0.3013 O.2       1 <0>        -0.4383
     20 N2         -2.1190   -0.0612    1.2182 N.am      1 <0>        -0.6893
     21 C15        -2.7041    1.1529    1.2285 C.2       1 <0>         0.6538
     22 O3         -2.6628    1.8557    0.2381 O.2       1 <0>        -0.5654
     23 O4         -3.3343    1.5871    2.3362 O.3       1 <0>        -0.3574
     24 C16        -3.9321    2.8837    2.2764 C.3       1 <0>         0.1295
     25 C17        -4.5858    3.1969    3.5977 C.ar      1 <0>        -0.1012
     26 C18        -5.9050    2.8467    3.8163 C.ar      1 <0>        -0.0931
     27 C19        -6.5046    3.1340    5.0283 C.ar      1 <0>        -0.1233
     28 C20        -5.7848    3.7710    6.0217 C.ar      1 <0>        -0.1072
     29 C21        -4.4653    4.1204    5.8034 C.ar      1 <0>        -0.1235
     30 C22        -3.8644    3.8293    4.5930 C.ar      1 <0>        -0.0932
     31 H3          1.0039    1.9031    0.0027 H         1 <0>         0.0544
     32 H4         -0.5459    1.8868   -0.8726 H         1 <0>         0.0668
     33 H5         -0.5289    1.8773    0.9072 H         1 <0>         0.0537
     34 H6          0.5123   -0.3556   -0.8948 H         1 <0>         0.0845
     35 H7          0.2319   -0.1594    2.1383 H         1 <0>         0.0554
     36 H8          0.7568   -1.6008    1.2356 H         1 <0>         0.0664
     37 H9          1.7647   -0.1336    1.2338 H         1 <0>         0.0605
     38 H10        -0.4234   -2.2064   -1.7442 H         1 <0>         0.4047
     39 H11         0.1840   -4.2172   -2.9340 H         1 <0>         0.0856
     40 H12        -0.5870   -5.7513   -2.4647 H         1 <0>         0.1008
     41 H13        -2.9793   -6.0750   -2.7409 H         1 <0>         0.1238
     42 H14        -5.0000   -5.4442   -3.9987 H         1 <0>         0.1231
     43 H15        -5.0831   -3.2950   -5.1976 H         1 <0>         0.1221
     44 H16        -3.1458   -1.7763   -5.1380 H         1 <0>         0.1231
     45 H17        -1.1283   -2.4034   -3.8734 H         1 <0>         0.1188
     46 H18         0.5454   -5.7167   -0.1165 H         1 <0>         0.1071
     47 H19        -2.1520   -0.6222    2.0088 H         1 <0>         0.4165
     48 H20        -3.1646    3.6283    2.0653 H         1 <0>         0.0787
     49 H21        -4.6828    2.9016    1.4864 H         1 <0>         0.0785
     50 H22        -6.4674    2.3490    3.0402 H         1 <0>         0.1247
     51 H23        -7.5355    2.8610    5.1989 H         1 <0>         0.1263
     52 H24        -6.2535    3.9961    6.9684 H         1 <0>         0.1252
     53 H25        -3.9031    4.6184    6.5795 H         1 <0>         0.1263
     54 H26        -2.8324    4.0989    4.4238 H         1 <0>         0.1247
@<TRIPOS>BOND
     1    1    2 1
     2    1   31 1
     3    1   32 1
     4    1   33 1
     5    2    3 1
     6    2    4 1
     7    2   34 1
     8    3   35 1
     9    3   36 1
    10    3   37 1
    11    4    5 1
    12    4    6 1
    13    4   20 1
    14    6    7 2
    15    6    8 am
    16    8    9 1
    17    8   38 1
    18    9   10 1
    19    9   11 1
    20    9   18 1
    21   11   12 1
    22   11   39 1
    23   11   40 1
    24   12   17 ar
    25   12   13 ar
    26   13   14 ar
    27   13   41 1
    28   14   15 ar
    29   14   42 1
    30   15   16 ar
    31   15   43 1
    32   16   17 ar
    33   16   44 1
    34   17   45 1
    35   18   19 2
    36   18   46 1
    37   20   21 am
    38   20   47 1
    39   21   22 2
    40   21   23 1
    41   23   24 1
    42   24   25 1
    43   24   48 1
    44   24   49 1
    45   25   30 ar
    46   25   26 ar
    47   26   27 ar
    48   26   50 1
    49   27   28 ar
    50   27   51 1
    51   28   29 ar
    52   28   52 1
    53   29   30 ar
    54   29   53 1
    55   30   54 1
