@<TRIPOS>MOLECULE
ZINC30691809
   63    65     0     0     0
SMALL
USER_CHARGES
3-[3,4-difluoro-5-[(2R)-2-hydroxy-3-[(2-indan-2-yl-1,1-dimethyl-ethyl)amino]propoxy]phenyl]propanoic acid
@<TRIPOS>ATOM
      1 C1          4.8222    8.3801    2.9420 C.3       1 <0>        -0.1852
      2 C2          3.5053    9.1108    3.2114 C.3       1 <0>         0.0671
      3 C3          2.8041    9.4046    1.8837 C.3       1 <0>        -0.1795
      4 C4          3.7913   10.4259    3.9391 C.3       1 <0>        -0.1353
      5 C5          4.4464   10.1296    5.2896 C.3       1 <0>        -0.1177
      6 C6          3.4171    9.5502    6.2832 C.3       1 <0>        -0.0875
      7 C7          3.8146   10.1138    7.6342 C.ar      1 <0>        -0.1079
      8 C8          3.4655    9.7087    8.9118 C.ar      1 <0>        -0.1005
      9 C9          3.9580   10.3812   10.0129 C.ar      1 <0>        -0.1151
     10 C10         4.8027   11.4620    9.8404 C.ar      1 <0>        -0.1065
     11 C11         5.1524   11.8669    8.5672 C.ar      1 <0>        -0.1045
     12 C12         4.6591   11.1942    7.4616 C.ar      1 <0>        -0.0896
     13 C13         4.8859   11.4357    5.9846 C.3       1 <0>        -0.0734
     14 N1          2.6394    8.2676    4.0464 N.4       1 <0>        -0.5399
     15 C14         2.3429    6.9933    3.3782 C.3       1 <0>        -0.0066
     16 C15         1.4409    6.1443    4.2763 C.3       1 <0>         0.1027
     17 H1          1.8584    6.0542    5.2900 H         1 <0>         0.0837
     18 C16         1.2337    4.7696    3.6375 C.3       1 <0>         0.0225
     19 O1          0.4888    3.9375    4.5289 O.3       1 <0>        -0.3059
     20 C17         0.2163    2.6730    4.1103 C.ar      1 <0>         0.1201
     21 C18         0.6614    2.2410    2.8697 C.ar      1 <0>        -0.1902
     22 C19         0.3795    0.9575    2.4428 C.ar      1 <0>         0.0009
     23 C20        -0.3371    0.0981    3.2548 C.ar      1 <0>        -0.1538
     24 C21        -0.7792    0.5227    4.4963 C.ar      1 <0>         0.1145
     25 C22        -0.5034    1.8105    4.9262 C.ar      1 <0>         0.0221
     26 F1         -0.9337    2.2262    6.1375 F         1 <0>        -0.1263
     27 F2         -1.4797   -0.3184    5.2880 F         1 <0>        -0.1198
     28 C23         0.8594    0.4915    1.0924 C.3       1 <0>        -0.0713
     29 C24        -0.2078    0.7957    0.0391 C.3       1 <0>        -0.1516
     30 C25         0.2722    0.3296   -1.3113 C.2       1 <0>         0.4578
     31 O2          1.3565   -0.1922   -1.4201 O.co2     1 <0>        -0.6387
     32 O3         -0.5050    0.4943   -2.3933 O.co2     1 <0>        -0.7680
     33 O4          0.1770    6.7928    4.4315 O.3       1 <0>        -0.6065
     34 H2          5.3263    8.1689    3.8966 H         1 <0>         0.0829
     35 H3          5.4706    9.0115    2.3168 H         1 <0>         0.1069
     36 H4          4.6165    7.4346    2.4189 H         1 <0>         0.0843
     37 H5          1.8573    9.9300    2.0775 H         1 <0>         0.0828
     38 H6          2.5984    8.4591    1.3606 H         1 <0>         0.0841
     39 H7          3.4525   10.0360    1.2585 H         1 <0>         0.1043
     40 H8          4.4692   11.0420    3.3301 H         1 <0>         0.1168
     41 H9          2.8481   10.9684    4.1003 H         1 <0>         0.0922
     42 H10         5.2782    9.4461    5.0637 H         1 <0>         0.1016
     43 H11         2.4058    9.8701    5.9917 H         1 <0>         0.0877
     44 H12         3.4724    8.4517    6.2695 H         1 <0>         0.0678
     45 H13         2.8058    8.8645    9.0473 H         1 <0>         0.1224
     46 H14         3.6839   10.0628   11.0079 H         1 <0>         0.1297
     47 H15         5.1882   11.9894   10.7003 H         1 <0>         0.1298
     48 H16         5.8126   12.7111    8.4332 H         1 <0>         0.1249
     49 H17         5.9461   11.6293    5.7645 H         1 <0>         0.0851
     50 H18         4.2756   12.2721    5.6131 H         1 <0>         0.0894
     51 H19         3.1436    8.0564    5.0010 H         1 <0>         0.4363
     52 H20         1.8307    7.1897    2.4248 H         1 <0>         0.1439
     53 H21         3.2816    6.4531    3.1856 H         1 <0>         0.1452
     54 H22         0.6803    4.8835    2.6937 H         1 <0>         0.0899
     55 H23         2.2115    4.3078    3.4358 H         1 <0>         0.0834
     56 H24         1.2252    2.9092    2.2357 H         1 <0>         0.1425
     57 H25        -0.5527   -0.9058    2.9201 H         1 <0>         0.1536
     58 H26         1.7907    1.0164    0.8331 H         1 <0>         0.0806
     59 H27         1.0457   -0.5922    1.1233 H         1 <0>         0.0860
     60 H28        -1.1391    0.2709    0.2985 H         1 <0>         0.0695
     61 H29        -0.3941    1.8794    0.0081 H         1 <0>         0.0639
     62 H30        -0.6072    6.3289    5.0478 H         1 <0>         0.4497
     63 H31         1.6926    8.7930    4.2402 H         1 <0>         0.4530
@<TRIPOS>BOND
     1    1    2 1
     2    1   34 1
     3    1   35 1
     4    1   36 1
     5    2    3 1
     6    2    4 1
     7    2   14 1
     8    3   37 1
     9    3   38 1
    10    3   39 1
    11    4    5 1
    12    4   40 1
    13    4   41 1
    14    5   13 1
    15    5    6 1
    16    5   42 1
    17    6    7 1
    18    6   43 1
    19    6   44 1
    20    7   12 ar
    21    7    8 ar
    22    8    9 ar
    23    8   45 1
    24    9   10 ar
    25    9   46 1
    26   10   11 ar
    27   10   47 1
    28   11   12 ar
    29   11   48 1
    30   12   13 1
    31   13   49 1
    32   13   50 1
    33   14   15 1
    34   14   51 1
    35   14   63 1
    36   15   16 1
    37   15   52 1
    38   15   53 1
    39   16   17 1
    40   16   18 1
    41   16   33 1
    42   18   19 1
    43   18   54 1
    44   18   55 1
    45   19   20 1
    46   20   25 ar
    47   20   21 ar
    48   21   22 ar
    49   21   56 1
    50   22   23 ar
    51   22   28 1
    52   23   24 ar
    53   23   57 1
    54   24   25 ar
    55   24   27 1
    56   25   26 1
    57   28   29 1
    58   28   58 1
    59   28   59 1
    60   29   30 1
    61   29   60 1
    62   29   61 1
    63   30   31 2
    64   30   32 1
    65   33   62 1
