@<TRIPOS>MOLECULE
ZINC04005594
   40    43     0     0     0
SMALL
USER_CHARGES
N-(4-benzothiazol-2-ylsulfanyl-3-chloro-phenyl)-3,5-dichloro-2-hydroxy-benzamide
@<TRIPOS>ATOM
      1 C1         -0.9674    9.5031   -5.5902 C.ar      1 <0>        -0.1101
      2 C2          0.2660    9.6490   -6.2081 C.ar      1 <0>        -0.0933
      3 C3          1.4180    9.3716   -5.4946 C.ar      1 <0>        -0.0678
      4 C4          1.3233    8.9521   -4.1915 C.ar      1 <0>        -0.1404
      5 C5          0.0845    8.7866   -3.5314 C.ar      1 <0>         0.0835
      6 C6         -1.0718    9.0795   -4.2909 C.ar      1 <0>        -0.0602
      7 N1          0.1555    8.3673   -2.2494 N.2       1 <0>        -0.4829
      8 C7          1.2994    8.1268   -1.6482 C.2       1 <0>         0.1094
      9 S1          2.4886    8.4963   -2.9301 S.3       1 <0>         0.0062
     10 S2          1.5871    7.5799    0.0019 S.3       1 <0>         0.1854
     11 C8          3.3361    7.3715   -0.0454 C.ar      1 <0>        -0.1940
     12 C9          3.8817    6.0973   -0.1368 C.ar      1 <0>        -0.0170
     13 C10         5.2517    5.9345   -0.1797 C.ar      1 <0>        -0.1491
     14 C11         6.0857    7.0437   -0.1199 C.ar      1 <0>         0.2005
     15 C12         5.5415    8.3176   -0.0227 C.ar      1 <0>        -0.1216
     16 C13         4.1704    8.4818    0.0145 C.ar      1 <0>         0.0377
     17 Cl1         3.4896   10.0740    0.1365 Cl        1 <0>        -0.0304
     18 N2          7.4756    6.8773   -0.1580 N.am      1 <0>        -0.6707
     19 C14         8.2721    7.6941    0.5596 C.2       1 <0>         0.5665
     20 O1          7.7910    8.6274    1.1730 O.2       1 <0>        -0.4818
     21 C15         9.7272    7.4559    0.6009 C.ar      1 <0>        -0.1480
     22 C16        10.2840    6.3845   -0.1027 C.ar      1 <0>        -0.0573
     23 C17        11.6449    6.1672   -0.0606 C.ar      1 <0>        -0.0432
     24 C18        12.4647    7.0078    0.6767 C.ar      1 <0>        -0.0553
     25 C19        11.9267    8.0701    1.3770 C.ar      1 <0>        -0.0651
     26 C20        10.5593    8.3060    1.3409 C.ar      1 <0>         0.1932
     27 O2         10.0301    9.3525    2.0238 O.3       1 <0>        -0.4608
     28 Cl2        12.9629    9.1156    2.2973 Cl        1 <0>        -0.0260
     29 Cl3        12.3350    4.8358   -0.9351 Cl        1 <0>        -0.0388
     30 H1         -1.8660    9.7243   -6.1470 H         1 <0>         0.1364
     31 H2          0.3264    9.9799   -7.2344 H         1 <0>         0.1403
     32 H3          2.3860    9.4850   -5.9600 H         1 <0>         0.1337
     33 H4         -2.0477    8.9723   -3.8409 H         1 <0>         0.1349
     34 H5          3.2337    5.2343   -0.1788 H         1 <0>         0.1535
     35 H6          5.6755    4.9439   -0.2552 H         1 <0>         0.1457
     36 H7          6.1901    9.1799    0.0234 H         1 <0>         0.1610
     37 H8          7.8652    6.1741   -0.7010 H         1 <0>         0.4163
     38 H9          9.6492    5.7277   -0.6788 H         1 <0>         0.1475
     39 H10        13.5297    6.8308    0.7041 H         1 <0>         0.1573
     40 H11         9.7726    9.1401    2.9313 H         1 <0>         0.4050
@<TRIPOS>BOND
     1    1    6 ar
     2    1    2 ar
     3    1   30 1
     4    2    3 ar
     5    2   31 1
     6    3    4 ar
     7    3   32 1
     8    4    9 1
     9    4    5 ar
    10    5    6 ar
    11    5    7 1
    12    6   33 1
    13    7    8 2
    14    8    9 1
    15    8   10 1
    16   10   11 1
    17   11   16 ar
    18   11   12 ar
    19   12   13 ar
    20   12   34 1
    21   13   14 ar
    22   13   35 1
    23   14   15 ar
    24   14   18 1
    25   15   16 ar
    26   15   36 1
    27   16   17 1
    28   18   19 am
    29   18   37 1
    30   19   20 2
    31   19   21 1
    32   21   26 ar
    33   21   22 ar
    34   22   23 ar
    35   22   38 1
    36   23   24 ar
    37   23   29 1
    38   24   25 ar
    39   24   39 1
    40   25   26 ar
    41   25   28 1
    42   26   27 1
    43   27   40 1
@<TRIPOS>MOLECULE
ZINC14962120
   62    64     0     0     0
SMALL
USER_CHARGES

@<TRIPOS>ATOM
      1 C1         -2.5885   -2.5504    0.7298 C.3       1 <0>        -0.1507
      2 C2         -1.3989   -1.7888    0.1418 C.3       1 <0>        -0.1237
      3 C3         -0.7679   -2.6160   -0.9801 C.3       1 <0>         0.0574
      4 O1          0.3432   -1.9046   -1.5292 O.3       1 <0>        -0.3146
      5 C4          1.0197   -2.5049   -2.5434 C.ar      1 <0>         0.1311
      6 C5          0.6158   -3.7516   -3.0026 C.ar      1 <0>        -0.1999
      7 C6          1.2995   -4.3643   -4.0309 C.ar      1 <0>        -0.0838
      8 C7          2.3994   -3.7292   -4.6113 C.ar      1 <0>        -0.0544
      9 C8          2.8019   -2.4753   -4.1469 C.ar      1 <0>        -0.0590
     10 C9          2.1094   -1.8674   -3.1216 C.ar      1 <0>        -0.1456
     11 C10         3.1355   -4.3823   -5.7135 C.2       1 <0>         0.0809
     12 C11         3.9008   -3.7505   -6.6503 C.2       1 <0>        -0.1769
     13 C12         4.4171   -4.7296   -7.5064 C.2       1 <0>        -0.1499
     14 C13         3.9570   -5.9398   -7.0755 C.2       1 <0>         0.0495
     15 N1          3.1731   -5.7293   -5.9691 N.pl3     1 <0>        -0.4156
     16 C14         2.4892   -6.7674   -5.1939 C.3       1 <0>         0.0729
     17 C15         1.1603   -7.0780   -5.8330 C.2       1 <0>         0.4920
     18 O2          0.8173   -6.4889   -6.8393 O.2       1 <0>        -0.5095
     19 N2          0.3618   -7.9979   -5.2954 N.2       1 <0>        -0.7032
     20 C16        -0.1060   -8.9893   -6.0431 C.2       1 <0>         0.7056
     21 N3         -1.0180   -9.8599   -5.5272 N.pl3     1 <0>        -0.8215
     22 N4          0.3259   -9.1366   -7.3268 N.pl3     1 <0>        -0.7356
     23 C17        -0.2735  -10.1585   -8.1886 C.3       1 <0>         0.1089
     24 C18         0.3865  -10.1134   -9.5681 C.3       1 <0>        -0.1337
     25 C19        -0.2394  -11.1806  -10.4682 C.3       1 <0>         0.0820
     26 O3          0.3770  -11.1385  -11.7567 O.3       1 <0>        -0.5712
     27 C20         4.2553   -7.2498   -7.6902 C.ar      1 <0>        -0.0059
     28 C21         4.7077   -8.3085   -6.9003 C.ar      1 <0>        -0.1105
     29 C22         4.9840   -9.5290   -7.4804 C.ar      1 <0>        -0.1121
     30 C23         4.8143   -9.7061   -8.8424 C.ar      1 <0>        -0.1072
     31 C24         4.3665   -8.6623   -9.6319 C.ar      1 <0>        -0.1075
     32 C25         4.0806   -7.4366   -9.0637 C.ar      1 <0>        -0.0186
     33 Cl1         3.5118   -6.1295  -10.0544 Cl        1 <0>        -0.0484
     34 H1         -3.3281   -2.7278   -0.0510 H         1 <0>         0.0577
     35 H2         -2.2468   -3.5049    1.1302 H         1 <0>         0.0578
     36 H3         -3.0380   -1.9611    1.5290 H         1 <0>         0.0655
     37 H4         -1.7405   -0.8343   -0.2586 H         1 <0>         0.0740
     38 H5         -0.6592   -1.6115    0.9226 H         1 <0>         0.0741
     39 H6         -0.4262   -3.5705   -0.5797 H         1 <0>         0.0626
     40 H7         -1.5075   -2.7933   -1.7608 H         1 <0>         0.0622
     41 H8         -0.2350   -4.2421   -2.5531 H         1 <0>         0.1288
     42 H9          0.9851   -5.3342   -4.3870 H         1 <0>         0.1243
     43 H10         3.6523   -1.9809   -4.5928 H         1 <0>         0.1368
     44 H11         2.4176   -0.8958   -2.7645 H         1 <0>         0.1354
     45 H12         4.0760   -2.6870   -6.7188 H         1 <0>         0.1413
     46 H13         5.0631   -4.5584   -8.3549 H         1 <0>         0.1391
     47 H14         3.1021   -7.6686   -5.1735 H         1 <0>         0.1144
     48 H15         2.3288   -6.4139   -4.1754 H         1 <0>         0.1248
     49 H16        -1.3255   -9.7550   -4.6132 H         1 <0>         0.4261
     50 H17        -1.3599  -10.5846   -6.0738 H         1 <0>         0.4109
     51 H18         1.0302   -8.5648   -7.6702 H         1 <0>         0.4205
     52 H19        -0.1215  -11.1425   -7.7451 H         1 <0>         0.0725
     53 H20        -1.3417   -9.9669   -8.2904 H         1 <0>         0.0741
     54 H21         0.2346   -9.1293  -10.0116 H         1 <0>         0.0821
     55 H22         1.4547  -10.3049   -9.4663 H         1 <0>         0.0801
     56 H23        -0.0875  -12.1646  -10.0247 H         1 <0>         0.0494
     57 H24        -1.3076  -10.9890  -10.5700 H         1 <0>         0.0497
     58 H25         0.0286  -11.7897  -12.3809 H         1 <0>         0.3850
     59 H26         4.8414   -8.1719   -5.8373 H         1 <0>         0.1285
     60 H27         5.3340  -10.3484   -6.8702 H         1 <0>         0.1308
     61 H28         5.0329  -10.6639   -9.2911 H         1 <0>         0.1331
     62 H29         4.2366   -8.8072  -10.6942 H         1 <0>         0.1372
@<TRIPOS>BOND
     1    1    2 1
     2    1   34 1
     3    1   35 1
     4    1   36 1
     5    2    3 1
     6    2   37 1
     7    2   38 1
     8    3    4 1
     9    3   39 1
    10    3   40 1
    11    4    5 1
    12    5   10 ar
    13    5    6 ar
    14    6    7 ar
    15    6   41 1
    16    7    8 ar
    17    7   42 1
    18    8    9 ar
    19    8   11 1
    20    9   10 ar
    21    9   43 1
    22   10   44 1
    23   11   15 1
    24   11   12 2
    25   12   13 1
    26   12   45 1
    27   13   14 2
    28   13   46 1
    29   14   15 1
    30   14   27 1
    31   15   16 1
    32   16   17 1
    33   16   47 1
    34   16   48 1
    35   17   18 2
    36   17   19 1
    37   19   20 2
    38   20   21 1
    39   20   22 1
    40   21   49 1
    41   21   50 1
    42   22   23 1
    43   22   51 1
    44   23   24 1
    45   23   52 1
    46   23   53 1
    47   24   25 1
    48   24   54 1
    49   24   55 1
    50   25   26 1
    51   25   56 1
    52   25   57 1
    53   26   58 1
    54   27   32 ar
    55   27   28 ar
    56   28   29 ar
    57   28   59 1
    58   29   30 ar
    59   29   60 1
    60   30   31 ar
    61   30   61 1
    62   31   32 ar
    63   31   62 1
    64   32   33 1
@<TRIPOS>MOLECULE
ZINC34417080
   57    59     0     0     0
SMALL
USER_CHARGES

@<TRIPOS>ATOM
      1 C1          0.2875    1.2839    0.2967 C.3       1 <0>         0.0618
      2 N1          0.2591   -0.1722    0.1375 N.am      1 <0>        -0.5594
      3 C2         -0.8545   -0.9311    0.2117 C.2       1 <0>         0.5442
      4 O1         -1.9896   -0.5569    0.4158 O.2       1 <0>        -0.3962
      5 C3         -0.3793   -2.3526   -0.0157 C.3       1 <0>         0.1138
      6 N2          1.0730   -2.2134   -0.2079 N.pl3     1 <0>        -0.6204
      7 C4          1.3607   -0.9520   -0.1137 C.cat     1 <0>         0.7257
      8 N3          2.6333   -0.4502   -0.2471 N.pl3     1 <0>        -0.7833
      9 C5         -0.6781   -3.2208    1.2082 C.3       1 <0>        -0.1238
     10 C6          0.0282   -2.6360    2.4330 C.3       1 <0>        -0.1258
     11 C7         -0.2706   -3.5043    3.6569 C.3       1 <0>        -0.0840
     12 C8         -1.7646   -3.4344    3.9793 C.3       1 <0>        -0.1178
     13 C9         -2.0633   -4.3026    5.2032 C.3       1 <0>        -0.1219
     14 C10        -1.2588   -3.7912    6.3999 C.3       1 <0>        -0.1234
     15 C11         0.2352   -3.8611    6.0775 C.3       1 <0>        -0.1216
     16 C12         0.5339   -2.9929    4.8536 C.3       1 <0>        -0.1135
     17 C13        -1.0323   -2.9432   -1.2669 C.3       1 <0>        -0.1204
     18 C14        -0.5253   -2.2015   -2.5053 C.3       1 <0>        -0.0966
     19 C15        -1.0848   -0.7775   -2.5115 C.3       1 <0>        -0.1341
     20 C16        -0.5778   -0.0357   -3.7499 C.3       1 <0>        -0.1155
     21 C17        -1.0400   -0.7708   -5.0096 C.3       1 <0>        -0.1246
     22 C18        -0.4805   -2.1948   -5.0034 C.3       1 <0>        -0.1211
     23 C19        -0.9876   -2.9366   -3.7650 C.3       1 <0>        -0.1130
     24 H1          1.3111    1.6417    0.1853 H         1 <0>         0.0988
     25 H2         -0.3433    1.7449   -0.4634 H         1 <0>         0.1071
     26 H3         -0.0841    1.5484    1.2867 H         1 <0>         0.1076
     27 H4          2.7898    0.5034   -0.1635 H         1 <0>         0.4421
     28 H5          3.3749   -1.0497   -0.4249 H         1 <0>         0.4453
     29 H6         -1.7535   -3.2423    1.3847 H         1 <0>         0.1157
     30 H7         -0.3186   -4.2345    1.0310 H         1 <0>         0.1061
     31 H8          1.1036   -2.6146    2.2565 H         1 <0>         0.0625
     32 H9         -0.3313   -1.6224    2.6101 H         1 <0>         0.0624
     33 H10         0.0078   -4.5369    3.4465 H         1 <0>         0.0780
     34 H11        -2.0429   -2.4017    4.1897 H         1 <0>         0.0628
     35 H12        -2.3377   -3.7987    3.1268 H         1 <0>         0.0636
     36 H13        -3.1277   -4.2528    5.4329 H         1 <0>         0.0659
     37 H14        -1.7850   -5.3352    4.9928 H         1 <0>         0.0637
     38 H15        -1.5372   -2.7586    6.6103 H         1 <0>         0.0618
     39 H16        -1.4716   -4.4097    7.2718 H         1 <0>         0.0656
     40 H17         0.8083   -3.4968    6.9300 H         1 <0>         0.0650
     41 H18         0.5136   -4.8937    5.8671 H         1 <0>         0.0636
     42 H19         1.5983   -3.0427    4.6239 H         1 <0>         0.0594
     43 H20         0.2556   -1.9602    5.0640 H         1 <0>         0.0612
     44 H21        -0.7763   -3.9998   -1.3461 H         1 <0>         0.1074
     45 H22        -2.1148   -2.8359   -1.1970 H         1 <0>         0.1130
     46 H23         0.5639   -2.1638   -2.4857 H         1 <0>         0.0681
     47 H24        -2.1740   -0.8151   -2.5312 H         1 <0>         0.0791
     48 H25        -0.7555   -0.2538   -1.6141 H         1 <0>         0.0466
     49 H26        -0.9764    0.9788   -3.7544 H         1 <0>         0.0676
     50 H27         0.5114    0.0020   -3.7303 H         1 <0>         0.0572
     51 H28        -2.1292   -0.8085   -5.0292 H         1 <0>         0.0673
     52 H29        -0.6788   -0.2424   -5.8919 H         1 <0>         0.0685
     53 H30        -0.8098   -2.7185   -5.9008 H         1 <0>         0.0713
     54 H31         0.6087   -2.1571   -4.9838 H         1 <0>         0.0606
     55 H32        -0.5889   -3.9511   -3.7606 H         1 <0>         0.0701
     56 H33        -2.0767   -2.9743   -3.7846 H         1 <0>         0.0722
     57 H34         1.7003   -2.9334   -0.3785 H         1 <0>         0.4636
@<TRIPOS>BOND
     1    1    2 1
     2    1   24 1
     3    1   25 1
     4    1   26 1
     5    2    7 1
     6    2    3 am
     7    3    4 2
     8    3    5 1
     9    5    6 1
    10    5    9 1
    11    5   17 1
    12    6    7 2
    13    6   57 1
    14    7    8 1
    15    8   27 1
    16    8   28 1
    17    9   10 1
    18    9   29 1
    19    9   30 1
    20   10   11 1
    21   10   31 1
    22   10   32 1
    23   11   16 1
    24   11   12 1
    25   11   33 1
    26   12   13 1
    27   12   34 1
    28   12   35 1
    29   13   14 1
    30   13   36 1
    31   13   37 1
    32   14   15 1
    33   14   38 1
    34   14   39 1
    35   15   16 1
    36   15   40 1
    37   15   41 1
    38   16   42 1
    39   16   43 1
    40   17   18 1
    41   17   44 1
    42   17   45 1
    43   18   23 1
    44   18   19 1
    45   18   46 1
    46   19   20 1
    47   19   47 1
    48   19   48 1
    49   20   21 1
    50   20   49 1
    51   20   50 1
    52   21   22 1
    53   21   51 1
    54   21   52 1
    55   22   23 1
    56   22   53 1
    57   22   54 1
    58   23   55 1
    59   23   56 1
@<TRIPOS>MOLECULE
ZINC34417080
   57    59     0     0     0
SMALL
USER_CHARGES

@<TRIPOS>ATOM
      1 C1          0.2859    1.2744    0.3086 C.3       1 <0>         0.0598
      2 N1          0.2566   -0.1809    0.1427 N.am      1 <0>        -0.5596
      3 C2         -0.8590   -0.9315    0.2115 C.2       1 <0>         0.5434
      4 O1         -1.9872   -0.5368    0.4157 O.2       1 <0>        -0.4021
      5 C3         -0.4287   -2.3647   -0.0168 C.3       1 <0>         0.1260
      6 N2          1.0280   -2.2828   -0.2118 N.pl3     1 <0>        -0.6597
      7 C4          1.3630   -0.9552   -0.1089 C.cat     1 <0>         0.7250
      8 N3          2.5730   -0.4907   -0.2308 N.pl3     1 <0>        -0.7390
      9 C5         -0.7568   -3.2227    1.2067 C.3       1 <0>        -0.1238
     10 C6         -0.0343   -2.6603    2.4326 C.3       1 <0>        -0.1234
     11 C7         -0.3625   -3.5183    3.6561 C.3       1 <0>        -0.0844
     12 C8         -1.8540   -3.4009    3.9761 C.3       1 <0>        -0.1176
     13 C9         -2.1821   -4.2589    5.1997 C.3       1 <0>        -0.1220
     14 C10        -1.3637   -3.7731    6.3976 C.3       1 <0>        -0.1233
     15 C11         0.1278   -3.8904    6.0776 C.3       1 <0>        -0.1217
     16 C12         0.4560   -3.0324    4.8540 C.3       1 <0>        -0.1132
     17 C13        -1.1041   -2.9330   -1.2665 C.3       1 <0>        -0.1205
     18 C14        -0.5778   -2.2063   -2.5058 C.3       1 <0>        -0.0947
     19 C15        -1.0928   -0.7656   -2.5093 C.3       1 <0>        -0.1337
     20 C16        -0.5666   -0.0389   -3.7487 C.3       1 <0>        -0.1155
     21 C17        -1.0552   -0.7583   -5.0075 C.3       1 <0>        -0.1245
     22 C18        -0.5402   -2.1990   -5.0040 C.3       1 <0>        -0.1209
     23 C19        -1.0664   -2.9257   -3.7647 C.3       1 <0>        -0.1136
     24 H1          1.3101    1.6317    0.2017 H         1 <0>         0.0973
     25 H2         -0.3423    1.7394   -0.4512 H         1 <0>         0.1084
     26 H3         -0.0883    1.5348    1.2986 H         1 <0>         0.1088
     27 H4          2.7383    0.4610   -0.1432 H         1 <0>         0.4465
     28 H5         -1.8326   -3.2099    1.3815 H         1 <0>         0.1118
     29 H6         -0.4294   -4.2473    1.0303 H         1 <0>         0.1038
     30 H7          1.0415   -2.6730    2.2578 H         1 <0>         0.0629
     31 H8         -0.3617   -1.6357    2.6089 H         1 <0>         0.0604
     32 H9         -0.1167   -4.5593    3.4464 H         1 <0>         0.0775
     33 H10        -2.0998   -2.3599    4.1859 H         1 <0>         0.0623
     34 H11        -2.4371   -3.7471    3.1227 H         1 <0>         0.0637
     35 H12        -3.2447   -4.1753    5.4277 H         1 <0>         0.0656
     36 H13        -1.9364   -5.2999    4.9899 H         1 <0>         0.0636
     37 H14        -1.6095   -2.7320    6.6074 H         1 <0>         0.0616
     38 H15        -1.5975   -4.3843    7.2693 H         1 <0>         0.0654
     39 H16         0.7109   -3.5443    6.9310 H         1 <0>         0.0647
     40 H17         0.3736   -4.9315    5.8678 H         1 <0>         0.0635
     41 H18         1.5186   -3.1161    4.6260 H         1 <0>         0.0592
     42 H19         0.2102   -1.9914    5.0638 H         1 <0>         0.0607
     43 H20        -0.8819   -3.9970   -1.3475 H         1 <0>         0.1050
     44 H21        -2.1824   -2.7916   -1.1929 H         1 <0>         0.1091
     45 H22         0.5120   -2.2026   -2.4894 H         1 <0>         0.0694
     46 H23        -2.1827   -0.7694   -2.5258 H         1 <0>         0.0782
     47 H24        -0.7448   -0.2531   -1.6125 H         1 <0>         0.0462
     48 H25        -0.9335    0.9875   -3.7512 H         1 <0>         0.0669
     49 H26         0.5233   -0.0352   -3.7322 H         1 <0>         0.0564
     50 H27        -2.1450   -0.7620   -5.0240 H         1 <0>         0.0672
     51 H28        -0.6803   -0.2406   -5.8904 H         1 <0>         0.0680
     52 H29        -0.8883   -2.7114   -5.9008 H         1 <0>         0.0708
     53 H30         0.5497   -2.1952   -4.9876 H         1 <0>         0.0603
     54 H31        -0.6995   -3.9521   -3.7622 H         1 <0>         0.0697
     55 H32        -2.1563   -2.9294   -3.7811 H         1 <0>         0.0714
     56 H33         1.6325   -3.0218   -0.3833 H         1 <0>         0.4617
     57 H34         3.3093   -1.0965   -0.4091 H         1 <0>         0.4509
@<TRIPOS>BOND
     1    1    2 1
     2    1   24 1
     3    1   25 1
     4    1   26 1
     5    2    7 1
     6    2    3 am
     7    3    4 2
     8    3    5 1
     9    5    6 1
    10    5    9 1
    11    5   17 1
    12    6    7 1
    13    6   56 1
    14    7    8 2
    15    8   27 1
    16    8   57 1
    17    9   10 1
    18    9   28 1
    19    9   29 1
    20   10   11 1
    21   10   30 1
    22   10   31 1
    23   11   16 1
    24   11   12 1
    25   11   32 1
    26   12   13 1
    27   12   33 1
    28   12   34 1
    29   13   14 1
    30   13   35 1
    31   13   36 1
    32   14   15 1
    33   14   37 1
    34   14   38 1
    35   15   16 1
    36   15   39 1
    37   15   40 1
    38   16   41 1
    39   16   42 1
    40   17   18 1
    41   17   43 1
    42   17   44 1
    43   18   23 1
    44   18   19 1
    45   18   45 1
    46   19   20 1
    47   19   46 1
    48   19   47 1
    49   20   21 1
    50   20   48 1
    51   20   49 1
    52   21   22 1
    53   21   50 1
    54   21   51 1
    55   22   23 1
    56   22   52 1
    57   22   53 1
    58   23   54 1
    59   23   55 1
@<TRIPOS>MOLECULE
ZINC34417080
   56    58     0     0     0
SMALL
USER_CHARGES

@<TRIPOS>ATOM
      1 C1          0.2859    1.2744    0.3086 C.3       1 <0>         0.0835
      2 N1          0.2566   -0.1809    0.1427 N.am      1 <0>        -0.6006
      3 C2         -0.8590   -0.9315    0.2115 C.2       1 <0>         0.5409
      4 O1         -1.9872   -0.5368    0.4157 O.2       1 <0>        -0.4810
      5 C3         -0.4287   -2.3647   -0.0168 C.3       1 <0>         0.1376
      6 N2          1.0280   -2.2828   -0.2118 N.pl3     1 <0>        -0.7018
      7 C4          1.3630   -0.9552   -0.1089 C.2       1 <0>         0.6206
      8 N3          2.5730   -0.4907   -0.2308 N.2       1 <0>        -0.7709
      9 C5         -0.7568   -3.2227    1.2067 C.3       1 <0>        -0.1163
     10 C6         -0.0343   -2.6603    2.4326 C.3       1 <0>        -0.1160
     11 C7         -0.3625   -3.5183    3.6561 C.3       1 <0>        -0.0831
     12 C8         -1.8540   -3.4009    3.9761 C.3       1 <0>        -0.1166
     13 C9         -2.1821   -4.2589    5.1997 C.3       1 <0>        -0.1200
     14 C10        -1.3637   -3.7731    6.3976 C.3       1 <0>        -0.1211
     15 C11         0.1278   -3.8904    6.0776 C.3       1 <0>        -0.1196
     16 C12         0.4560   -3.0324    4.8540 C.3       1 <0>        -0.1141
     17 C13        -1.1041   -2.9330   -1.2665 C.3       1 <0>        -0.1143
     18 C14        -0.5778   -2.2063   -2.5058 C.3       1 <0>        -0.0898
     19 C15        -1.0928   -0.7656   -2.5093 C.3       1 <0>        -0.1317
     20 C16        -0.5666   -0.0389   -3.7487 C.3       1 <0>        -0.1152
     21 C17        -1.0552   -0.7583   -5.0075 C.3       1 <0>        -0.1198
     22 C18        -0.5402   -2.1990   -5.0040 C.3       1 <0>        -0.1193
     23 C19        -1.0664   -2.9257   -3.7647 C.3       1 <0>        -0.1116
     24 H1          1.3101    1.6317    0.2017 H         1 <0>         0.0841
     25 H2         -0.3423    1.7394   -0.4512 H         1 <0>         0.0780
     26 H3         -0.0883    1.5348    1.2986 H         1 <0>         0.0780
     27 H4          2.7383    0.4610   -0.1432 H         1 <0>         0.3475
     28 H5         -1.8326   -3.2099    1.3815 H         1 <0>         0.0895
     29 H6         -0.4294   -4.2473    1.0303 H         1 <0>         0.0850
     30 H7          1.0415   -2.6730    2.2578 H         1 <0>         0.0696
     31 H8         -0.3617   -1.6357    2.6089 H         1 <0>         0.0559
     32 H9         -0.1167   -4.5593    3.4464 H         1 <0>         0.0719
     33 H10        -2.0998   -2.3599    4.1859 H         1 <0>         0.0606
     34 H11        -2.4371   -3.7471    3.1227 H         1 <0>         0.0637
     35 H12        -3.2447   -4.1753    5.4277 H         1 <0>         0.0610
     36 H13        -1.9364   -5.2999    4.9899 H         1 <0>         0.0611
     37 H14        -1.6095   -2.7320    6.6074 H         1 <0>         0.0602
     38 H15        -1.5975   -4.3843    7.2693 H         1 <0>         0.0604
     39 H16         0.7109   -3.5443    6.9310 H         1 <0>         0.0606
     40 H17         0.3736   -4.9315    5.8678 H         1 <0>         0.0613
     41 H18         1.5186   -3.1161    4.6260 H         1 <0>         0.0607
     42 H19         0.2102   -1.9914    5.0638 H         1 <0>         0.0595
     43 H20        -0.8819   -3.9970   -1.3475 H         1 <0>         0.0857
     44 H21        -2.1824   -2.7916   -1.1929 H         1 <0>         0.0870
     45 H22         0.5120   -2.2026   -2.4894 H         1 <0>         0.0797
     46 H23        -2.1827   -0.7694   -2.5258 H         1 <0>         0.0640
     47 H24        -0.7448   -0.2531   -1.6125 H         1 <0>         0.0648
     48 H25        -0.9335    0.9875   -3.7512 H         1 <0>         0.0590
     49 H26         0.5233   -0.0352   -3.7322 H         1 <0>         0.0592
     50 H27        -2.1450   -0.7620   -5.0240 H         1 <0>         0.0613
     51 H28        -0.6803   -0.2406   -5.8904 H         1 <0>         0.0608
     52 H29        -0.8883   -2.7114   -5.9008 H         1 <0>         0.0624
     53 H30         0.5497   -2.1952   -4.9876 H         1 <0>         0.0611
     54 H31        -0.6995   -3.9521   -3.7622 H         1 <0>         0.0633
     55 H32        -2.1563   -2.9294   -3.7811 H         1 <0>         0.0628
     56 H33         1.6325   -3.0218   -0.3833 H         1 <0>         0.4405
@<TRIPOS>BOND
     1    1    2 1
     2    1   24 1
     3    1   25 1
     4    1   26 1
     5    2    7 1
     6    2    3 am
     7    3    4 2
     8    3    5 1
     9    5    6 1
    10    5    9 1
    11    5   17 1
    12    6    7 1
    13    6   56 1
    14    7    8 2
    15    8   27 1
    16    9   10 1
    17    9   28 1
    18    9   29 1
    19   10   11 1
    20   10   30 1
    21   10   31 1
    22   11   16 1
    23   11   12 1
    24   11   32 1
    25   12   13 1
    26   12   33 1
    27   12   34 1
    28   13   14 1
    29   13   35 1
    30   13   36 1
    31   14   15 1
    32   14   37 1
    33   14   38 1
    34   15   16 1
    35   15   39 1
    36   15   40 1
    37   16   41 1
    38   16   42 1
    39   17   18 1
    40   17   43 1
    41   17   44 1
    42   18   23 1
    43   18   19 1
    44   18   45 1
    45   19   20 1
    46   19   46 1
    47   19   47 1
    48   20   21 1
    49   20   48 1
    50   20   49 1
    51   21   22 1
    52   21   50 1
    53   21   51 1
    54   22   23 1
    55   22   52 1
    56   22   53 1
    57   23   54 1
    58   23   55 1
