@<TRIPOS>MOLECULE
ZINC14210455
   82    84     0     0     0
SMALL
USER_CHARGES
(1S,4S,5R)-N-[(1S)-3-amino-1-(cyclobutylmethyl)-2,3-dioxo-propyl]-3-[(2S)-2-(tert-butylcarbamoylamino)-3,3-dimethyl-butanoyl]-6,6-dimethyl-3-azabicyclo[3.1.0]hexane-4-carboxamide
@<TRIPOS>ATOM
      1 C1          7.5547    3.7597   -5.7148 C.3       1 <0>        -0.1152
      2 C2          6.7695    2.5173   -5.2894 C.3       1 <0>        -0.0741
      3 C3          7.5571    1.3671   -4.6589 C.3       1 <0>        -0.1632
      4 H1          8.6239    1.4864   -4.4697 H         1 <0>         0.1311
      5 C4          6.9948    1.2327   -6.0894 C.3       1 <0>        -0.1680
      6 H2          7.6217    1.2576   -6.9807 H         1 <0>         0.1330
      7 C5          5.9282    0.1204   -5.9955 C.3       1 <0>         0.1486
      8 H3          5.0773    0.3549   -6.6351 H         1 <0>         0.1160
      9 N1          5.5182    0.1148   -4.5719 N.am      1 <0>        -0.5957
     10 C6          6.7800    0.3307   -3.8263 C.3       1 <0>         0.1194
     11 C7          4.2779   -0.0447   -4.0693 C.2       1 <0>         0.5481
     12 O1          3.3273   -0.1336   -4.8173 O.2       1 <0>        -0.5286
     13 C8          4.0721   -0.1127   -2.5780 C.3       1 <0>         0.1656
     14 H4          4.8141    0.5115   -2.0800 H         1 <0>         0.1084
     15 C9          4.2251   -1.5604   -2.1075 C.3       1 <0>        -0.0694
     16 C10         3.2264   -2.4474   -2.8537 C.3       1 <0>        -0.1403
     17 C11         5.6487   -2.0422   -2.3943 C.3       1 <0>        -0.1574
     18 C12         3.9532   -1.6395   -0.6039 C.3       1 <0>        -0.1272
     19 N2          2.7284    0.3687   -2.2480 N.am      1 <0>        -0.7322
     20 C13         2.4755    0.8754   -1.0250 C.2       1 <0>         0.7121
     21 O2          3.3627    0.9332   -0.1956 O.2       1 <0>        -0.5780
     22 N3          1.2393    1.3182   -0.7214 N.am      1 <0>        -0.7387
     23 C14         0.9645    1.8691    0.6079 C.3       1 <0>         0.1880
     24 C15         1.8625    3.0835    0.8524 C.3       1 <0>        -0.1642
     25 C16         1.2467    0.8041    1.6696 C.3       1 <0>        -0.1648
     26 C17        -0.5028    2.2950    0.6902 C.3       1 <0>        -0.1564
     27 C18         6.5198   -1.2120   -6.3772 C.2       1 <0>         0.5210
     28 O3          6.9125   -1.9702   -5.5160 O.2       1 <0>        -0.5174
     29 N4          6.6125   -1.5609   -7.6757 N.am      1 <0>        -0.7115
     30 C19         7.1876   -2.8562   -8.0469 C.3       1 <0>         0.1363
     31 H5          6.9412   -3.5395   -7.3596 H         1 <0>         0.1154
     32 C20         6.6419   -3.2846   -9.4105 C.3       1 <0>        -0.1133
     33 C21         5.1350   -3.5266   -9.3037 C.3       1 <0>        -0.1096
     34 C22         4.7697   -4.9571   -8.8735 C.3       1 <0>        -0.1375
     35 C23         3.6238   -4.8880   -9.8967 C.3       1 <0>        -0.1435
     36 C24         4.4651   -3.8448  -10.6508 C.3       1 <0>        -0.1352
     37 C25         8.6881   -2.7368   -8.1212 C.2       1 <0>         0.3395
     38 O4          9.2060   -1.6464   -8.1588 O.2       1 <0>        -0.4045
     39 C26         9.5331   -3.9648   -8.1483 C.2       1 <0>         0.4836
     40 O5          9.0127   -5.0605   -8.1105 O.2       1 <0>        -0.5030
     41 N5         10.8750   -3.8580   -8.2147 N.am      1 <0>        -0.8271
     42 C27         5.3587    2.7791   -4.7585 C.3       1 <0>        -0.1303
     43 H6          7.3035    4.0133   -6.7447 H         1 <0>         0.0646
     44 H7          7.2968    4.5936   -5.0620 H         1 <0>         0.0667
     45 H8          8.6232    3.5572   -5.6407 H         1 <0>         0.0609
     46 H9          6.5711    0.7236   -2.8312 H         1 <0>         0.0874
     47 H10         7.3449   -0.5990   -3.7579 H         1 <0>         0.1045
     48 H11         3.4201   -2.3911   -3.9248 H         1 <0>         0.0553
     49 H12         3.3354   -3.4789   -2.5185 H         1 <0>         0.0577
     50 H13         2.2123   -2.1042   -2.6493 H         1 <0>         0.0557
     51 H14         6.3625   -1.3722   -1.9151 H         1 <0>         0.0571
     52 H15         5.7770   -3.0508   -2.0015 H         1 <0>         0.0613
     53 H16         5.8207   -2.0468   -3.4706 H         1 <0>         0.0773
     54 H17         2.9390   -1.2963   -0.3995 H         1 <0>         0.0552
     55 H18         4.0622   -2.6709   -0.2687 H         1 <0>         0.0494
     56 H19         4.6646   -1.0076   -0.0723 H         1 <0>         0.0674
     57 H20         2.0206    0.3226   -2.9097 H         1 <0>         0.4036
     58 H21         0.5316    1.2722   -1.3832 H         1 <0>         0.3948
     59 H22         2.9078    2.7801    0.7938 H         1 <0>         0.0809
     60 H23         1.6614    3.8422    0.0961 H         1 <0>         0.0514
     61 H24         1.6580    3.4933    1.8415 H         1 <0>         0.0616
     62 H25         1.0422    1.2140    2.6587 H         1 <0>         0.0615
     63 H26         0.6070   -0.0610    1.4954 H         1 <0>         0.0517
     64 H27         2.2920    0.5008    1.6110 H         1 <0>         0.0817
     65 H28        -0.7038    3.0536   -0.0662 H         1 <0>         0.0615
     66 H29        -1.1425    1.4298    0.5160 H         1 <0>         0.0617
     67 H30        -0.7072    2.7048    1.6793 H         1 <0>         0.0750
     68 H31         6.2984   -0.9545   -8.3646 H         1 <0>         0.4082
     69 H32         6.8328   -2.4988  -10.1414 H         1 <0>         0.0782
     70 H33         7.1359   -4.2032   -9.7272 H         1 <0>         0.0955
     71 H34         4.6215   -2.7530   -8.7327 H         1 <0>         0.0937
     72 H35         5.5322   -5.6956   -9.1211 H         1 <0>         0.0859
     73 H36         4.4291   -5.0289   -7.8406 H         1 <0>         0.0666
     74 H37         2.6963   -4.4876   -9.4872 H         1 <0>         0.0793
     75 H38         3.4761   -5.8141  -10.4521 H         1 <0>         0.0684
     76 H39         3.8786   -3.0186  -11.0528 H         1 <0>         0.0680
     77 H40         5.1443   -4.2792  -11.3844 H         1 <0>         0.0824
     78 H41        11.2910   -2.9823   -8.2450 H         1 <0>         0.4112
     79 H42        11.4248   -4.6570   -8.2324 H         1 <0>         0.4115
     80 H43         5.0653    1.9686   -4.0914 H         1 <0>         0.0673
     81 H44         5.3453    3.7222   -4.2122 H         1 <0>         0.0592
     82 H45         4.6604    2.8330   -5.5937 H         1 <0>         0.0591
@<TRIPOS>BOND
     1    1    2 1
     2    1   43 1
     3    1   44 1
     4    1   45 1
     5    2    5 1
     6    2    3 1
     7    2   42 1
     8    3    4 1
     9    3   10 1
    10    3    5 1
    11    5    6 1
    12    5    7 1
    13    7    8 1
    14    7    9 1
    15    7   27 1
    16    9   10 1
    17    9   11 am
    18   10   46 1
    19   10   47 1
    20   11   12 2
    21   11   13 1
    22   13   14 1
    23   13   15 1
    24   13   19 1
    25   15   16 1
    26   15   17 1
    27   15   18 1
    28   16   48 1
    29   16   49 1
    30   16   50 1
    31   17   51 1
    32   17   52 1
    33   17   53 1
    34   18   54 1
    35   18   55 1
    36   18   56 1
    37   19   20 am
    38   19   57 1
    39   20   21 2
    40   20   22 am
    41   22   23 1
    42   22   58 1
    43   23   24 1
    44   23   25 1
    45   23   26 1
    46   24   59 1
    47   24   60 1
    48   24   61 1
    49   25   62 1
    50   25   63 1
    51   25   64 1
    52   26   65 1
    53   26   66 1
    54   26   67 1
    55   27   28 2
    56   27   29 am
    57   29   30 1
    58   29   68 1
    59   30   31 1
    60   30   32 1
    61   30   37 1
    62   32   33 1
    63   32   69 1
    64   32   70 1
    65   33   36 1
    66   33   34 1
    67   33   71 1
    68   34   35 1
    69   34   72 1
    70   34   73 1
    71   35   36 1
    72   35   74 1
    73   35   75 1
    74   36   76 1
    75   36   77 1
    76   37   38 2
    77   37   39 1
    78   39   40 2
    79   39   41 am
    80   41   78 1
    81   41   79 1
    82   42   80 1
    83   42   81 1
    84   42   82 1
@<TRIPOS>MOLECULE
ZINC14210457
   82    84     0     0     0
SMALL
USER_CHARGES
(1S,4S,5R)-N-[(1R)-3-amino-1-(cyclobutylmethyl)-2,3-dioxo-propyl]-3-[(2S)-2-(tert-butylcarbamoylamino)-3,3-dimethyl-butanoyl]-6,6-dimethyl-3-azabicyclo[3.1.0]hexane-4-carboxamide
@<TRIPOS>ATOM
      1 C1         -5.0761   -0.5653    0.0539 C.3       1 <0>        -0.1271
      2 C2         -4.3227   -0.4623   -1.2738 C.3       1 <0>        -0.0702
      3 C3         -4.0050    0.9399   -1.7972 C.3       1 <0>        -0.1607
      4 H1         -4.1151    1.1544   -2.8603 H         1 <0>         0.1296
      5 C4         -2.8446    0.0732   -1.2569 C.3       1 <0>        -0.1739
      6 H2         -2.0905   -0.3569   -1.9161 H         1 <0>         0.1336
      7 C5         -2.3530    0.8142    0.0052 C.3       1 <0>         0.1486
      8 H3         -2.0697    0.1006    0.7788 H         1 <0>         0.1160
      9 N1         -3.5159    1.6193    0.4459 N.am      1 <0>        -0.5961
     10 C6         -4.1100    2.1250   -0.8134 C.3       1 <0>         0.1165
     11 C7         -3.9377    1.8412    1.7066 C.2       1 <0>         0.5468
     12 O1         -3.3808    1.2977    2.6369 O.2       1 <0>        -0.5274
     13 C8         -5.1013    2.7646    1.9603 C.3       1 <0>         0.1659
     14 H4         -5.8084    2.6936    1.1339 H         1 <0>         0.1087
     15 C9         -4.5946    4.2037    2.0757 C.3       1 <0>        -0.0695
     16 C10        -3.9376    4.6202    0.7583 C.3       1 <0>        -0.1606
     17 C11        -5.7701    5.1357    2.3765 C.3       1 <0>        -0.1269
     18 C12        -3.5695    4.2942    3.2079 C.3       1 <0>        -0.1402
     19 N2         -5.7672    2.3799    3.2072 N.am      1 <0>        -0.7321
     20 C13        -7.0659    2.6849    3.3995 C.2       1 <0>         0.7121
     21 O2         -7.6848    3.2793    2.5381 O.2       1 <0>        -0.5780
     22 N3         -7.6785    2.3309    4.5466 N.am      1 <0>        -0.7387
     23 C14        -9.0901    2.6624    4.7556 C.3       1 <0>         0.1881
     24 C15        -9.9361    2.0013    3.6656 C.3       1 <0>        -0.1642
     25 C16        -9.5362    2.1519    6.1272 C.3       1 <0>        -0.1564
     26 C17        -9.2724    4.1802    4.6923 C.3       1 <0>        -0.1647
     27 C18        -1.1901    1.7116   -0.3318 C.2       1 <0>         0.5196
     28 O3         -1.3728    2.8954   -0.5219 O.2       1 <0>        -0.5184
     29 N4          0.0529    1.1985   -0.4219 N.am      1 <0>        -0.7090
     30 C19         1.1825    2.0698   -0.7554 C.3       1 <0>         0.1367
     31 H5          0.8808    2.7764   -1.3954 H         1 <0>         0.1154
     32 C20         2.2944    1.2392   -1.3995 C.3       1 <0>        -0.1135
     33 C21         1.8045    0.6816   -2.7374 C.3       1 <0>        -0.1057
     34 C22         1.0386   -0.6457   -2.6082 C.3       1 <0>        -0.1394
     35 C23         1.7713   -1.0999   -3.8837 C.3       1 <0>        -0.1419
     36 C24         2.8796   -0.1018   -3.5090 C.3       1 <0>        -0.1367
     37 C25         1.7040    2.7191    0.5006 C.2       1 <0>         0.3364
     38 O4          1.4546    2.2354    1.5788 O.2       1 <0>        -0.4020
     39 C26         2.5277    3.9587    0.4121 C.2       1 <0>         0.4842
     40 O5          2.7782    4.4448   -0.6713 O.2       1 <0>        -0.5042
     41 N5          2.9940    4.5395    1.5354 N.am      1 <0>        -0.8271
     42 C27        -4.6554   -1.5416   -2.3059 C.3       1 <0>        -0.1159
     43 H6         -6.0794   -0.9511   -0.1267 H         1 <0>         0.0612
     44 H7         -4.5423   -1.2401    0.7231 H         1 <0>         0.0597
     45 H8         -5.1432    0.4219    0.5111 H         1 <0>         0.0648
     46 H9         -5.1536    2.3989   -0.6582 H         1 <0>         0.0871
     47 H10        -3.5445    2.9801   -1.1839 H         1 <0>         0.1057
     48 H11        -4.6771    4.5905   -0.0419 H         1 <0>         0.0579
     49 H12        -3.5447    5.6326    0.8524 H         1 <0>         0.0604
     50 H13        -3.1229    3.9344    0.5258 H         1 <0>         0.0800
     51 H14        -6.2382    4.8389    3.3150 H         1 <0>         0.0557
     52 H15        -5.4092    6.1609    2.4587 H         1 <0>         0.0491
     53 H16        -6.5005    5.0712    1.5699 H         1 <0>         0.0671
     54 H17        -2.7320    3.6302    2.9936 H         1 <0>         0.0546
     55 H18        -3.2085    5.3194    3.2901 H         1 <0>         0.0569
     56 H19        -4.0375    3.9974    4.1465 H         1 <0>         0.0560
     57 H20        -5.2735    1.9057    3.8944 H         1 <0>         0.4037
     58 H21        -7.1848    1.8567    5.2338 H         1 <0>         0.3948
     59 H22        -9.8062    0.9200    3.7106 H         1 <0>         0.0514
     60 H23       -10.9863    2.2479    3.8211 H         1 <0>         0.0616
     61 H24        -9.6183    2.3650    2.6884 H         1 <0>         0.0809
     62 H25        -8.9335    2.6229    6.9038 H         1 <0>         0.0616
     63 H26       -10.5865    2.3986    6.2828 H         1 <0>         0.0750
     64 H27        -9.4064    1.0706    6.1723 H         1 <0>         0.0616
     65 H28        -8.9546    4.5439    3.7152 H         1 <0>         0.0818
     66 H29       -10.3226    4.4268    4.8479 H         1 <0>         0.0615
     67 H30        -8.6697    4.6512    5.4689 H         1 <0>         0.0516
     68 H31         0.1991    0.2517   -0.2698 H         1 <0>         0.4078
     69 H32         3.1681    1.8691   -1.5665 H         1 <0>         0.0945
     70 H33         2.5617    0.4149   -0.7383 H         1 <0>         0.0784
     71 H34         1.2882    1.4265   -3.3429 H         1 <0>         0.0962
     72 H35         1.3075   -1.2205   -1.7220 H         1 <0>         0.0807
     73 H36        -0.0389   -0.5422   -2.7360 H         1 <0>         0.0673
     74 H37         1.2450   -0.8431   -4.8030 H         1 <0>         0.0802
     75 H38         2.0940   -2.1408   -3.8574 H         1 <0>         0.0682
     76 H39         3.2862    0.4400   -4.3629 H         1 <0>         0.0697
     77 H40         3.6528   -0.5277   -2.8695 H         1 <0>         0.0819
     78 H41         2.7938    4.1510    2.4013 H         1 <0>         0.4113
     79 H42         3.5299    5.3459    1.4779 H         1 <0>         0.4114
     80 H43        -4.4625   -1.1581   -3.3078 H         1 <0>         0.0610
     81 H44        -4.0343   -2.4192   -2.1269 H         1 <0>         0.0652
     82 H45        -5.7066   -1.8164   -2.2182 H         1 <0>         0.0669
@<TRIPOS>BOND
     1    1    2 1
     2    1   43 1
     3    1   44 1
     4    1   45 1
     5    2    5 1
     6    2    3 1
     7    2   42 1
     8    3    4 1
     9    3   10 1
    10    3    5 1
    11    5    6 1
    12    5    7 1
    13    7    8 1
    14    7    9 1
    15    7   27 1
    16    9   10 1
    17    9   11 am
    18   10   46 1
    19   10   47 1
    20   11   12 2
    21   11   13 1
    22   13   14 1
    23   13   15 1
    24   13   19 1
    25   15   16 1
    26   15   17 1
    27   15   18 1
    28   16   48 1
    29   16   49 1
    30   16   50 1
    31   17   51 1
    32   17   52 1
    33   17   53 1
    34   18   54 1
    35   18   55 1
    36   18   56 1
    37   19   20 am
    38   19   57 1
    39   20   21 2
    40   20   22 am
    41   22   23 1
    42   22   58 1
    43   23   24 1
    44   23   25 1
    45   23   26 1
    46   24   59 1
    47   24   60 1
    48   24   61 1
    49   25   62 1
    50   25   63 1
    51   25   64 1
    52   26   65 1
    53   26   66 1
    54   26   67 1
    55   27   28 2
    56   27   29 am
    57   29   30 1
    58   29   68 1
    59   30   31 1
    60   30   32 1
    61   30   37 1
    62   32   33 1
    63   32   69 1
    64   32   70 1
    65   33   36 1
    66   33   34 1
    67   33   71 1
    68   34   35 1
    69   34   72 1
    70   34   73 1
    71   35   36 1
    72   35   74 1
    73   35   75 1
    74   36   76 1
    75   36   77 1
    76   37   38 2
    77   37   39 1
    78   39   40 2
    79   39   41 am
    80   41   78 1
    81   41   79 1
    82   42   80 1
    83   42   81 1
    84   42   82 1
@<TRIPOS>MOLECULE
ZINC03992480
  102   106     0     0     0
SMALL
USER_CHARGES
(3S,3aS,6aR)-2-[(2S)-2-[[(2S)-2-cyclohexyl-2-(pyrazine-2-carbonylamino)acetyl]amino]-3,3-dimethyl-butanoyl]-N-[(1S)-1-[2-(cyclopropylamino)-2-oxo-acetyl]butyl]-3,3a,4,5,6,6a-hexahydro-1H-cyclopenta[c]pyrrole-3-carboxamide
@<TRIPOS>ATOM
      1 C1          1.7934    1.7727    0.8817 C.3       1 <0>        -0.1487
      2 C2          1.7248    0.5575    1.8089 C.3       1 <0>        -0.1167
      3 C3          0.8624    0.8935    3.0272 C.3       1 <0>        -0.1199
      4 C4          0.7939   -0.3217    3.9543 C.3       1 <0>         0.1239
      5 H1          1.8017   -0.6804    4.2107 H         1 <0>         0.1267
      6 C5          0.0481    0.0467    5.2109 C.2       1 <0>         0.3566
      7 O1         -1.0847   -0.3385    5.3758 O.2       1 <0>        -0.4149
      8 C6          0.7087    0.8865    6.2507 C.2       1 <0>         0.4805
      9 O2          1.8470    1.2735    6.0850 O.2       1 <0>        -0.5039
     10 N1          0.0417    1.2160    7.3746 N.am      1 <0>        -0.7073
     11 C7          0.6908    2.0412    8.3963 C.3       1 <0>        -0.0276
     12 C8          0.5147    1.6244    9.8578 C.3       1 <0>        -0.1399
     13 C9         -0.2119    2.8596    9.3217 C.3       1 <0>        -0.1337
     14 N2          0.0953   -1.4155    3.2748 N.am      1 <0>        -0.7346
     15 C10         0.7740   -2.2418    2.4544 C.2       1 <0>         0.5149
     16 O3          1.9631   -2.0798    2.2786 O.2       1 <0>        -0.5121
     17 C11         0.0555   -3.3671    1.7554 C.3       1 <0>         0.1287
     18 H2         -0.9062   -2.9933    1.3742 H         1 <0>         0.1002
     19 C12        -0.1293   -4.5437    2.7221 C.3       1 <0>        -0.0857
     20 H3         -0.0541   -4.1984    3.7638 H         1 <0>         0.1022
     21 C13        -1.4874   -5.2301    2.4491 C.3       1 <0>        -0.1224
     22 C14        -1.2136   -6.7010    2.8498 C.3       1 <0>        -0.1218
     23 C15         0.2399   -6.9708    2.3654 C.3       1 <0>        -0.1188
     24 C16         0.9220   -5.5938    2.2729 C.3       1 <0>        -0.0914
     25 H4          1.8529   -5.5988    2.8589 H         1 <0>         0.0975
     26 C17         1.1556   -5.2588    0.7871 C.3       1 <0>         0.0946
     27 N3          0.8539   -3.8336    0.6177 N.am      1 <0>        -0.5900
     28 C18         1.2489   -3.0718   -0.4216 C.2       1 <0>         0.5443
     29 O4          0.8644   -1.9252   -0.5136 O.2       1 <0>        -0.5196
     30 C19         2.1684   -3.6446   -1.4692 C.3       1 <0>         0.1503
     31 H5          2.0590   -4.7386   -1.5031 H         1 <0>         0.1031
     32 C20         3.6116   -3.2463   -1.1540 C.3       1 <0>        -0.0620
     33 C21         4.0068   -3.8028    0.2153 C.3       1 <0>        -0.1579
     34 C22         4.5436   -3.8169   -2.2248 C.3       1 <0>        -0.1311
     35 C23         3.7275   -1.7208   -1.1372 C.3       1 <0>        -0.1439
     36 N4          1.7941   -3.1223   -2.7857 N.am      1 <0>        -0.7211
     37 C24         2.0936   -3.8217   -3.8982 C.2       1 <0>         0.5232
     38 O5          2.6731   -4.8834   -3.8094 O.2       1 <0>        -0.5292
     39 C25         1.7086   -3.2844   -5.2525 C.3       1 <0>         0.1352
     40 H6          2.2217   -2.3284   -5.4337 H         1 <0>         0.1161
     41 C26         0.1896   -3.1143   -5.3207 C.3       1 <0>        -0.0896
     42 C27        -0.4858   -4.4691   -5.0987 C.3       1 <0>        -0.1126
     43 C28        -2.0048   -4.2990   -5.1668 C.3       1 <0>        -0.1165
     44 C29        -2.3957   -3.7535   -6.5418 C.3       1 <0>        -0.1204
     45 C30        -1.7203   -2.3987   -6.7638 C.3       1 <0>        -0.1211
     46 C31        -0.2013   -2.5688   -6.6957 C.3       1 <0>        -0.1056
     47 N5          2.1421   -4.2222   -6.2912 N.am      1 <0>        -0.7017
     48 C32         2.3774   -3.7803   -7.5425 C.2       1 <0>         0.5813
     49 O6          2.2300   -2.6039   -7.8092 O.2       1 <0>        -0.5254
     50 C33         2.8157   -4.7287   -8.5929 C.ar      1 <0>         0.0295
     51 C34         3.0542   -4.2746   -9.8896 C.ar      1 <0>         0.1103
     52 N6          3.4495   -5.1232  -10.8214 N.ar      1 <0>        -0.4385
     53 C35         3.6088   -6.4017  -10.5281 C.ar      1 <0>         0.0749
     54 C36         3.3673   -6.8575   -9.2403 C.ar      1 <0>         0.0513
     55 N7          2.9777   -6.0166   -8.3031 N.ar      1 <0>        -0.4104
     56 H7          2.4134    1.5311    0.0058 H         1 <0>         0.0548
     57 H8          2.2373    2.6217    1.4222 H         1 <0>         0.0486
     58 H9          0.7788    2.0389    0.5505 H         1 <0>         0.0488
     59 H10         1.2809   -0.2915    1.2684 H         1 <0>         0.0837
     60 H11         2.7394    0.2912    2.1401 H         1 <0>         0.0656
     61 H12         1.3063    1.7425    3.5677 H         1 <0>         0.0806
     62 H13        -0.1522    1.1597    2.6961 H         1 <0>         0.0676
     63 H14        -0.9900    0.8653    7.5247 H         1 <0>         0.4187
     64 H15         1.5384    2.2490    7.7266 H         1 <0>         0.1597
     65 H16         0.0905    0.6104    9.9013 H         1 <0>         0.1051
     66 H17         1.4921    1.6349   10.3624 H         1 <0>         0.1123
     67 H18         0.1649    3.8912    9.3831 H         1 <0>         0.1132
     68 H19        -1.2367    2.8667    8.9220 H         1 <0>         0.1057
     69 H20        -0.9831   -1.5624    3.4342 H         1 <0>         0.4268
     70 H21        -2.2667   -4.7596    3.0666 H         1 <0>         0.0738
     71 H22        -1.7464   -5.1206    1.3856 H         1 <0>         0.0724
     72 H23        -1.3096   -6.8079    3.9404 H         1 <0>         0.0694
     73 H24        -1.9413   -7.3583    2.3515 H         1 <0>         0.0697
     74 H25         0.7534   -7.6197    3.0902 H         1 <0>         0.0720
     75 H26         0.2132   -7.4667    1.3839 H         1 <0>         0.0731
     76 H27         2.2029   -5.4688    0.5242 H         1 <0>         0.0848
     77 H28         0.4905   -5.8742    0.1635 H         1 <0>         0.0758
     78 H29         5.0444   -3.5164    0.4419 H         1 <0>         0.0604
     79 H30         3.9234   -4.8996    0.2033 H         1 <0>         0.0526
     80 H31         3.3367   -3.3925    0.9851 H         1 <0>         0.0827
     81 H32         5.5812   -3.5305   -1.9982 H         1 <0>         0.0513
     82 H33         4.2594   -3.4167   -3.2092 H         1 <0>         0.0526
     83 H34         4.4602   -4.9137   -2.2368 H         1 <0>         0.0640
     84 H35         4.7651   -1.4344   -0.9106 H         1 <0>         0.0536
     85 H36         3.0574   -1.3106   -0.3673 H         1 <0>         0.0720
     86 H37         3.4433   -1.3206   -2.1216 H         1 <0>         0.0527
     87 H38         1.2686   -2.1593   -2.8663 H         1 <0>         0.4321
     88 H39        -0.1359   -2.4102   -4.5408 H         1 <0>         0.0837
     89 H40        -0.1604   -5.1732   -5.8786 H         1 <0>         0.0660
     90 H41        -0.2047   -4.8614   -4.1102 H         1 <0>         0.0589
     91 H42        -2.4903   -5.2730   -5.0071 H         1 <0>         0.0610
     92 H43        -2.3303   -3.5949   -4.3869 H         1 <0>         0.0615
     93 H44        -2.0702   -4.4577   -7.3217 H         1 <0>         0.0587
     94 H45        -3.4878   -3.6312   -6.5909 H         1 <0>         0.0604
     95 H46        -2.0014   -2.0065   -7.7523 H         1 <0>         0.0622
     96 H47        -2.0457   -1.6946   -5.9839 H         1 <0>         0.0614
     97 H48         0.2843   -1.5948   -6.8553 H         1 <0>         0.0741
     98 H49         0.1242   -3.2729   -7.4756 H         1 <0>         0.0623
     99 H50         2.2756   -5.2871   -6.0498 H         1 <0>         0.4443
    100 H51         2.9200   -3.2304  -10.1304 H         1 <0>         0.1828
    101 H52         3.9283   -7.0938  -11.2931 H         1 <0>         0.1779
    102 H53         3.4985   -7.9034   -9.0053 H         1 <0>         0.1793
@<TRIPOS>BOND
     1    1    2 1
     2    1   56 1
     3    1   57 1
     4    1   58 1
     5    2    3 1
     6    2   59 1
     7    2   60 1
     8    3    4 1
     9    3   61 1
    10    3   62 1
    11    4    5 1
    12    4    6 1
    13    4   14 1
    14    6    7 2
    15    6    8 1
    16    8    9 2
    17    8   10 am
    18   10   11 1
    19   10   63 1
    20   11   13 1
    21   11   12 1
    22   11   64 1
    23   12   13 1
    24   12   65 1
    25   12   66 1
    26   13   67 1
    27   13   68 1
    28   14   15 am
    29   14   69 1
    30   15   16 2
    31   15   17 1
    32   17   18 1
    33   17   27 1
    34   17   19 1
    35   19   20 1
    36   19   24 1
    37   19   21 1
    38   21   22 1
    39   21   70 1
    40   21   71 1
    41   22   23 1
    42   22   72 1
    43   22   73 1
    44   23   24 1
    45   23   74 1
    46   23   75 1
    47   24   25 1
    48   24   26 1
    49   26   27 1
    50   26   76 1
    51   26   77 1
    52   27   28 am
    53   28   29 2
    54   28   30 1
    55   30   31 1
    56   30   32 1
    57   30   36 1
    58   32   33 1
    59   32   34 1
    60   32   35 1
    61   33   78 1
    62   33   79 1
    63   33   80 1
    64   34   81 1
    65   34   82 1
    66   34   83 1
    67   35   84 1
    68   35   85 1
    69   35   86 1
    70   36   37 am
    71   36   87 1
    72   37   38 2
    73   37   39 1
    74   39   40 1
    75   39   41 1
    76   39   47 1
    77   41   46 1
    78   41   42 1
    79   41   88 1
    80   42   43 1
    81   42   89 1
    82   42   90 1
    83   43   44 1
    84   43   91 1
    85   43   92 1
    86   44   45 1
    87   44   93 1
    88   44   94 1
    89   45   46 1
    90   45   95 1
    91   45   96 1
    92   46   97 1
    93   46   98 1
    94   47   48 am
    95   47   99 1
    96   48   49 2
    97   48   50 1
    98   50   55 ar
    99   50   51 ar
   100   51   52 ar
   101   51  100 1
   102   52   53 ar
   103   53   54 ar
   104   53  101 1
   105   54   55 ar
   106   54  102 1
@<TRIPOS>MOLECULE
ZINC05706813
   59    61     0     0     0
SMALL
USER_CHARGES
2-(2-benzyloxycarbonylamino-3-phenyl-propanoyl)amino-3-(4-hydroxyphenyl)-propanoic acid
@<TRIPOS>ATOM
      1 C1         -4.6442   -0.1623   -1.3844 C.ar      1 <0>        -0.1240
      2 C2         -4.4522    1.0367   -0.7239 C.ar      1 <0>        -0.1160
      3 C3         -3.1929    1.6046   -0.6743 C.ar      1 <0>        -0.1083
      4 C4         -2.1255    0.9734   -1.2852 C.ar      1 <0>        -0.0567
      5 C5         -2.3185   -0.2230   -1.9502 C.ar      1 <0>        -0.1042
      6 C6         -3.5769   -0.7935   -1.9953 C.ar      1 <0>        -0.1139
      7 C7         -0.7527    1.5927   -1.2315 C.3       1 <0>        -0.0928
      8 C8         -0.0127    1.0858    0.0080 C.3       1 <0>         0.1584
      9 H1          0.0021   -0.0041    0.0020 H         1 <0>         0.1140
     10 C9          1.4011    1.6074   -0.0027 C.2       1 <0>         0.5162
     11 O1          1.7969    2.3051    0.9069 O.2       1 <0>        -0.5349
     12 N1          2.2256    1.2986   -1.0231 N.am      1 <0>        -0.6895
     13 C10         3.6000    1.8057   -1.0335 C.3       1 <0>         0.1102
     14 H2          3.9817    1.8419   -0.0131 H         1 <0>         0.0917
     15 C11         4.4795    0.8781   -1.8743 C.3       1 <0>        -0.0755
     16 C12         4.5585   -0.4742   -1.2139 C.ar      1 <0>        -0.0741
     17 C13         5.5623   -0.7387   -0.3006 C.ar      1 <0>        -0.0988
     18 C14         5.6335   -1.9756    0.3104 C.ar      1 <0>        -0.1412
     19 C15         4.7034   -2.9566   -0.0016 C.ar      1 <0>         0.0879
     20 C16         3.7006   -2.6906   -0.9226 C.ar      1 <0>        -0.1420
     21 C17         3.6304   -1.4502   -1.5266 C.ar      1 <0>        -0.1025
     22 O2          4.7744   -4.1760    0.5942 O.3       1 <0>        -0.5013
     23 C18         3.6199    3.1909   -1.6267 C.2       1 <0>         0.4598
     24 O3          2.5916    3.7020   -2.0023 O.co2     1 <0>        -0.6244
     25 N2         -0.6984    1.5583    1.2133 N.am      1 <0>        -0.6898
     26 C19        -1.7412    0.8645    1.7111 C.2       1 <0>         0.6509
     27 O4         -2.1126   -0.1528    1.1601 O.2       1 <0>        -0.5575
     28 O5         -2.3714    1.2987    2.8188 O.3       1 <0>        -0.3650
     29 C20        -3.4862    0.5014    3.2983 C.3       1 <0>         0.1323
     30 C21        -4.0624    1.1374    4.5371 C.ar      1 <0>        -0.0963
     31 C22        -3.5805    0.7839    5.7836 C.ar      1 <0>        -0.0933
     32 C23        -4.1058    1.3708    6.9196 C.ar      1 <0>        -0.1241
     33 C24        -5.1198    2.3038    6.8098 C.ar      1 <0>        -0.1106
     34 C25        -5.6056    2.6531    5.5636 C.ar      1 <0>        -0.1246
     35 C26        -5.0768    2.0701    4.4273 C.ar      1 <0>        -0.0928
     36 H3         -5.6282   -0.6058   -1.4235 H         1 <0>         0.1126
     37 H4         -5.2862    1.5300   -0.2469 H         1 <0>         0.1116
     38 H5         -3.0430    2.5415   -0.1585 H         1 <0>         0.1111
     39 H6         -1.4855   -0.7140   -2.4313 H         1 <0>         0.1168
     40 H7         -3.7269   -1.7301   -2.5117 H         1 <0>         0.1147
     41 H8         -0.8452    2.6775   -1.1811 H         1 <0>         0.0884
     42 H9         -0.1944    1.3168   -2.1261 H         1 <0>         0.0923
     43 H10         1.9090    0.7406   -1.7506 H         1 <0>         0.3919
     44 H11         4.0479    0.7718   -2.8696 H         1 <0>         0.0744
     45 H12         5.4805    1.3017   -1.9557 H         1 <0>         0.1004
     46 H13         6.2887    0.0239   -0.0613 H         1 <0>         0.1297
     47 H14         6.4151   -2.1803    1.0270 H         1 <0>         0.1250
     48 H15         2.9752   -3.4526   -1.1669 H         1 <0>         0.1247
     49 H16         2.8497   -1.2425   -2.2434 H         1 <0>         0.1232
     50 H17         5.3170   -4.8170    0.1149 H         1 <0>         0.3846
     51 H18        -0.4019    2.3704    1.6532 H         1 <0>         0.4159
     52 H19        -4.2538    0.4487    2.5263 H         1 <0>         0.0793
     53 H20        -3.1386   -0.5043    3.5343 H         1 <0>         0.0774
     54 H21        -2.7911    0.0519    5.8696 H         1 <0>         0.1248
     55 H22        -3.7265    1.0976    7.8932 H         1 <0>         0.1247
     56 H23        -5.5328    2.7596    7.6975 H         1 <0>         0.1230
     57 H24        -6.3981    3.3818    5.4778 H         1 <0>         0.1245
     58 H25        -5.4563    2.3430    3.4537 H         1 <0>         0.1246
     59 O6          4.7801    3.8568   -1.7379 O.co2     1 <0>        -0.7628
@<TRIPOS>BOND
     1    1    6 ar
     2    1    2 ar
     3    1   36 1
     4    2    3 ar
     5    2   37 1
     6    3    4 ar
     7    3   38 1
     8    4    5 ar
     9    4    7 1
    10    5    6 ar
    11    5   39 1
    12    6   40 1
    13    7    8 1
    14    7   41 1
    15    7   42 1
    16    8    9 1
    17    8   10 1
    18    8   25 1
    19   10   11 2
    20   10   12 am
    21   12   13 1
    22   12   43 1
    23   13   14 1
    24   13   15 1
    25   13   23 1
    26   15   16 1
    27   15   44 1
    28   15   45 1
    29   16   21 ar
    30   16   17 ar
    31   17   18 ar
    32   17   46 1
    33   18   19 ar
    34   18   47 1
    35   19   20 ar
    36   19   22 1
    37   20   21 ar
    38   20   48 1
    39   21   49 1
    40   22   50 1
    41   23   24 2
    42   23   59 1
    43   25   26 am
    44   25   51 1
    45   26   27 2
    46   26   28 1
    47   28   29 1
    48   29   30 1
    49   29   52 1
    50   29   53 1
    51   30   35 ar
    52   30   31 ar
    53   31   32 ar
    54   31   54 1
    55   32   33 ar
    56   32   55 1
    57   33   34 ar
    58   33   56 1
    59   34   35 ar
    60   34   57 1
    61   35   58 1
@<TRIPOS>MOLECULE
ZINC05608787
   58    60     0     0     0
SMALL
USER_CHARGES

@<TRIPOS>ATOM
      1 C1         -0.0167    1.3781    0.0096 C.ar      1 <0>        -0.1240
      2 C2          1.1709    2.0855    0.0021 C.ar      1 <0>        -0.1162
      3 C3          2.3773    1.4107   -0.0130 C.ar      1 <0>        -0.1087
      4 C4          2.3960    0.0285   -0.0201 C.ar      1 <0>        -0.0565
      5 C5          1.2084   -0.6789   -0.0117 C.ar      1 <0>        -0.1034
      6 C6          0.0021   -0.0041    0.0020 C.ar      1 <0>        -0.1141
      7 C7          3.7112   -0.7071   -0.0376 C.3       1 <0>        -0.0941
      8 C8          4.1714   -0.9633    1.3989 C.3       1 <0>         0.1584
      9 H1          3.3868   -1.4885    1.9436 H         1 <0>         0.1141
     10 C9          5.4216   -1.8045    1.3834 C.2       1 <0>         0.5088
     11 O1          6.4455   -1.3782    1.8741 O.2       1 <0>        -0.5370
     12 N1          5.4019   -3.0307    0.8243 N.am      1 <0>        -0.6828
     13 C10         6.6173   -3.8485    0.8092 C.3       1 <0>         0.0855
     14 H2          7.1849   -3.6726    1.7230 H         1 <0>         0.0848
     15 C11         6.2357   -5.3276    0.7225 C.3       1 <0>        -0.0782
     16 C12         5.4995   -5.7306    1.9741 C.ar      1 <0>        -0.0661
     17 C13         6.2011   -6.2083    3.0652 C.ar      1 <0>        -0.1165
     18 C14         5.5258   -6.5781    4.2133 C.ar      1 <0>        -0.1186
     19 C15         4.1489   -6.4696    4.2705 C.ar      1 <0>        -0.1337
     20 C16         3.4474   -5.9911    3.1798 C.ar      1 <0>        -0.1194
     21 C17         4.1231   -5.6173    2.0332 C.ar      1 <0>        -0.1181
     22 C18         7.4587   -3.4760   -0.3843 C.2       1 <0>         0.4929
     23 O2          8.6721   -3.5819   -0.3316 O.co2     1 <0>        -0.6903
     24 O3          6.9259   -3.0686   -1.4025 O.co2     1 <0>        -0.6868
     25 N2          4.4511    0.3151    2.0574 N.am      1 <0>        -0.6890
     26 C19         3.4510    1.0070    2.6383 C.2       1 <0>         0.6506
     27 O4          2.3172    0.5705    2.6158 O.2       1 <0>        -0.5563
     28 O5          3.7080    2.1819    3.2434 O.3       1 <0>        -0.3605
     29 C20         2.6005    2.8613    3.8383 C.3       1 <0>         0.1309
     30 C21         3.0768    4.1475    4.4628 C.ar      1 <0>        -0.0954
     31 C22         3.5015    4.1614    5.7782 C.ar      1 <0>        -0.0936
     32 C23         3.9383    5.3412    6.3510 C.ar      1 <0>        -0.1241
     33 C24         3.9509    6.5070    5.6083 C.ar      1 <0>        -0.1110
     34 C25         3.5271    6.4929    4.2926 C.ar      1 <0>        -0.1245
     35 C26         3.0943    5.3123    3.7185 C.ar      1 <0>        -0.0931
     36 H3         -0.9591    1.9053    0.0259 H         1 <0>         0.1126
     37 H4          1.1563    3.1654    0.0076 H         1 <0>         0.1116
     38 H5          3.3051    1.9634   -0.0196 H         1 <0>         0.1109
     39 H6          1.2231   -1.7588   -0.0176 H         1 <0>         0.1172
     40 H7         -0.9258   -0.5567    0.0082 H         1 <0>         0.1148
     41 H8          3.5884   -1.6586   -0.5549 H         1 <0>         0.0945
     42 H9          4.4573   -0.1052   -0.5563 H         1 <0>         0.0870
     43 H10         4.5830   -3.3717    0.4319 H         1 <0>         0.3924
     44 H11         5.5938   -5.4870   -0.1439 H         1 <0>         0.0772
     45 H12         7.1383   -5.9304    0.6219 H         1 <0>         0.0886
     46 H13         7.2769   -6.2931    3.0205 H         1 <0>         0.1226
     47 H14         6.0739   -6.9520    5.0655 H         1 <0>         0.1176
     48 H15         3.6212   -6.7592    5.1672 H         1 <0>         0.1155
     49 H16         2.3716   -5.9067    3.2243 H         1 <0>         0.1176
     50 H17         3.5753   -5.2399    1.1823 H         1 <0>         0.1181
     51 H18         5.3562    0.6636    2.0753 H         1 <0>         0.4160
     52 H19         1.8565    3.0827    3.0731 H         1 <0>         0.0766
     53 H20         2.1553    2.2280    4.6055 H         1 <0>         0.0744
     54 H21         3.4916    3.2506    6.3585 H         1 <0>         0.1246
     55 H22         4.2695    5.3522    7.3789 H         1 <0>         0.1245
     56 H23         4.2916    7.4289    6.0561 H         1 <0>         0.1229
     57 H24         3.5366    7.4038    3.7124 H         1 <0>         0.1245
     58 H25         2.7666    5.3005    2.6894 H         1 <0>         0.1245
@<TRIPOS>BOND
     1    1    6 ar
     2    1    2 ar
     3    1   36 1
     4    2    3 ar
     5    2   37 1
     6    3    4 ar
     7    3   38 1
     8    4    5 ar
     9    4    7 1
    10    5    6 ar
    11    5   39 1
    12    6   40 1
    13    7    8 1
    14    7   41 1
    15    7   42 1
    16    8    9 1
    17    8   10 1
    18    8   25 1
    19   10   11 2
    20   10   12 am
    21   12   13 1
    22   12   43 1
    23   13   14 1
    24   13   15 1
    25   13   22 1
    26   15   16 1
    27   15   44 1
    28   15   45 1
    29   16   21 ar
    30   16   17 ar
    31   17   18 ar
    32   17   46 1
    33   18   19 ar
    34   18   47 1
    35   19   20 ar
    36   19   48 1
    37   20   21 ar
    38   20   49 1
    39   21   50 1
    40   22   23 2
    41   22   24 1
    42   25   26 am
    43   25   51 1
    44   26   27 2
    45   26   28 1
    46   28   29 1
    47   29   30 1
    48   29   52 1
    49   29   53 1
    50   30   35 ar
    51   30   31 ar
    52   31   32 ar
    53   31   54 1
    54   32   33 ar
    55   32   55 1
    56   33   34 ar
    57   33   56 1
    58   34   35 ar
    59   34   57 1
    60   35   58 1
@<TRIPOS>MOLECULE
ZINC04535621
   57    58     0     0     0
SMALL
USER_CHARGES
2-(2-benzyloxycarbonylamino-3-phenyl-propanoyl)amino-4-methyl-pentanoic acid
@<TRIPOS>ATOM
      1 C1         -8.7348    3.1032    1.9981 C.3       1 <0>        -0.1445
      2 C2         -7.7285    1.9576    2.1239 C.3       1 <0>        -0.0974
      3 C3         -8.0905    1.0911    3.3318 C.3       1 <0>        -0.1480
      4 C4         -7.7660    1.1042    0.8545 C.3       1 <0>        -0.1049
      5 C5         -6.6747    0.0343    0.9269 C.3       1 <0>         0.1008
      6 H1         -6.7931   -0.5441    1.8431 H         1 <0>         0.0933
      7 C6         -6.7898   -0.8820   -0.2640 C.2       1 <0>         0.4580
      8 O1         -5.8672   -0.9866   -1.0372 O.co2     1 <0>        -0.6290
      9 N1         -5.3587    0.6780    0.9223 N.am      1 <0>        -0.6893
     10 C7         -4.2988    0.0485    1.4671 C.2       1 <0>         0.5141
     11 O2         -4.4344   -1.0508    1.9610 O.2       1 <0>        -0.5364
     12 C8         -2.9450    0.7107    1.4624 C.3       1 <0>         0.1581
     13 H2         -2.9998    1.6534    2.0069 H         1 <0>         0.1139
     14 C9         -2.5137    0.9795    0.0193 C.3       1 <0>        -0.0931
     15 C10        -1.2190    1.7506    0.0173 C.ar      1 <0>        -0.0571
     16 C11        -0.0126    1.0758    0.0080 C.ar      1 <0>        -0.1081
     17 C12         1.1750    1.7832    0.0004 C.ar      1 <0>        -0.1165
     18 C13         1.1563    3.1654    0.0076 C.ar      1 <0>        -0.1241
     19 C14        -0.0501    3.8402    0.0223 C.ar      1 <0>        -0.1144
     20 C15        -1.2377    3.1328    0.0299 C.ar      1 <0>        -0.1036
     21 N2         -1.9684   -0.1700    2.1080 N.am      1 <0>        -0.6897
     22 C16        -0.8609    0.3509    2.6725 C.2       1 <0>         0.6508
     23 O3         -0.6725    1.5510    2.6460 O.2       1 <0>        -0.5581
     24 O4          0.0366   -0.4585    3.2658 O.3       1 <0>        -0.3651
     25 C17         1.2056    0.1717    3.8528 C.3       1 <0>         0.1324
     26 C18         2.0903   -0.8831    4.4659 C.ar      1 <0>        -0.0965
     27 C19         1.9162   -1.2483    5.7878 C.ar      1 <0>        -0.0934
     28 C20         2.7245   -2.2193    6.3488 C.ar      1 <0>        -0.1242
     29 C21         3.7134   -2.8179    5.5908 C.ar      1 <0>        -0.1106
     30 C22         3.8912   -2.4487    4.2706 C.ar      1 <0>        -0.1245
     31 C23         3.0795   -1.4815    3.7081 C.ar      1 <0>        -0.0927
     32 H3         -9.7363    2.6942    1.8647 H         1 <0>         0.0544
     33 H4         -8.7081    3.7112    2.9024 H         1 <0>         0.0491
     34 H5         -8.4769    3.7205    1.1375 H         1 <0>         0.0520
     35 H6         -6.7270    2.3666    2.2572 H         1 <0>         0.0655
     36 H7         -9.0920    0.6821    3.1985 H         1 <0>         0.0556
     37 H8         -7.3737    0.2749    3.4214 H         1 <0>         0.0578
     38 H9         -8.0638    1.6991    4.2361 H         1 <0>         0.0471
     39 H10        -7.5956    1.7388   -0.0151 H         1 <0>         0.0609
     40 H11        -8.7407    0.6238    0.7684 H         1 <0>         0.0873
     41 H12        -5.2502    1.5572    0.5273 H         1 <0>         0.3930
     42 H13        -3.2837    1.5610   -0.4877 H         1 <0>         0.0930
     43 H14        -2.3729    0.0317   -0.5003 H         1 <0>         0.0881
     44 H15         0.0021   -0.0041    0.0020 H         1 <0>         0.1111
     45 H16         2.1175    1.2560   -0.0115 H         1 <0>         0.1116
     46 H17         2.0841    3.7181    0.0014 H         1 <0>         0.1126
     47 H18        -0.0647    4.9201    0.0276 H         1 <0>         0.1147
     48 H19        -2.1802    3.6600    0.0410 H         1 <0>         0.1170
     49 H20        -2.1188   -1.1280    2.1292 H         1 <0>         0.4160
     50 H21         1.7583    0.7045    3.0790 H         1 <0>         0.0793
     51 H22         0.8907    0.8748    4.6239 H         1 <0>         0.0773
     52 H23         1.1462   -0.7776    6.3811 H         1 <0>         0.1247
     53 H24         2.5858   -2.5075    7.3804 H         1 <0>         0.1247
     54 H25         4.3473   -3.5739    6.0302 H         1 <0>         0.1230
     55 H26         4.6641   -2.9162    3.6786 H         1 <0>         0.1246
     56 H27         3.2184   -1.1930    2.6767 H         1 <0>         0.1246
     57 O5         -7.9172   -1.5820   -0.4658 O.co2     1 <0>        -0.7655
@<TRIPOS>BOND
     1    1    2 1
     2    1   32 1
     3    1   33 1
     4    1   34 1
     5    2    3 1
     6    2    4 1
     7    2   35 1
     8    3   36 1
     9    3   37 1
    10    3   38 1
    11    4    5 1
    12    4   39 1
    13    4   40 1
    14    5    6 1
    15    5    7 1
    16    5    9 1
    17    7    8 2
    18    7   57 1
    19    9   10 am
    20    9   41 1
    21   10   11 2
    22   10   12 1
    23   12   13 1
    24   12   14 1
    25   12   21 1
    26   14   15 1
    27   14   42 1
    28   14   43 1
    29   15   20 ar
    30   15   16 ar
    31   16   17 ar
    32   16   44 1
    33   17   18 ar
    34   17   45 1
    35   18   19 ar
    36   18   46 1
    37   19   20 ar
    38   19   47 1
    39   20   48 1
    40   21   22 am
    41   21   49 1
    42   22   23 2
    43   22   24 1
    44   24   25 1
    45   25   26 1
    46   25   50 1
    47   25   51 1
    48   26   31 ar
    49   26   27 ar
    50   27   28 ar
    51   27   52 1
    52   28   29 ar
    53   28   53 1
    54   29   30 ar
    55   29   54 1
    56   30   31 ar
    57   30   55 1
    58   31   56 1
@<TRIPOS>MOLECULE
ZINC02384806
   48    49     0     0     0
SMALL
USER_CHARGES
2-(2-benzyloxycarbonylamino-3-phenyl-propanoyl)aminopropanoic acid
@<TRIPOS>ATOM
      1 C1         -7.4619    4.3968   -2.1250 C.3       1 <0>        -0.1384
      2 C2         -6.7501    4.6995   -0.8049 C.3       1 <0>         0.0947
      3 H1         -6.6563    5.7784   -0.6817 H         1 <0>         0.0911
      4 C3         -7.5499    4.1310    0.3389 C.2       1 <0>         0.4639
      5 O1         -7.0570    3.3032    1.0681 O.co2     1 <0>        -0.6339
      6 N1         -5.4172    4.0918   -0.8183 N.am      1 <0>        -0.6894
      7 C4         -4.3823    4.7494   -1.3779 C.2       1 <0>         0.5056
      8 O2         -4.5546    5.8443   -1.8703 O.2       1 <0>        -0.5469
      9 C5         -3.0112    4.1243   -1.3917 C.3       1 <0>         0.1556
     10 H2         -3.0478    3.1801   -1.9349 H         1 <0>         0.1177
     11 C6         -2.5528    3.8685    0.0455 C.3       1 <0>        -0.0967
     12 C7         -1.2377    3.1328    0.0299 C.ar      1 <0>        -0.0594
     13 C8         -1.2190    1.7507    0.0173 C.ar      1 <0>        -0.1015
     14 C9         -0.0126    1.0758    0.0080 C.ar      1 <0>        -0.1135
     15 C10         1.1750    1.7832    0.0004 C.ar      1 <0>        -0.1227
     16 C11         1.1563    3.1654    0.0076 C.ar      1 <0>        -0.1176
     17 C12        -0.0501    3.8402    0.0223 C.ar      1 <0>        -0.1091
     18 N2         -2.0679    5.0308   -2.0510 N.am      1 <0>        -0.6906
     19 C13        -0.9545    4.5397   -2.6305 C.2       1 <0>         0.6502
     20 O3         -0.7332    3.3452   -2.6061 O.2       1 <0>        -0.5551
     21 O4         -0.0876    5.3728   -3.2365 O.3       1 <0>        -0.3654
     22 C14         1.0899    4.7742   -3.8394 C.3       1 <0>         0.1321
     23 C15         1.9370    5.8522   -4.4650 C.ar      1 <0>        -0.0965
     24 C16         1.7348    6.2115   -5.7845 C.ar      1 <0>        -0.0934
     25 C17         2.5086    7.2037   -6.3570 C.ar      1 <0>        -0.1240
     26 C18         3.4912    7.8296   -5.6130 C.ar      1 <0>        -0.1104
     27 C19         3.6972    7.4664   -4.2952 C.ar      1 <0>        -0.1246
     28 C20         2.9199    6.4778   -3.7212 C.ar      1 <0>        -0.0930
     29 H3         -7.5557    3.3179   -2.2481 H         1 <0>         0.0492
     30 H4         -8.4537    4.8489   -2.1150 H         1 <0>         0.0729
     31 H5         -6.8835    4.8080   -2.9523 H         1 <0>         0.0481
     32 H6         -5.2794    3.2161   -0.4244 H         1 <0>         0.4070
     33 H7         -3.2997    3.2667    0.5633 H         1 <0>         0.0982
     34 H8         -2.4307    4.8201    0.5628 H         1 <0>         0.0838
     35 H9         -2.1469    1.1980    0.0188 H         1 <0>         0.1198
     36 H10         0.0021   -0.0041    0.0020 H         1 <0>         0.1160
     37 H11         2.1175    1.2560   -0.0115 H         1 <0>         0.1131
     38 H12         2.0841    3.7181    0.0014 H         1 <0>         0.1116
     39 H13        -0.0647    4.9201    0.0276 H         1 <0>         0.1101
     40 H14        -2.2446    5.9843   -2.0705 H         1 <0>         0.4147
     41 H15         1.6675    4.2572   -3.0730 H         1 <0>         0.0797
     42 H16         0.7836    4.0621   -4.6057 H         1 <0>         0.0779
     43 H17         0.9698    5.7196   -6.3670 H         1 <0>         0.1250
     44 H18         2.3479    7.4872   -7.3867 H         1 <0>         0.1248
     45 H19         4.0982    8.6022   -6.0614 H         1 <0>         0.1232
     46 H20         4.4651    7.9551   -3.7141 H         1 <0>         0.1246
     47 H21         3.0808    6.1940   -2.6916 H         1 <0>         0.1245
     48 O5         -8.8098    4.5443    0.5477 O.co2     1 <0>        -0.7529
@<TRIPOS>BOND
     1    1    2 1
     2    1   29 1
     3    1   30 1
     4    1   31 1
     5    2    3 1
     6    2    4 1
     7    2    6 1
     8    4    5 2
     9    4   48 1
    10    6    7 am
    11    6   32 1
    12    7    8 2
    13    7    9 1
    14    9   10 1
    15    9   11 1
    16    9   18 1
    17   11   12 1
    18   11   33 1
    19   11   34 1
    20   12   17 ar
    21   12   13 ar
    22   13   14 ar
    23   13   35 1
    24   14   15 ar
    25   14   36 1
    26   15   16 ar
    27   15   37 1
    28   16   17 ar
    29   16   38 1
    30   17   39 1
    31   18   19 am
    32   18   40 1
    33   19   20 2
    34   19   21 1
    35   21   22 1
    36   22   23 1
    37   22   41 1
    38   22   42 1
    39   23   28 ar
    40   23   24 ar
    41   24   25 ar
    42   24   43 1
    43   25   26 ar
    44   25   44 1
    45   26   27 ar
    46   26   45 1
    47   27   28 ar
    48   27   46 1
    49   28   47 1
@<TRIPOS>MOLECULE
ZINC42893657
   63    65     0     0     0
SMALL
USER_CHARGES

@<TRIPOS>ATOM
      1 C1         -4.4994   -0.3437   -1.3388 C.3       1 <0>        -0.1751
      2 C2         -3.0726   -0.5433   -0.8238 C.3       1 <0>         0.1260
      3 C3         -2.6789    0.6420    0.0600 C.3       1 <0>        -0.1867
      4 C4         -3.0015   -1.8347   -0.0064 C.3       1 <0>        -0.1255
      5 C5         -1.5602   -2.0709    0.4496 C.3       1 <0>         0.0604
      6 H1         -1.1975   -1.1896    0.9786 H         1 <0>         0.1227
      7 C6         -1.5135   -3.2637    1.3695 C.2       1 <0>         0.4845
      8 O1         -0.8391   -4.2285    1.0776 O.2       1 <0>        -0.5144
      9 N1         -2.2211   -3.2582    2.5165 N.am      1 <0>        -0.6882
     10 C7         -2.1757   -4.4177    3.4108 C.3       1 <0>         0.1785
     11 C8         -3.4491   -5.2547    3.5476 C.3       1 <0>        -0.1517
     12 C9         -3.0009   -4.3503    4.6974 C.3       1 <0>        -0.1432
     13 C10        -0.8868   -5.1264    3.4664 C.1       1 <0>         0.2362
     14 N2          0.1080   -5.6734    3.5093 N.1       1 <0>        -0.3937
     15 N3         -0.7109   -2.3227   -0.7223 N.3       1 <0>        -0.6297
     16 C11         0.7051   -2.0941   -0.4051 C.3       1 <0>         0.0922
     17 H2          0.8833   -2.3215    0.6460 H         1 <0>         0.0964
     18 C12         1.5629   -2.9866   -1.2646 C.ar      1 <0>        -0.0992
     19 C13         1.2358   -3.1841   -2.5940 C.ar      1 <0>        -0.0846
     20 C14         2.0179   -4.0004   -3.3857 C.ar      1 <0>        -0.1027
     21 C15         3.1387   -4.6261   -2.8436 C.ar      1 <0>        -0.0478
     22 C16         3.4634   -4.4235   -1.5038 C.ar      1 <0>        -0.1020
     23 C17         2.6775   -3.6007   -0.7227 C.ar      1 <0>        -0.0846
     24 C18         3.9830   -5.5052   -3.6898 C.ar      1 <0>         0.0118
     25 C19         3.6612   -5.7035   -5.0310 C.ar      1 <0>        -0.1313
     26 C20         4.4503   -6.5219   -5.8136 C.ar      1 <0>        -0.0196
     27 C21         5.5585   -7.1450   -5.2688 C.ar      1 <0>        -0.6619
     28 C22         5.8823   -6.9521   -3.9379 C.ar      1 <0>        -0.0196
     29 C23         5.1038   -6.1309   -3.1477 C.ar      1 <0>        -0.1320
     30 S1          6.5611   -8.1889   -6.2736 S.o2      1 <0>         2.5001
     31 O2          7.1638   -9.0985   -5.3632 O.2       1 <0>        -0.9370
     32 O3          5.6894   -8.6560   -7.2939 O.2       1 <0>        -0.9369
     33 C24         7.8176   -7.0882   -6.9809 C.3       1 <0>        -0.6502
     34 C25         1.0589   -0.6307   -0.6773 C.3       1 <0>         0.4627
     35 F1          0.3499    0.1923    0.2044 F         1 <0>        -0.1840
     36 F2          2.4322   -0.4404   -0.4905 F         1 <0>        -0.1812
     37 F3          0.7180   -0.3058   -1.9946 F         1 <0>        -0.1617
     38 F4         -2.1931   -0.6288   -1.9083 F         1 <0>        -0.1851
     39 H3         -4.5501    0.5764   -1.9211 H         1 <0>         0.0698
     40 H4         -4.7799   -1.1881   -1.9684 H         1 <0>         0.0676
     41 H5         -5.1848   -0.2771   -0.4938 H         1 <0>         0.0723
     42 H6         -3.3934    0.7388    0.8775 H         1 <0>         0.0718
     43 H7         -1.6814    0.4762    0.4670 H         1 <0>         0.0746
     44 H8         -2.6815    1.5554   -0.5348 H         1 <0>         0.0700
     45 H9         -3.6491   -1.7487    0.8661 H         1 <0>         0.0913
     46 H10        -3.3299   -2.6725   -0.6215 H         1 <0>         0.0878
     47 H11        -2.7605   -2.4865    2.7499 H         1 <0>         0.4149
     48 H12        -4.3207   -4.9426    2.9722 H         1 <0>         0.1190
     49 H13        -3.3327   -6.3305    3.6786 H         1 <0>         0.1126
     50 H14        -2.5896   -4.8311    5.5849 H         1 <0>         0.1170
     51 H15        -3.5776   -3.4433    4.8785 H         1 <0>         0.1209
     52 H16        -0.8554   -3.2551   -1.0799 H         1 <0>         0.3735
     53 H17         0.3667   -2.6990   -3.0131 H         1 <0>         0.1424
     54 H18         1.7614   -4.1543   -4.4235 H         1 <0>         0.1330
     55 H19         4.3308   -4.9063   -1.0785 H         1 <0>         0.1317
     56 H20         2.9310   -3.4392    0.3147 H         1 <0>         0.1268
     57 H21         2.7958   -5.2180   -5.4572 H         1 <0>         0.1374
     58 H22         4.2018   -6.6763   -6.8532 H         1 <0>         0.1454
     59 H23         6.7485   -7.4413   -3.5175 H         1 <0>         0.1451
     60 H24         5.3600   -5.9773   -2.1098 H         1 <0>         0.1364
     61 H25         8.3928   -6.6293   -6.1767 H         1 <0>         0.1316
     62 H26         8.4851   -7.6635   -7.6224 H         1 <0>         0.1337
     63 H27         7.3300   -6.3104   -7.5685 H         1 <0>         0.1318
@<TRIPOS>BOND
     1    1    2 1
     2    1   39 1
     3    1   40 1
     4    1   41 1
     5    2    3 1
     6    2    4 1
     7    2   38 1
     8    3   42 1
     9    3   43 1
    10    3   44 1
    11    4    5 1
    12    4   45 1
    13    4   46 1
    14    5    6 1
    15    5    7 1
    16    5   15 1
    17    7    8 2
    18    7    9 am
    19    9   10 1
    20    9   47 1
    21   10   12 1
    22   10   11 1
    23   10   13 1
    24   11   12 1
    25   11   48 1
    26   11   49 1
    27   12   50 1
    28   12   51 1
    29   13   14 3
    30   15   16 1
    31   15   52 1
    32   16   17 1
    33   16   18 1
    34   16   34 1
    35   18   23 ar
    36   18   19 ar
    37   19   20 ar
    38   19   53 1
    39   20   21 ar
    40   20   54 1
    41   21   22 ar
    42   21   24 1
    43   22   23 ar
    44   22   55 1
    45   23   56 1
    46   24   29 ar
    47   24   25 ar
    48   25   26 ar
    49   25   57 1
    50   26   27 ar
    51   26   58 1
    52   27   28 ar
    53   27   30 1
    54   28   29 ar
    55   28   59 1
    56   29   60 1
    57   30   31 2
    58   30   32 2
    59   30   33 1
    60   33   61 1
    61   33   62 1
    62   33   63 1
    63   34   35 1
    64   34   36 1
    65   34   37 1
@<TRIPOS>MOLECULE
ZINC43075785
   52    53     0     0     0
SMALL
USER_CHARGES

@<TRIPOS>ATOM
      1 C1         -1.6377   -2.7401   -2.3318 C.3       1 <0>        -0.1371
      2 C2         -1.3281   -1.2474   -2.4615 C.3       1 <0>         0.0168
      3 C3         -1.7609   -0.7551   -3.8440 C.3       1 <0>        -0.1389
      4 C4         -2.0888   -0.4732   -1.3832 C.3       1 <0>        -0.1361
      5 C5          0.1524   -1.0246   -2.2897 C.2       1 <0>         0.0415
      6 C6          1.1417   -1.3080   -3.2341 C.2       1 <0>        -0.1770
      7 C7          2.3349   -0.9403   -2.6368 C.2       1 <0>        -0.0387
      8 N1          2.0112   -0.4672   -1.3969 N.pl3     1 <0>        -0.2547
      9 N2          0.7389   -0.5260   -1.2314 N.2       1 <0>        -0.2658
     10 C8          2.9688    0.0358   -0.4088 C.3       1 <0>         0.0842
     11 C9          3.6822   -1.0399   -3.2202 C.2       1 <0>         0.6068
     12 O1          4.6385   -0.5825   -2.6238 O.2       1 <0>        -0.5331
     13 N3          3.8565   -1.6379   -4.4154 N.am      1 <0>        -0.6935
     14 C10         5.2079   -1.8363   -4.9451 C.3       1 <0>         0.1416
     15 H1          5.8932   -2.0449   -4.1235 H         1 <0>         0.1244
     16 C11         5.2058   -3.0159   -5.9194 C.3       1 <0>        -0.0855
     17 C12         4.8802   -4.2837   -5.1726 C.ar      1 <0>        -0.0765
     18 C13         5.8962   -5.0379   -4.6152 C.ar      1 <0>        -0.1086
     19 C14         5.5984   -6.2008   -3.9301 C.ar      1 <0>        -0.1018
     20 C15         4.2844   -6.6108   -3.8023 C.ar      1 <0>        -0.1090
     21 C16         3.2675   -5.8567   -4.3597 C.ar      1 <0>        -0.0298
     22 C17         3.5658   -4.6893   -5.0402 C.ar      1 <0>        -0.1016
     23 Cl1         1.6172   -6.3709   -4.1995 Cl        1 <0>        -0.0635
     24 C18         5.6528   -0.5900   -5.6661 C.2       1 <0>         0.5103
     25 O2          4.9138    0.3694   -5.7311 O.2       1 <0>        -0.5099
     26 N4          6.8720   -0.5416   -6.2386 N.am      1 <0>        -0.7295
     27 C19         7.3044    0.6700   -6.9396 C.3       1 <0>         0.2198
     28 C20         8.6623    0.4707   -7.4718 C.1       1 <0>         0.1890
     29 N5          9.7102    0.3169   -7.8825 N.1       1 <0>        -0.3975
     30 H2         -1.0957   -3.2917   -3.1000 H         1 <0>         0.0581
     31 H3         -1.3293   -3.0909   -1.3469 H         1 <0>         0.0559
     32 H4         -2.7085   -2.9012   -2.4560 H         1 <0>         0.0630
     33 H5         -2.8317   -0.9162   -3.9682 H         1 <0>         0.0638
     34 H6         -1.5403    0.3084   -3.9364 H         1 <0>         0.0574
     35 H7         -1.2189   -1.3067   -4.6122 H         1 <0>         0.0585
     36 H8         -1.7805   -0.8239   -0.3983 H         1 <0>         0.0606
     37 H9         -1.8683    0.5903   -1.4757 H         1 <0>         0.0559
     38 H10        -3.1597   -0.6343   -1.5075 H         1 <0>         0.0579
     39 H11         1.0048   -1.7257   -4.2206 H         1 <0>         0.1565
     40 H12         3.0569    1.1178   -0.5063 H         1 <0>         0.0855
     41 H13         2.6199   -0.2114    0.5939 H         1 <0>         0.0930
     42 H14         3.9420   -0.4248   -0.5787 H         1 <0>         0.1100
     43 H15         3.0872   -1.9370   -4.9249 H         1 <0>         0.4082
     44 H16         4.4563   -2.8471   -6.6927 H         1 <0>         0.0945
     45 H17         6.1891   -3.1081   -6.3805 H         1 <0>         0.1021
     46 H18         6.9230   -4.7183   -4.7155 H         1 <0>         0.1311
     47 H19         6.3924   -6.7894   -3.4949 H         1 <0>         0.1344
     48 H20         4.0519   -7.5199   -3.2675 H         1 <0>         0.1342
     49 H21         2.7719   -4.0979   -5.4718 H         1 <0>         0.1313
     50 H22         7.4630   -1.3089   -6.1866 H         1 <0>         0.4074
     51 H23         6.6192    0.8786   -7.7612 H         1 <0>         0.1177
     52 H24         7.3060    1.5104   -6.2454 H         1 <0>         0.1168
@<TRIPOS>BOND
     1    1    2 1
     2    1   30 1
     3    1   31 1
     4    1   32 1
     5    2    3 1
     6    2    4 1
     7    2    5 1
     8    3   33 1
     9    3   34 1
    10    3   35 1
    11    4   36 1
    12    4   37 1
    13    4   38 1
    14    5    9 2
    15    5    6 1
    16    6    7 2
    17    6   39 1
    18    7    8 1
    19    7   11 1
    20    8    9 1
    21    8   10 1
    22   10   40 1
    23   10   41 1
    24   10   42 1
    25   11   12 2
    26   11   13 am
    27   13   14 1
    28   13   43 1
    29   14   15 1
    30   14   16 1
    31   14   24 1
    32   16   17 1
    33   16   44 1
    34   16   45 1
    35   17   22 ar
    36   17   18 ar
    37   18   19 ar
    38   18   46 1
    39   19   20 ar
    40   19   47 1
    41   20   21 ar
    42   20   48 1
    43   21   22 ar
    44   21   23 1
    45   22   49 1
    46   24   25 2
    47   24   26 am
    48   26   27 1
    49   26   50 1
    50   27   28 1
    51   27   51 1
    52   27   52 1
    53   28   29 3
@<TRIPOS>MOLECULE
ZINC36379291
   32    34     0     0     0
SMALL
USER_CHARGES

@<TRIPOS>ATOM
      1 C1          0.2878    0.9295    0.1333 C.3       1 <0>        -0.1722
      2 C2          0.1896   -0.5791   -0.1024 C.3       1 <0>         0.1039
      3 N1         -1.2171   -0.9872   -0.0741 N.pl3     1 <0>        -0.4641
      4 C3         -1.8950   -1.4700    1.0041 C.2       1 <0>         0.2769
      5 N2         -3.1277   -1.7321    0.6754 N.2       1 <0>        -0.4645
      6 C4         -3.3196   -1.4356   -0.6301 C.ar      1 <0>        -0.0696
      7 C5         -2.0962   -0.9478   -1.1282 C.ar      1 <0>         0.3016
      8 N3         -2.0174   -0.5773   -2.3983 N.ar      1 <0>        -0.5018
      9 C6         -3.0751   -0.6605   -3.1921 C.ar      1 <0>         0.4627
     10 N4         -4.2500   -1.1115   -2.7641 N.ar      1 <0>        -0.5421
     11 C7         -4.4155   -1.5107   -1.5099 C.ar      1 <0>         0.5044
     12 N5         -5.6437   -1.9782   -1.0722 N.pl3     1 <0>        -0.6278
     13 C8         -6.6871   -2.1611   -1.9840 C.ar      1 <0>         0.2135
     14 C9         -6.4125   -2.5724   -3.2818 C.ar      1 <0>        -0.1634
     15 C10        -7.4468   -2.7533   -4.1824 C.ar      1 <0>         0.1557
     16 C11        -8.7552   -2.5241   -3.7910 C.ar      1 <0>        -0.2069
     17 C12        -9.0313   -2.1140   -2.4974 C.ar      1 <0>         0.1557
     18 C13        -8.0005   -1.9374   -1.5918 C.ar      1 <0>        -0.1919
     19 F1        -10.3086   -1.8907   -2.1182 F         1 <0>        -0.1256
     20 F2         -7.1803   -3.1533   -5.4450 F         1 <0>        -0.1248
     21 C14        -2.9482   -0.2500   -4.5581 C.1       1 <0>         0.2859
     22 N6         -2.8475    0.0757   -5.6418 N.1       1 <0>        -0.3467
     23 H1          1.3345    1.2331    0.1123 H         1 <0>         0.0835
     24 H2         -0.2590    1.4558   -0.6490 H         1 <0>         0.0658
     25 H3         -0.1420    1.1742    1.1046 H         1 <0>         0.0649
     26 H4          0.6195   -0.8238   -1.0737 H         1 <0>         0.1005
     27 H5          0.7365   -1.1054    0.6799 H         1 <0>         0.1057
     28 H6         -1.4723   -1.6142    1.9875 H         1 <0>         0.2314
     29 H7         -5.7797   -2.1786   -0.1330 H         1 <0>         0.4368
     30 H8         -5.3922   -2.7505   -3.5878 H         1 <0>         0.1529
     31 H9         -9.5614   -2.6651   -4.4956 H         1 <0>         0.1514
     32 H10        -8.2167   -1.6218   -0.5818 H         1 <0>         0.1480
@<TRIPOS>BOND
     1    1    2 1
     2    1   23 1
     3    1   24 1
     4    1   25 1
     5    2    3 1
     6    2   26 1
     7    2   27 1
     8    3    7 1
     9    3    4 1
    10    4    5 2
    11    4   28 1
    12    5    6 1
    13    6   11 ar
    14    6    7 ar
    15    7    8 ar
    16    8    9 ar
    17    9   10 ar
    18    9   21 1
    19   10   11 ar
    20   11   12 1
    21   12   13 1
    22   12   29 1
    23   13   18 ar
    24   13   14 ar
    25   14   15 ar
    26   14   30 1
    27   15   16 ar
    28   15   20 1
    29   16   17 ar
    30   16   31 1
    31   17   18 ar
    32   17   19 1
    33   18   32 1
    34   21   22 3
