@<TRIPOS>MOLECULE
ZINC13676539
   39    38     0     0     0
SMALL
USER_CHARGES
tert-butyl N-[(1S)-1-(cyanomethylcarbamoyl)-2-methyl-propyl]carbamate
@<TRIPOS>ATOM
      1 C1         -1.3219    0.3101    2.1067 C.3       1 <0>        -0.1400
      2 C2         -2.3724    1.2708    1.5461 C.3       1 <0>        -0.1022
      3 C3         -1.9960    2.7080    1.9119 C.3       1 <0>        -0.1512
      4 C4         -2.4310    1.1307    0.0237 C.3       1 <0>         0.1533
      5 H1         -2.6170    0.0892   -0.2384 H         1 <0>         0.1176
      6 C5         -3.5435    1.9913   -0.5175 C.2       1 <0>         0.5229
      7 O1         -3.2912    3.0727   -1.0052 O.2       1 <0>        -0.5185
      8 N1         -4.8188    1.5592   -0.4596 N.am      1 <0>        -0.7257
      9 C6         -5.9103    2.4390   -0.8849 C.3       1 <0>         0.2204
     10 C7         -7.1953    1.7387   -0.7258 C.1       1 <0>         0.1878
     11 N2         -8.1869    1.1983   -0.6030 N.1       1 <0>        -0.3952
     12 N3         -1.1557    1.5598   -0.5556 N.am      1 <0>        -0.6954
     13 C8         -0.1295    0.6907   -0.6445 C.2       1 <0>         0.6564
     14 O2         -0.2621   -0.4489   -0.2441 O.2       1 <0>        -0.5607
     15 O3          1.0408    1.0834   -1.1820 O.3       1 <0>        -0.3614
     16 C9          2.1000    0.0927   -1.2511 C.3       1 <0>         0.1376
     17 C10         1.6351   -1.0926   -2.0996 C.3       1 <0>        -0.1842
     18 C11         3.3431    0.7185   -1.8867 C.3       1 <0>        -0.1428
     19 C12         2.4379   -0.3919    0.1603 C.3       1 <0>        -0.1844
     20 H2         -0.3470    0.5497    1.6820 H         1 <0>         0.0595
     21 H3         -1.2801    0.4099    3.1913 H         1 <0>         0.0541
     22 H4         -1.5900   -0.7138    1.8461 H         1 <0>         0.0651
     23 H5         -3.3473    1.0312    1.9708 H         1 <0>         0.0865
     24 H6         -1.8744    2.7880    2.9922 H         1 <0>         0.0616
     25 H7         -1.0606    2.9750    1.4202 H         1 <0>         0.0606
     26 H8         -2.7850    3.3849    1.5840 H         1 <0>         0.0573
     27 H9         -5.0140    0.6658   -0.1362 H         1 <0>         0.4112
     28 H10        -5.9097    3.3408   -0.2727 H         1 <0>         0.1187
     29 H11        -5.7715    2.7102   -1.9315 H         1 <0>         0.1193
     30 H12        -1.0499    2.4695   -0.8753 H         1 <0>         0.4166
     31 H13         1.3944   -0.7473   -3.1051 H         1 <0>         0.0596
     32 H14         2.4302   -1.8363   -2.1515 H         1 <0>         0.0715
     33 H15         0.7495   -1.5384   -1.6468 H         1 <0>         0.0878
     34 H16         3.6742    1.5629   -1.2821 H         1 <0>         0.0674
     35 H17         4.1382   -0.0252   -1.9385 H         1 <0>         0.0819
     36 H18         3.1023    1.0638   -2.8921 H         1 <0>         0.0673
     37 H19         1.5523   -0.8378    0.6131 H         1 <0>         0.0886
     38 H20         3.2330   -1.1357    0.1084 H         1 <0>         0.0714
     39 H21         2.7691    0.4525    0.7648 H         1 <0>         0.0598
@<TRIPOS>BOND
     1    1    2 1
     2    1   20 1
     3    1   21 1
     4    1   22 1
     5    2    3 1
     6    2    4 1
     7    2   23 1
     8    3   24 1
     9    3   25 1
    10    3   26 1
    11    4    5 1
    12    4    6 1
    13    4   12 1
    14    6    7 2
    15    6    8 am
    16    8    9 1
    17    8   27 1
    18    9   10 1
    19    9   28 1
    20    9   29 1
    21   10   11 3
    22   12   13 am
    23   12   30 1
    24   13   14 2
    25   13   15 1
    26   15   16 1
    27   16   17 1
    28   16   18 1
    29   16   19 1
    30   17   31 1
    31   17   32 1
    32   17   33 1
    33   18   34 1
    34   18   35 1
    35   18   36 1
    36   19   37 1
    37   19   38 1
    38   19   39 1
@<TRIPOS>MOLECULE
ZINC13676543
   42    41     0     0     0
SMALL
USER_CHARGES
tert-butyl N-[(1S)-1-(cyanomethylcarbamoyl)-3-methyl-butyl]carbamate
@<TRIPOS>ATOM
      1 C1         -1.4673    4.0247    2.5303 C.3       1 <0>        -0.1489
      2 C2         -0.6466    3.5220    1.3409 C.3       1 <0>        -0.0923
      3 C3          0.8144    3.9410    1.5159 C.3       1 <0>        -0.1416
      4 C4         -0.7345    1.9962    1.2691 C.3       1 <0>        -0.1266
      5 C5         -0.0184    1.5028    0.0103 C.3       1 <0>         0.1473
      6 H1          1.0042    1.8801    0.0026 H         1 <0>         0.1260
      7 C6          0.0021   -0.0041    0.0020 C.2       1 <0>         0.5205
      8 O1         -0.5235   -0.6127   -0.9059 O.2       1 <0>        -0.5201
      9 N1          0.6044   -0.6754    1.0035 N.am      1 <0>        -0.7251
     10 C7          0.6242   -2.1402    0.9955 C.3       1 <0>         0.2202
     11 C8          1.3362   -2.6278    2.1880 C.1       1 <0>         0.1878
     12 N2          1.8856   -3.0041    3.1084 N.1       1 <0>        -0.3951
     13 N3         -0.7269    1.9881   -1.1766 N.am      1 <0>        -0.6963
     14 C9         -0.4624    3.2164   -1.6640 C.2       1 <0>         0.6551
     15 O2          0.3638    3.9214   -1.1191 O.2       1 <0>        -0.5556
     16 O3         -1.1136    3.6624   -2.7548 O.3       1 <0>        -0.3616
     17 C10        -0.7779    4.9949   -3.2240 C.3       1 <0>         0.1385
     18 C11         0.7087    5.0503   -3.5814 C.3       1 <0>        -0.1839
     19 C12        -1.6130    5.3248   -4.4629 C.3       1 <0>        -0.1430
     20 C13        -1.0759    6.0137   -2.1221 C.3       1 <0>        -0.1842
     21 H2         -1.0737    3.5943    3.4512 H         1 <0>         0.0532
     22 H3         -1.4047    5.1117    2.5815 H         1 <0>         0.0555
     23 H4         -2.5082    3.7262    2.4056 H         1 <0>         0.0511
     24 H5         -1.0402    3.9523    0.4201 H         1 <0>         0.0790
     25 H6          1.3991    3.5829    0.6686 H         1 <0>         0.0729
     26 H7          0.8771    5.0280    1.5671 H         1 <0>         0.0513
     27 H8          1.2080    3.5106    2.4368 H         1 <0>         0.0422
     28 H9         -1.7811    1.6938    1.2338 H         1 <0>         0.0756
     29 H10        -0.2607    1.5631    2.1500 H         1 <0>         0.0796
     30 H11         1.0247   -0.1886    1.7297 H         1 <0>         0.4109
     31 H12        -0.3983   -2.5175    1.0032 H         1 <0>         0.1194
     32 H13         1.1344   -2.4917    0.0987 H         1 <0>         0.1190
     33 H14        -1.3864    1.4253   -1.6116 H         1 <0>         0.4158
     34 H15         0.9210    4.3245   -4.3664 H         1 <0>         0.0594
     35 H16         0.9607    6.0506   -3.9336 H         1 <0>         0.0708
     36 H17         1.3036    4.8154   -2.6988 H         1 <0>         0.0885
     37 H18        -2.6721    5.2853   -4.2082 H         1 <0>         0.0670
     38 H19        -1.3610    6.3250   -4.8151 H         1 <0>         0.0816
     39 H20        -1.4007    4.5989   -5.2479 H         1 <0>         0.0672
     40 H21        -0.4810    5.7788   -1.2395 H         1 <0>         0.0895
     41 H22        -0.8239    7.0140   -2.4743 H         1 <0>         0.0707
     42 H23        -2.1350    5.9743   -1.8675 H         1 <0>         0.0591
@<TRIPOS>BOND
     1    1    2 1
     2    1   21 1
     3    1   22 1
     4    1   23 1
     5    2    3 1
     6    2    4 1
     7    2   24 1
     8    3   25 1
     9    3   26 1
    10    3   27 1
    11    4    5 1
    12    4   28 1
    13    4   29 1
    14    5    6 1
    15    5    7 1
    16    5   13 1
    17    7    8 2
    18    7    9 am
    19    9   10 1
    20    9   30 1
    21   10   11 1
    22   10   31 1
    23   10   32 1
    24   11   12 3
    25   13   14 am
    26   13   33 1
    27   14   15 2
    28   14   16 1
    29   16   17 1
    30   17   18 1
    31   17   19 1
    32   17   20 1
    33   18   34 1
    34   18   35 1
    35   18   36 1
    36   19   37 1
    37   19   38 1
    38   19   39 1
    39   20   40 1
    40   20   41 1
    41   20   42 1
@<TRIPOS>MOLECULE
ZINC13676558
   43    43     0     0     0
SMALL
USER_CHARGES

@<TRIPOS>ATOM
      1 C1         -0.0187    1.5258    0.0104 C.3       1 <0>        -0.1854
      2 C2          0.0021   -0.0041    0.0020 C.3       1 <0>         0.1357
      3 C3          0.7421   -0.5109    1.2415 C.3       1 <0>        -0.1857
      4 C4         -1.4333   -0.5336    0.0129 C.3       1 <0>        -0.1409
      5 O1          0.6709   -0.4649   -1.1737 O.3       1 <0>        -0.3549
      6 C5          1.9522   -0.0848   -1.3367 C.2       1 <0>         0.6620
      7 O2          2.4879    0.6189   -0.5034 O.2       1 <0>        -0.5628
      8 N1          2.6407   -0.4850   -2.4240 N.am      1 <0>        -0.6874
      9 C6          4.0349   -0.0714   -2.6014 C.3       1 <0>         0.1572
     10 H1          4.5261   -0.0235   -1.6295 H         1 <0>         0.1252
     11 C7          4.7587   -1.0856   -3.4893 C.3       1 <0>        -0.0850
     12 C8          4.8240   -2.4152   -2.7829 C.ar      1 <0>        -0.0900
     13 C9          5.8959   -2.7093   -1.9610 C.ar      1 <0>        -0.1126
     14 C10         5.9558   -3.9289   -1.3130 C.ar      1 <0>        -0.1166
     15 C11         4.9437   -4.8542   -1.4866 C.ar      1 <0>        -0.1174
     16 C12         3.8714   -4.5598   -2.3078 C.ar      1 <0>        -0.1160
     17 C13         3.8093   -3.3385   -2.9524 C.ar      1 <0>        -0.1088
     18 C14         4.0770    1.2868   -3.2529 C.2       1 <0>         0.5088
     19 O3          3.0441    1.8536   -3.5408 O.2       1 <0>        -0.5120
     20 N2          5.2624    1.8717   -3.5157 N.am      1 <0>        -0.7293
     21 C15         5.3033    3.1921   -4.1491 C.3       1 <0>         0.2198
     22 C16         6.7042    3.6077   -4.3272 C.1       1 <0>         0.1894
     23 N3          7.7853    3.9283   -4.4647 N.1       1 <0>        -0.3980
     24 H2          1.0039    1.9031    0.0027 H         1 <0>         0.0873
     25 H3         -0.5459    1.8868   -0.8726 H         1 <0>         0.0603
     26 H4         -0.5289    1.8773    0.9072 H         1 <0>         0.0695
     27 H5          0.2319   -0.1594    2.1383 H         1 <0>         0.0702
     28 H6          0.7568   -1.6008    1.2356 H         1 <0>         0.0590
     29 H7          1.7647   -0.1336    1.2338 H         1 <0>         0.0871
     30 H8         -1.9605   -0.1726   -0.8702 H         1 <0>         0.0672
     31 H9         -1.4185   -1.6235    0.0069 H         1 <0>         0.0664
     32 H10        -1.9435   -0.1821    0.9097 H         1 <0>         0.0809
     33 H11         2.2131   -1.0467   -3.0892 H         1 <0>         0.4102
     34 H12         4.2163   -1.1991   -4.4279 H         1 <0>         0.0919
     35 H13         5.7696   -0.7330   -3.6941 H         1 <0>         0.0993
     36 H14         6.6867   -1.9863   -1.8253 H         1 <0>         0.1234
     37 H15         6.7936   -4.1589   -0.6714 H         1 <0>         0.1234
     38 H16         4.9908   -5.8074   -0.9809 H         1 <0>         0.1223
     39 H17         3.0808   -5.2829   -2.4437 H         1 <0>         0.1234
     40 H18         2.9697   -3.1070   -3.5911 H         1 <0>         0.1207
     41 H19         6.0885    1.4185   -3.2854 H         1 <0>         0.4077
     42 H20         4.8121    3.1443   -5.1209 H         1 <0>         0.1176
     43 H21         4.7877    3.9147   -3.5165 H         1 <0>         0.1168
@<TRIPOS>BOND
     1    1    2 1
     2    1   24 1
     3    1   25 1
     4    1   26 1
     5    2    3 1
     6    2    4 1
     7    2    5 1
     8    3   27 1
     9    3   28 1
    10    3   29 1
    11    4   30 1
    12    4   31 1
    13    4   32 1
    14    5    6 1
    15    6    7 2
    16    6    8 am
    17    8    9 1
    18    8   33 1
    19    9   10 1
    20    9   11 1
    21    9   18 1
    22   11   12 1
    23   11   34 1
    24   11   35 1
    25   12   17 ar
    26   12   13 ar
    27   13   14 ar
    28   13   36 1
    29   14   15 ar
    30   14   37 1
    31   15   16 ar
    32   15   38 1
    33   16   17 ar
    34   16   39 1
    35   17   40 1
    36   18   19 2
    37   18   20 am
    38   20   21 1
    39   20   41 1
    40   21   22 1
    41   21   42 1
    42   21   43 1
    43   22   23 3
