@<TRIPOS>MOLECULE
ZINC00291740
   25    25     0     0     0
SMALL
USER_CHARGES

@<TRIPOS>ATOM
      1 C1         -0.1437    1.1377    0.0389 C.ar      1 <0>        -0.1490
      2 C2          0.9918    1.9233    0.1044 C.ar      1 <0>        -0.1241
      3 C3          2.2422    1.3343    0.0797 C.ar      1 <0>        -0.1232
      4 C4          2.3570   -0.0404   -0.0101 C.ar      1 <0>        -0.0456
      5 C5          1.2214   -0.8260   -0.0746 C.ar      1 <0>        -0.1179
      6 C6         -0.0289   -0.2369   -0.0513 C.ar      1 <0>        -0.1233
      7 C7          3.7201   -0.6824   -0.0380 C.3       1 <0>        -0.0612
      8 C8          4.2327   -0.8535    1.3933 C.3       1 <0>        -0.1235
      9 H1          4.2041    0.1075    1.9068 H         1 <0>         0.0562
     10 C9          3.3463   -1.8552    2.1362 C.3       1 <0>        -0.1544
     11 C10         3.7749   -1.9318    3.5789 C.2       1 <0>         0.4868
     12 O1          4.7032   -1.2485    3.9762 O.co2     1 <0>        -0.6423
     13 O2          3.1933   -2.6770    4.3489 O.co2     1 <0>        -0.7518
     14 C11         5.6502   -1.3641    1.3616 C.2       1 <0>         0.4928
     15 O3          6.2243   -1.5033    0.2950 O.co2     1 <0>        -0.7431
     16 O4          6.2229   -1.6380    2.4025 O.co2     1 <0>        -0.6435
     17 H2         -1.1206    1.5976    0.0628 H         1 <0>         0.1090
     18 H3          0.9022    2.9973    0.1746 H         1 <0>         0.1113
     19 H4          3.1293    1.9481    0.1301 H         1 <0>         0.1184
     20 H5          1.3111   -1.9000   -0.1451 H         1 <0>         0.1187
     21 H6         -0.9161   -0.8507   -0.1022 H         1 <0>         0.1119
     22 H7          3.6522   -1.6584   -0.5188 H         1 <0>         0.0589
     23 H8          4.4086   -0.0490   -0.5973 H         1 <0>         0.0664
     24 H9          2.3072   -1.5305    2.0826 H         1 <0>         0.0356
     25 H10         3.4440   -2.8383    1.6755 H         1 <0>         0.0370
@<TRIPOS>BOND
     1    1    6 ar
     2    1    2 ar
     3    1   17 1
     4    2    3 ar
     5    2   18 1
     6    3    4 ar
     7    3   19 1
     8    4    5 ar
     9    4    7 1
    10    5    6 ar
    11    5   20 1
    12    6   21 1
    13    7    8 1
    14    7   22 1
    15    7   23 1
    16    8    9 1
    17    8   10 1
    18    8   14 1
    19   10   11 1
    20   10   24 1
    21   10   25 1
    22   11   12 2
    23   11   13 1
    24   14   15 2
    25   14   16 1
@<TRIPOS>MOLECULE
ZINC00291740
   26    26     0     0     0
SMALL
USER_CHARGES

@<TRIPOS>ATOM
      1 C1         -0.1427    1.1404    0.0397 C.ar      1 <0>        -0.1383
      2 C2          0.9928    1.9257    0.1085 C.ar      1 <0>        -0.1199
      3 C3          2.2431    1.3367    0.0835 C.ar      1 <0>        -0.1199
      4 C4          2.3579   -0.0377   -0.0098 C.ar      1 <0>        -0.0656
      5 C5          1.2224   -0.8231   -0.0777 C.ar      1 <0>        -0.1239
      6 C6         -0.0279   -0.2340   -0.0541 C.ar      1 <0>        -0.1208
      7 C7          3.7210   -0.6797   -0.0381 C.3       1 <0>        -0.0574
      8 C8          4.2327   -0.8535    1.3933 C.3       1 <0>        -0.1415
      9 H1          4.2038    0.1065    1.9086 H         1 <0>         0.0717
     10 C9          3.3458   -1.8566    2.1337 C.3       1 <0>        -0.0847
     11 C10         3.7733   -1.9359    3.5766 C.2       1 <0>         0.4507
     12 O1          4.6931   -1.2596    3.9722 O.2       1 <0>        -0.4502
     13 O2          3.1324   -2.7580    4.4223 O.3       1 <0>        -0.5295
     14 C11         5.6502   -1.3641    1.3616 C.2       1 <0>         0.4917
     15 O3          6.2243   -1.5033    0.2950 O.co2     1 <0>        -0.7023
     16 O4          6.2229   -1.6380    2.4025 O.co2     1 <0>        -0.6707
     17 H2         -1.1196    1.6002    0.0638 H         1 <0>         0.1146
     18 H3          0.9030    2.9995    0.1815 H         1 <0>         0.1164
     19 H4          3.1302    1.9504    0.1366 H         1 <0>         0.1209
     20 H5          1.3122   -1.8969   -0.1510 H         1 <0>         0.1209
     21 H6         -0.9150   -0.8476   -0.1075 H         1 <0>         0.1167
     22 H7          3.6535   -1.6547   -0.5207 H         1 <0>         0.0699
     23 H8          4.4100   -0.0452   -0.5956 H         1 <0>         0.0811
     24 H9          2.3067   -1.5317    2.0800 H         1 <0>         0.0863
     25 H10         3.4437   -2.8388    1.6712 H         1 <0>         0.0903
     26 H11         3.4775   -2.7402    5.3254 H         1 <0>         0.3937
@<TRIPOS>BOND
     1    1    6 ar
     2    1    2 ar
     3    1   17 1
     4    2    3 ar
     5    2   18 1
     6    3    4 ar
     7    3   19 1
     8    4    5 ar
     9    4    7 1
    10    5    6 ar
    11    5   20 1
    12    6   21 1
    13    7    8 1
    14    7   22 1
    15    7   23 1
    16    8    9 1
    17    8   10 1
    18    8   14 1
    19   10   11 1
    20   10   24 1
    21   10   25 1
    22   11   12 2
    23   11   13 1
    24   13   26 1
    25   14   15 2
    26   14   16 1
@<TRIPOS>MOLECULE
ZINC00291743
   25    25     0     0     0
SMALL
USER_CHARGES
(2R)-2-benzylbutanedioic acid
@<TRIPOS>ATOM
      1 C1          1.1598    0.8162    4.3812 C.ar      1 <0>        -0.1430
      2 C2          0.7375    2.0003    3.8061 C.ar      1 <0>        -0.1218
      3 C3         -0.0979    1.9745    2.7051 C.ar      1 <0>        -0.0971
      4 C4         -0.5153    0.7648    2.1823 C.ar      1 <0>        -0.0468
      5 C5         -0.0887   -0.4192    2.7541 C.ar      1 <0>        -0.1196
      6 C6          0.7467   -0.3935    3.8551 C.ar      1 <0>        -0.1280
      7 C7         -1.4310    0.7369    0.9858 C.3       1 <0>        -0.0692
      8 C8         -2.8807    0.6027    1.4561 C.3       1 <0>        -0.1079
      9 H1         -2.9725   -0.2666    2.1072 H         1 <0>         0.0640
     10 C9         -3.7966    0.4301    0.2427 C.3       1 <0>        -0.1374
     11 C10        -5.2066    0.1754    0.7098 C.2       1 <0>         0.4575
     12 O1         -5.4536    0.1360    1.8919 O.co2     1 <0>        -0.6102
     13 C11        -3.2796    1.8425    2.2142 C.2       1 <0>         0.4994
     14 O2         -3.3586    2.9026    1.6399 O.co2     1 <0>        -0.6684
     15 H2          1.8122    0.8364    5.2416 H         1 <0>         0.1087
     16 H3          1.0600    2.9454    4.2173 H         1 <0>         0.1118
     17 H4         -0.4281    2.8996    2.2560 H         1 <0>         0.1208
     18 H5         -0.4118   -1.3644    2.3434 H         1 <0>         0.1158
     19 H6          1.0763   -1.3186    4.3046 H         1 <0>         0.1107
     20 H7         -1.3169    1.6610    0.4192 H         1 <0>         0.0684
     21 H8         -1.1747   -0.1120    0.3518 H         1 <0>         0.0572
     22 H9         -3.7725    1.3363   -0.3626 H         1 <0>         0.0641
     23 H10        -3.4534   -0.4148   -0.3543 H         1 <0>         0.0467
     24 O3         -6.1881   -0.0077   -0.1874 O.co2     1 <0>        -0.8072
     25 O4         -3.5472    1.7691    3.5275 O.co2     1 <0>        -0.7686
@<TRIPOS>BOND
     1    1    6 ar
     2    1    2 ar
     3    1   15 1
     4    2    3 ar
     5    2   16 1
     6    3    4 ar
     7    3   17 1
     8    4    5 ar
     9    4    7 1
    10    5    6 ar
    11    5   18 1
    12    6   19 1
    13    7    8 1
    14    7   20 1
    15    7   21 1
    16    8    9 1
    17    8   10 1
    18    8   13 1
    19   10   11 1
    20   10   22 1
    21   10   23 1
    22   11   12 2
    23   11   24 1
    24   13   14 2
    25   13   25 1
@<TRIPOS>MOLECULE
ZINC05138525
   20    19     0     0     0
SMALL
USER_CHARGES
2-ethylamino-3-sulfanyl-propanoic acid
@<TRIPOS>ATOM
      1 C1         -2.5455    1.2141   -2.7784 C.3       1 <0>        -0.1824
      2 C2         -1.8311    0.6756   -1.5372 C.3       1 <0>        -0.0016
      3 C3         -0.0127    1.0858    0.0080 C.3       1 <0>         0.0020
      4 H1          0.0021   -0.0041    0.0020 H         1 <0>         0.1487
      5 C4          1.4227    1.6154   -0.0028 C.3       1 <0>        -0.0775
      6 S1          2.2717    1.0304   -1.4953 S.3       1 <0>        -0.2755
      7 C5         -0.7181    1.5718    1.2479 C.2       1 <0>         0.4627
      8 O1         -1.7108    2.2536    1.1502 O.co2     1 <0>        -0.6076
      9 H2         -2.9367    2.2097   -2.5691 H         1 <0>         0.0792
     10 H3         -1.8410    1.2677   -3.6085 H         1 <0>         0.0749
     11 H4         -3.3676    0.5487   -3.0419 H         1 <0>         0.1000
     12 H5         -1.4399   -0.3200   -1.7465 H         1 <0>         0.1220
     13 H6         -2.5356    0.6221   -0.7071 H         1 <0>         0.1325
     14 H7          1.4079    2.7053    0.0031 H         1 <0>         0.1037
     15 H8          1.9499    1.2543    0.8802 H         1 <0>         0.1356
     16 H9          3.5067    1.5534   -1.3932 H         1 <0>         0.1287
     17 N1         -0.7206    1.5813   -1.1875 N.4       1 <0>        -0.5021
     18 H10        -1.0951    2.5179   -0.9954 H         1 <0>         0.4321
     19 H11        -0.0630    1.6304   -1.9745 H         1 <0>         0.4185
     20 O2         -0.2435    1.2473    2.4608 O.co2     1 <0>        -0.6940
@<TRIPOS>BOND
     1    1    2 1
     2    1    9 1
     3    1   10 1
     4    1   11 1
     5    2   12 1
     6    2   13 1
     7    2   17 1
     8    3    4 1
     9    3    5 1
    10    3    7 1
    11    3   17 1
    12    5    6 1
    13    5   14 1
    14    5   15 1
    15    6   16 1
    16    7    8 2
    17    7   20 1
    18   17   18 1
    19   17   19 1
@<TRIPOS>MOLECULE
ZINC13472436
   20    19     0     0     0
SMALL
USER_CHARGES
(2S)-2-ethylamino-3-sulfanyl-propanoic acid
@<TRIPOS>ATOM
      1 C1         -3.8945   -0.4813    1.3435 C.3       1 <0>        -0.1824
      2 C2         -2.7431    0.5254    1.3842 C.3       1 <0>        -0.0014
      3 C3         -1.3295    1.9397    0.0189 C.3       1 <0>         0.0018
      4 H1         -1.3915    2.5607    0.9126 H         1 <0>         0.1490
      5 C4         -1.4284    2.8250   -1.2251 C.3       1 <0>        -0.0787
      6 S1         -2.9423    3.8207   -1.1398 S.3       1 <0>        -0.2715
      7 C5         -0.0143    1.2041    0.0087 C.2       1 <0>         0.4628
      8 O1          0.0021   -0.0041    0.0020 O.co2     1 <0>        -0.6079
      9 H2         -4.7745   -0.0094    0.9064 H         1 <0>         0.0749
     10 H3         -3.6048   -1.3405    0.7385 H         1 <0>         0.0791
     11 H4         -4.1246   -0.8113    2.3565 H         1 <0>         0.1000
     12 H5         -1.8631    0.0534    1.8212 H         1 <0>         0.1326
     13 H6         -3.0328    1.3845    1.9891 H         1 <0>         0.1221
     14 H7         -0.5618    3.4845   -1.2715 H         1 <0>         0.1363
     15 H8         -1.4558    2.1977   -2.1161 H         1 <0>         0.1026
     16 H9         -2.9182    4.5469   -2.2717 H         1 <0>         0.1253
     17 N1         -2.4381    0.9667    0.0101 N.4       1 <0>        -0.5020
     18 H10        -3.2717    1.4067   -0.3972 H         1 <0>         0.4188
     19 H11        -2.1699    0.1527   -0.5554 H         1 <0>         0.4322
     20 O2          1.1389    1.8910    0.0013 O.co2     1 <0>        -0.6937
@<TRIPOS>BOND
     1    1    2 1
     2    1    9 1
     3    1   10 1
     4    1   11 1
     5    2   12 1
     6    2   13 1
     7    2   17 1
     8    3    4 1
     9    3    5 1
    10    3    7 1
    11    3   17 1
    12    5    6 1
    13    5   14 1
    14    5   15 1
    15    6   16 1
    16    7    8 2
    17    7   20 1
    18   17   18 1
    19   17   19 1
@<TRIPOS>MOLECULE
ZINC13472437
   23    22     0     0     0
SMALL
USER_CHARGES
(2R)-2-propylamino-3-sulfanyl-propanoic acid
@<TRIPOS>ATOM
      1 C1          5.2224    4.0578    2.7226 C.3       1 <0>        -0.1527
      2 C2          4.6482    4.0217    1.3049 C.3       1 <0>        -0.1477
      3 C3          3.1891    3.5646    1.3570 C.3       1 <0>        -0.0008
      4 C4          1.2350    3.0943    0.0069 C.3       1 <0>         0.0021
      5 H1          0.7441    3.4725    0.9036 H         1 <0>         0.1486
      6 C5          0.5222    3.6385   -1.2327 C.3       1 <0>        -0.0775
      7 S1          0.5925    5.4511   -1.2236 S.3       1 <0>        -0.2753
      8 C6          1.1765    1.5884   -0.0006 C.2       1 <0>         0.4629
      9 O1          2.1986    0.9442   -0.0139 O.co2     1 <0>        -0.6073
     10 H2          4.6450    4.7541    3.3308 H         1 <0>         0.0639
     11 H3          5.1692    3.0615    3.1616 H         1 <0>         0.0668
     12 H4          6.2619    4.3835    2.6855 H         1 <0>         0.0713
     13 H5          5.2256    3.3255    0.6967 H         1 <0>         0.0855
     14 H6          4.7014    5.0180    0.8659 H         1 <0>         0.0813
     15 H7          2.6117    4.2608    1.9653 H         1 <0>         0.1224
     16 H8          3.1360    2.5683    1.7960 H         1 <0>         0.1333
     17 H9          1.0130    3.2604   -2.1295 H         1 <0>         0.1038
     18 H10        -0.5188    3.3153   -1.2245 H         1 <0>         0.1357
     19 H11        -0.0577    5.8076   -2.3458 H         1 <0>         0.1286
     20 N1          2.6433    3.5325   -0.0130 N.4       1 <0>        -0.5019
     21 H12         3.1936    2.8781   -0.5816 H         1 <0>         0.4322
     22 H13         2.6997    4.4725   -0.4222 H         1 <0>         0.4187
     23 O2         -0.0110    0.9628    0.0073 O.co2     1 <0>        -0.6939
@<TRIPOS>BOND
     1    1    2 1
     2    1   10 1
     3    1   11 1
     4    1   12 1
     5    2    3 1
     6    2   13 1
     7    2   14 1
     8    3   15 1
     9    3   16 1
    10    3   20 1
    11    4    5 1
    12    4    6 1
    13    4    8 1
    14    4   20 1
    15    6    7 1
    16    6   17 1
    17    6   18 1
    18    7   19 1
    19    8    9 2
    20    8   23 1
    21   20   21 1
    22   20   22 1
@<TRIPOS>MOLECULE
ZINC00895347
   14    13     0     0     0
SMALL
USER_CHARGES

@<TRIPOS>ATOM
      1 C1         -0.0187    1.5258    0.0104 C.3       1 <0>        -0.0775
      2 C2          0.0021   -0.0041    0.0020 C.3       1 <0>        -0.0283
      3 H1          0.5883   -0.3548   -0.8473 H         1 <0>         0.1462
      4 C3         -1.4075   -0.5249   -0.1112 C.2       1 <0>         0.4942
      5 O1         -2.0253   -0.3903   -1.1536 O.co2     1 <0>        -0.6277
      6 O2         -1.9301   -1.0810    0.8397 O.co2     1 <0>        -0.6637
      7 N1          0.6059   -0.4925    1.2489 N.4       1 <0>        -0.6121
      8 S1          1.6831    2.1537   -0.0024 S.3       1 <0>        -0.2756
      9 H2         -0.5459    1.8868   -0.8726 H         1 <0>         0.1297
     10 H3         -0.5289    1.8773    0.9072 H         1 <0>         0.1031
     11 H4          0.6196   -1.5013    1.2434 H         1 <0>         0.4353
     12 H5          1.5497   -0.1437    1.3247 H         1 <0>         0.4199
     13 H6          1.5368    3.4906    0.0061 H         1 <0>         0.1242
     14 H7          0.0633   -0.1678    2.0352 H         1 <0>         0.4322
@<TRIPOS>BOND
     1    1    2 1
     2    1    8 1
     3    1    9 1
     4    1   10 1
     5    2    3 1
     6    2    4 1
     7    2    7 1
     8    4    5 2
     9    4    6 1
    10    7   11 1
    11    7   12 1
    12    7   14 1
    13    8   13 1
@<TRIPOS>MOLECULE
ZINC13472440
   23    22     0     0     0
SMALL
USER_CHARGES
(2S)-2-(isopropylamino)-3-sulfanyl-propanoic acid
@<TRIPOS>ATOM
      1 C1          4.2982    5.2289   -0.0982 C.3       1 <0>        -0.1767
      2 C2          2.8960    4.7809   -0.5153 C.3       1 <0>         0.0245
      3 C3          2.7773    4.8299   -2.0399 C.3       1 <0>        -0.1799
      4 C4          1.2291    3.1583    0.1563 C.3       1 <0>         0.0016
      5 H1          0.6485    3.8781   -0.4206 H         1 <0>         0.1488
      6 C5          0.8942    3.3065    1.6418 C.3       1 <0>        -0.0751
      7 S1          1.1562    5.0275    2.1519 S.3       1 <0>        -0.2687
      8 C6          0.8916    1.7615   -0.2978 C.2       1 <0>         0.4623
      9 O1          1.7561    1.0469   -0.7471 O.co2     1 <0>        -0.6073
     10 H2          5.0391    4.5638   -0.5419 H         1 <0>         0.0768
     11 H3          4.4718    6.2481   -0.4436 H         1 <0>         0.0992
     12 H4          4.3827    5.1940    0.9879 H         1 <0>         0.0819
     13 H5          2.1551    5.4461   -0.0717 H         1 <0>         0.1367
     14 H6          2.9509    5.8491   -2.3853 H         1 <0>         0.0991
     15 H7          3.5182    4.1648   -2.4836 H         1 <0>         0.0800
     16 H8          1.7784    4.5108   -2.3371 H         1 <0>         0.0796
     17 H9         -0.1477    3.0328    1.8085 H         1 <0>         0.1357
     18 H10         1.5399    2.6518    2.2269 H         1 <0>         0.1027
     19 H11         0.8335    5.0325    3.4577 H         1 <0>         0.1154
     20 N1          2.6697    3.4001   -0.0482 N.4       1 <0>        -0.5010
     21 H12         3.1665    3.2570    0.8389 H         1 <0>         0.4219
     22 H13         3.0272    2.7421   -0.7507 H         1 <0>         0.4342
     23 O2         -0.3694    1.3113   -0.2032 O.co2     1 <0>        -0.6920
@<TRIPOS>BOND
     1    1    2 1
     2    1   10 1
     3    1   11 1
     4    1   12 1
     5    2    3 1
     6    2   13 1
     7    2   20 1
     8    3   14 1
     9    3   15 1
    10    3   16 1
    11    4    5 1
    12    4    6 1
    13    4    8 1
    14    4   20 1
    15    6    7 1
    16    6   17 1
    17    6   18 1
    18    7   19 1
    19    8    9 2
    20    8   23 1
    21   20   21 1
    22   20   22 1
@<TRIPOS>MOLECULE
ZINC05420113
   23    22     0     0     0
SMALL
USER_CHARGES
4-methyl-2-(sulfanylmethyl)pentanoic acid
@<TRIPOS>ATOM
      1 C1         -1.9395    1.3293   -2.4057 C.3       1 <0>        -0.1400
      2 C2         -2.0802    1.5415   -0.8970 C.3       1 <0>        -0.0975
      3 C3         -3.2834    0.7499   -0.3807 C.3       1 <0>        -0.1456
      4 C4         -0.8109    1.0571   -0.1933 C.3       1 <0>        -0.0858
      5 C5         -0.8895    1.4026    1.2951 C.3       1 <0>        -0.1234
      6 H1         -1.8020    0.9823    1.7179 H         1 <0>         0.0805
      7 C6          0.3247    0.8175    2.0192 C.3       1 <0>        -0.0449
      8 S1          0.1580    1.0988    3.8035 S.3       1 <0>        -0.2093
      9 C7         -0.9012    2.9001    1.4632 C.2       1 <0>         0.4738
     10 O1         -0.2439    3.5960    0.7259 O.co2     1 <0>        -0.6428
     11 H2         -1.0609    1.8635   -2.7674 H         1 <0>         0.0526
     12 H3         -1.8291    0.2652   -2.6142 H         1 <0>         0.0466
     13 H4         -2.8283    1.7082   -2.9103 H         1 <0>         0.0478
     14 H5         -2.2275    2.6018   -0.6914 H         1 <0>         0.0789
     15 H6         -3.3836    0.9011    0.6941 H         1 <0>         0.0614
     16 H7         -4.1876    1.0951   -0.8820 H         1 <0>         0.0466
     17 H8         -3.1361   -0.3103   -0.5863 H         1 <0>         0.0462
     18 H9         -0.7196   -0.0226   -0.3114 H         1 <0>         0.0476
     19 H10         0.0580    1.5456   -0.6343 H         1 <0>         0.0680
     20 H11         0.3829   -0.2533    1.8241 H         1 <0>         0.0712
     21 H12         1.2316    1.3025    1.6581 H         1 <0>         0.0776
     22 H13         1.2690    0.5484    4.3249 H         1 <0>         0.0444
     23 O2         -1.6418    3.4609    2.4321 O.co2     1 <0>        -0.7538
@<TRIPOS>BOND
     1    1    2 1
     2    1   11 1
     3    1   12 1
     4    1   13 1
     5    2    3 1
     6    2    4 1
     7    2   14 1
     8    3   15 1
     9    3   16 1
    10    3   17 1
    11    4    5 1
    12    4   18 1
    13    4   19 1
    14    5    6 1
    15    5    7 1
    16    5    9 1
    17    7    8 1
    18    7   20 1
    19    7   21 1
    20    8   22 1
    21    9   10 2
    22    9   23 1
@<TRIPOS>MOLECULE
ZINC05420122
   23    22     0     0     0
SMALL
USER_CHARGES
4-methyl-2-(sulfanylmethyl)pentanoic acid
@<TRIPOS>ATOM
      1 C1         -1.5944    4.3376   -2.4240 C.3       1 <0>        -0.1446
      2 C2         -0.9248    3.5796   -1.2760 C.3       1 <0>        -0.1005
      3 C3         -1.3039    2.0993   -1.3525 C.3       1 <0>        -0.1474
      4 C4          0.5944    3.7234   -1.3875 C.3       1 <0>        -0.0880
      5 C5          1.2596    3.0561   -0.1821 C.3       1 <0>        -0.1183
      6 H1          0.9339    2.0180   -0.1158 H         1 <0>         0.0815
      7 C6          0.8619    3.7980    1.0955 C.3       1 <0>        -0.0409
      8 S1          1.5291    2.9211    2.5365 S.3       1 <0>        -0.2394
      9 C7          2.7571    3.1032   -0.3449 C.2       1 <0>         0.4726
     10 O1          3.3713    4.0859   -0.0029 O.co2     1 <0>        -0.6337
     11 H2         -1.2593    3.9255   -3.3758 H         1 <0>         0.0536
     12 H3         -2.6767    4.2352   -2.3446 H         1 <0>         0.0485
     13 H4         -1.3243    5.3922   -2.3695 H         1 <0>         0.0514
     14 H5         -1.2599    3.9918   -0.3242 H         1 <0>         0.0664
     15 H6         -2.3890    2.0037   -1.3917 H         1 <0>         0.0462
     16 H7         -0.8677    1.6584   -2.2489 H         1 <0>         0.0554
     17 H8         -0.9251    1.5812   -0.4715 H         1 <0>         0.0598
     18 H9          0.8586    4.7807   -1.4092 H         1 <0>         0.0608
     19 H10         0.9384    3.2441   -2.3039 H         1 <0>         0.0682
     20 H11         1.2645    4.8106    1.0679 H         1 <0>         0.0853
     21 H12        -0.2248    3.8409    1.1674 H         1 <0>         0.0711
     22 H13         1.1193    3.6581    3.5844 H         1 <0>         0.0610
     23 O2          3.4085    2.0535   -0.8698 O.co2     1 <0>        -0.7690
@<TRIPOS>BOND
     1    1    2 1
     2    1   11 1
     3    1   12 1
     4    1   13 1
     5    2    3 1
     6    2    4 1
     7    2   14 1
     8    3   15 1
     9    3   16 1
    10    3   17 1
    11    4    5 1
    12    4   18 1
    13    4   19 1
    14    5    6 1
    15    5    7 1
    16    5    9 1
    17    7    8 1
    18    7   20 1
    19    7   21 1
    20    8   22 1
    21    9   10 2
    22    9   23 1
@<TRIPOS>MOLECULE
ZINC04280685
   17    16     0     0     0
SMALL
USER_CHARGES
2-methylamino-3-sulfanyl-propanoic acid
@<TRIPOS>ATOM
      1 C1         -1.4172    0.6130    0.5084 C.3       1 <0>        -0.0338
      2 C2         -0.1175    1.1133    2.4891 C.3       1 <0>         0.0008
      3 H1          0.3619    0.1852    2.1777 H         1 <0>         0.1497
      4 C3          0.9500    2.1126    2.9394 C.3       1 <0>        -0.0794
      5 S1          2.1746    2.3257    1.6182 S.3       1 <0>        -0.2708
      6 C4         -1.0582    0.8337    3.6327 C.2       1 <0>         0.4625
      7 O1         -2.2359    1.0789    3.5200 O.co2     1 <0>        -0.6081
      8 H2         -2.0380   -0.0518    1.1092 H         1 <0>         0.1236
      9 H3         -0.5982    0.0451    0.0671 H         1 <0>         0.1149
     10 H4         -2.0206    1.0560   -0.2839 H         1 <0>         0.1181
     11 H5          0.4806    3.0717    3.1579 H         1 <0>         0.1027
     12 H6          1.4440    1.7372    3.8356 H         1 <0>         0.1360
     13 H7          3.0485    3.2138    2.1247 H         1 <0>         0.1250
     14 N1         -0.8728    1.6876    1.3596 N.4       1 <0>        -0.5033
     15 H8         -1.6465    2.2560    1.7237 H         1 <0>         0.4343
     16 H9         -0.2475    2.2791    0.7999 H         1 <0>         0.4211
     17 O2         -0.5877    0.3121    4.7765 O.co2     1 <0>        -0.6934
@<TRIPOS>BOND
     1    1    8 1
     2    1    9 1
     3    1   10 1
     4    1   14 1
     5    2    3 1
     6    2    4 1
     7    2    6 1
     8    2   14 1
     9    4    5 1
    10    4   11 1
    11    4   12 1
    12    5   13 1
    13    6    7 2
    14    6   17 1
    15   14   15 1
    16   14   16 1
@<TRIPOS>MOLECULE
ZINC04280686
   17    16     0     0     0
SMALL
USER_CHARGES
2-methylamino-3-sulfanyl-propanoic acid
@<TRIPOS>ATOM
      1 C1         -0.8740    0.9534    1.2341 C.3       1 <0>        -0.0354
      2 C2         -0.7979    1.5348   -1.1151 C.3       1 <0>         0.0016
      3 H1         -1.8304    1.1902   -1.0567 H         1 <0>         0.1495
      4 C3         -0.1683    1.0408   -2.4191 C.3       1 <0>        -0.0825
      5 S1         -0.3362   -0.7622   -2.5266 S.3       1 <0>        -0.2669
      6 C4         -0.7685    3.0412   -1.0822 C.2       1 <0>         0.4609
      7 O1          0.1500    3.6159   -0.5474 O.co2     1 <0>        -0.6060
      8 H2         -0.3151    0.4808    2.0418 H         1 <0>         0.1192
      9 H3         -1.1511    1.9658    1.5280 H         1 <0>         0.1213
     10 H4         -1.7750    0.3752    1.0289 H         1 <0>         0.1172
     11 H5         -0.6752    1.5040   -3.2656 H         1 <0>         0.1306
     12 H6          0.8880    1.3091   -2.4370 H         1 <0>         0.1059
     13 H7          0.2460   -1.0739   -3.6983 H         1 <0>         0.1250
     14 N1         -0.0294    1.0021    0.0258 N.4       1 <0>        -0.5048
     15 H8          0.2963    0.0545   -0.1982 H         1 <0>         0.4218
     16 H9          0.7795    1.6093    0.2023 H         1 <0>         0.4353
     17 O2         -1.7626    3.7444   -1.6469 O.co2     1 <0>        -0.6927
@<TRIPOS>BOND
     1    1    8 1
     2    1    9 1
     3    1   10 1
     4    1   14 1
     5    2    3 1
     6    2    4 1
     7    2    6 1
     8    2   14 1
     9    4    5 1
    10    4   11 1
    11    4   12 1
    12    5   13 1
    13    6    7 2
    14    6   17 1
    15   14   15 1
    16   14   16 1
@<TRIPOS>MOLECULE
ZINC13472439
   23    22     0     0     0
SMALL
USER_CHARGES
(2R)-2-(isopropylamino)-3-sulfanyl-propanoic acid
@<TRIPOS>ATOM
      1 C1          0.0021   -0.0041    0.0020 C.3       1 <0>        -0.1790
      2 C2         -0.0187    1.5258    0.0104 C.3       1 <0>         0.0320
      3 C3          1.4167    2.0553   -0.0004 C.3       1 <0>        -0.1770
      4 C4         -2.1603    2.0437    1.0144 C.3       1 <0>         0.0017
      5 H1         -2.4617    1.2182    0.3695 H         1 <0>         0.1477
      6 C5         -2.8693    1.9212    2.3646 C.3       1 <0>        -0.0776
      7 S1         -2.4161    0.3476    3.1450 S.3       1 <0>        -0.2743
      8 C6         -2.5368    3.3510    0.3661 C.2       1 <0>         0.4628
      9 O1         -1.6816    4.1626    0.1016 O.co2     1 <0>        -0.6067
     10 H2          0.5293   -0.3651    0.8851 H         1 <0>         0.0783
     11 H3         -1.0205   -0.3814    0.0098 H         1 <0>         0.0793
     12 H4          0.5123   -0.3556   -0.8948 H         1 <0>         0.0993
     13 H5         -0.5459    1.8868   -0.8726 H         1 <0>         0.1358
     14 H6          1.9269    1.7038   -0.8972 H         1 <0>         0.0986
     15 H7          1.4019    3.1452    0.0056 H         1 <0>         0.0851
     16 H8          1.9439    1.6943    0.8826 H         1 <0>         0.0742
     17 H9         -2.5679    2.7467    3.0095 H         1 <0>         0.1034
     18 H10        -3.9482    1.9540    2.2128 H         1 <0>         0.1355
     19 H11        -3.0915    0.3548    4.3081 H         1 <0>         0.1274
     20 N1         -0.7014    2.0023    1.2281 N.4       1 <0>        -0.5007
     21 H12        -0.3658    2.9451    1.4576 H         1 <0>         0.4314
     22 H13        -0.4909    1.3654    2.0055 H         1 <0>         0.4175
     23 O2         -3.8222    3.6138    0.0824 O.co2     1 <0>        -0.6945
@<TRIPOS>BOND
     1    1    2 1
     2    1   10 1
     3    1   11 1
     4    1   12 1
     5    2    3 1
     6    2   13 1
     7    2   20 1
     8    3   14 1
     9    3   15 1
    10    3   16 1
    11    4    5 1
    12    4    6 1
    13    4    8 1
    14    4   20 1
    15    6    7 1
    16    6   17 1
    17    6   18 1
    18    7   19 1
    19    8    9 2
    20    8   23 1
    21   20   21 1
    22   20   22 1
@<TRIPOS>MOLECULE
ZINC03581087
   27    27     0     0     0
SMALL
USER_CHARGES
3-phenyl-2-sulfamoylamino-propanoic acid
@<TRIPOS>ATOM
      1 C1          0.5364   -1.6471    4.6574 C.ar      1 <0>        -0.1333
      2 C2          0.8364   -0.2993    4.5917 C.ar      1 <0>        -0.1224
      3 C3         -0.0984    0.5938    4.1025 C.ar      1 <0>        -0.1182
      4 C4         -1.3333    0.1391    3.6791 C.ar      1 <0>        -0.0659
      5 C5         -1.6352   -1.2080    3.7497 C.ar      1 <0>        -0.1150
      6 C6         -0.6985   -2.1018    4.2340 C.ar      1 <0>        -0.1185
      7 C7         -2.3526    1.1129    3.1462 C.3       1 <0>        -0.0697
      8 C8         -2.1742    1.2613    1.6340 C.3       1 <0>         0.1158
      9 H1         -2.2243    0.2791    1.1640 H         1 <0>         0.0909
     10 C9         -3.2688    2.1383    1.0827 C.2       1 <0>         0.4523
     11 O1         -2.9898    3.1671    0.5139 O.co2     1 <0>        -0.6251
     12 N1         -0.8720    1.8711    1.3534 N.pl3     1 <0>        -1.0980
     13 S1         -0.0172    1.4168    0.0098 S.o2      1 <0>         2.8020
     14 O2          0.0021   -0.0041    0.0020 O.2       1 <0>        -0.9931
     15 O3          1.1718    2.1948    0.0027 O.2       1 <0>        -1.0002
     16 N2         -0.8975    1.8855   -1.3122 N.pl3     1 <0>        -1.2457
     17 H2          1.2666   -2.3449    5.0399 H         1 <0>         0.1155
     18 H3          1.8011    0.0559    4.9228 H         1 <0>         0.1172
     19 H4          0.1358    1.6469    4.0515 H         1 <0>         0.1186
     20 H5         -2.6016   -1.5626    3.4230 H         1 <0>         0.1233
     21 H6         -0.9330   -3.1548    4.2857 H         1 <0>         0.1177
     22 H7         -2.2143    2.0821    3.6253 H         1 <0>         0.0733
     23 H8         -3.3553    0.7421    3.3591 H         1 <0>         0.0952
     24 H9         -0.5105    2.5410    1.9546 H         1 <0>         0.4097
     25 H10        -1.2009    1.2230   -1.9525 H         1 <0>         0.4123
     26 H11        -1.1097    2.8224   -1.4463 H         1 <0>         0.4216
     27 O4         -4.5537    1.7765    1.2237 O.co2     1 <0>        -0.7604
@<TRIPOS>BOND
     1    1    6 ar
     2    1    2 ar
     3    1   17 1
     4    2    3 ar
     5    2   18 1
     6    3    4 ar
     7    3   19 1
     8    4    5 ar
     9    4    7 1
    10    5    6 ar
    11    5   20 1
    12    6   21 1
    13    7    8 1
    14    7   22 1
    15    7   23 1
    16    8    9 1
    17    8   10 1
    18    8   12 1
    19   10   11 2
    20   10   27 1
    21   12   13 1
    22   12   24 1
    23   13   14 2
    24   13   15 2
    25   13   16 1
    26   16   25 1
    27   16   26 1
@<TRIPOS>MOLECULE
ZINC00411881
   34    36     0     0     0
SMALL
USER_CHARGES

@<TRIPOS>ATOM
      1 C1         -0.0166    1.3751    0.0096 C.ar      1 <0>        -0.1296
      2 C2          1.1694    2.0890    0.0021 C.ar      1 <0>        -0.0741
      3 C3          2.3829    1.4275   -0.0130 C.ar      1 <0>        -0.1474
      4 C4          2.4190    0.0428   -0.0212 C.ar      1 <0>         0.1627
      5 C5          1.2214   -0.6834   -0.0136 C.ar      1 <0>        -0.0607
      6 C6          0.0021   -0.0041    0.0020 C.ar      1 <0>        -0.0674
      7 C7          1.2484   -2.1598   -0.0228 C.2       1 <0>         0.2153
      8 N1          2.3190   -2.9165   -0.0322 N.2       1 <0>        -0.2460
      9 N2          1.9679   -4.1542   -0.0382 N.2       1 <0>        -0.2883
     10 C8          0.6580   -4.2370   -0.0328 C.2       1 <0>         0.1230
     11 O1          0.1742   -2.9799   -0.0170 O.3       1 <0>        -0.1989
     12 S1         -0.2931   -5.7202   -0.0380 S.3       1 <0>         0.1249
     13 C9          0.9517   -7.0396   -0.0514 C.3       1 <0>        -0.1844
     14 C10         0.2630   -8.3800   -0.0569 C.2       1 <0>         0.4234
     15 O2         -0.9482   -8.4394   -0.0522 O.2       1 <0>        -0.4275
     16 C11         1.0598   -9.6163   -0.0680 C.ar      1 <0>        -0.1632
     17 C12         2.4573   -9.5517   -0.0675 C.ar      1 <0>        -0.0575
     18 C13         3.1975  -10.7142   -0.0774 C.ar      1 <0>        -0.1216
     19 C14         2.5607  -11.9449   -0.0882 C.ar      1 <0>        -0.0008
     20 C15         1.1769  -12.0165   -0.0887 C.ar      1 <0>        -0.1218
     21 C16         0.4239  -10.8624   -0.0731 C.ar      1 <0>        -0.0410
     22 Cl1         3.5012  -13.4040   -0.1018 Cl        1 <0>        -0.0540
     23 O3          3.6110   -0.6082   -0.0369 O.3       1 <0>        -0.4770
     24 H1         -0.9603    1.9001    0.0259 H         1 <0>         0.1378
     25 H2          1.1463    3.1688    0.0077 H         1 <0>         0.1374
     26 H3          3.3042    1.9911   -0.0188 H         1 <0>         0.1426
     27 H4         -0.9253   -0.5575    0.0082 H         1 <0>         0.1367
     28 H5          1.5711   -6.9458   -0.9434 H         1 <0>         0.1390
     29 H6          1.5785   -6.9569    0.8365 H         1 <0>         0.1388
     30 H7          2.9549   -8.5932   -0.0598 H         1 <0>         0.1451
     31 H8          4.2764  -10.6659   -0.0771 H         1 <0>         0.1446
     32 H9          0.6873  -12.9791   -0.0975 H         1 <0>         0.1445
     33 H10        -0.6546  -10.9197   -0.0693 H         1 <0>         0.1475
     34 H11         3.9651   -0.8017    0.8419 H         1 <0>         0.3978
@<TRIPOS>BOND
     1    1    6 ar
     2    1    2 ar
     3    1   24 1
     4    2    3 ar
     5    2   25 1
     6    3    4 ar
     7    3   26 1
     8    4    5 ar
     9    4   23 1
    10    5    6 ar
    11    5    7 1
    12    6   27 1
    13    7   11 1
    14    7    8 2
    15    8    9 1
    16    9   10 2
    17   10   11 1
    18   10   12 1
    19   12   13 1
    20   13   14 1
    21   13   28 1
    22   13   29 1
    23   14   15 2
    24   14   16 1
    25   16   21 ar
    26   16   17 ar
    27   17   18 ar
    28   17   30 1
    29   18   19 ar
    30   18   31 1
    31   19   20 ar
    32   19   22 1
    33   20   21 ar
    34   20   32 1
    35   21   33 1
    36   23   34 1
@<TRIPOS>MOLECULE
ZINC12502869
   24    24     0     0     0
SMALL
USER_CHARGES
(2S)-2-benzyl-3-sulfanyl-propanoic acid
@<TRIPOS>ATOM
      1 C1          1.7527    2.1456    2.4945 C.ar      1 <0>        -0.1327
      2 C2          0.8578    3.1010    2.0507 C.ar      1 <0>        -0.1242
      3 C3         -0.2888    2.7161    1.3814 C.ar      1 <0>        -0.0926
      4 C4         -0.5431    1.3754    1.1605 C.ar      1 <0>        -0.0663
      5 C5          0.3545    0.4202    1.5997 C.ar      1 <0>        -0.1201
      6 C6          1.5011    0.8051    2.2690 C.ar      1 <0>        -0.1289
      7 C7         -1.7961    0.9554    0.4362 C.3       1 <0>        -0.0592
      8 C8         -2.8807    0.6027    1.4561 C.3       1 <0>        -0.1166
      9 H1         -2.4957   -0.1414    2.1533 H         1 <0>         0.0786
     10 C9         -4.1008    0.0358    0.7275 C.3       1 <0>        -0.0458
     11 S1         -5.3273   -0.5191    1.9434 S.3       1 <0>        -0.2083
     12 C10        -3.2796    1.8425    2.2142 C.2       1 <0>         0.4775
     13 O1         -3.3586    2.9026    1.6399 O.co2     1 <0>        -0.6413
     14 H2          2.6484    2.4463    3.0178 H         1 <0>         0.1135
     15 H3          1.0542    4.1483    2.2272 H         1 <0>         0.1162
     16 H4         -0.9882    3.4626    1.0349 H         1 <0>         0.1310
     17 H5          0.1577   -0.6270    1.4238 H         1 <0>         0.1162
     18 H6          2.2002    0.0586    2.6161 H         1 <0>         0.1146
     19 H7         -2.1429    1.7740   -0.1945 H         1 <0>         0.0799
     20 H8         -1.5830    0.0844   -0.1834 H         1 <0>         0.0609
     21 H9         -4.5389    0.8090    0.0964 H         1 <0>         0.0802
     22 H10        -3.7950   -0.8080    0.1089 H         1 <0>         0.0727
     23 H11        -6.3392   -0.9904    1.1931 H         1 <0>         0.0465
     24 O2         -3.5472    1.7691    3.5275 O.co2     1 <0>        -0.7516
@<TRIPOS>BOND
     1    1    6 ar
     2    1    2 ar
     3    1   14 1
     4    2    3 ar
     5    2   15 1
     6    3    4 ar
     7    3   16 1
     8    4    5 ar
     9    4    7 1
    10    5    6 ar
    11    5   17 1
    12    6   18 1
    13    7    8 1
    14    7   19 1
    15    7   20 1
    16    8    9 1
    17    8   10 1
    18    8   12 1
    19   10   11 1
    20   10   21 1
    21   10   22 1
    22   11   23 1
    23   12   13 2
    24   12   24 1
@<TRIPOS>MOLECULE
ZINC12502871
   24    24     0     0     0
SMALL
USER_CHARGES
(2R)-2-benzyl-3-sulfanyl-propanoic acid
@<TRIPOS>ATOM
      1 C1         -1.5847    1.0779   -5.0088 C.ar      1 <0>        -0.1319
      2 C2         -0.6014    1.7975   -4.3558 C.ar      1 <0>        -0.1194
      3 C3         -0.8610    2.3577   -3.1190 C.ar      1 <0>        -0.0917
      4 C4         -2.1072    2.2072   -2.5399 C.ar      1 <0>        -0.0654
      5 C5         -3.0904    1.4876   -3.1928 C.ar      1 <0>        -0.1189
      6 C6         -2.8291    0.9229   -4.4273 C.ar      1 <0>        -0.1277
      7 C7         -2.3918    2.8224   -1.1940 C.3       1 <0>        -0.0585
      8 C8         -2.9498    4.2340   -1.3862 C.3       1 <0>        -0.1172
      9 H1         -3.8133    4.1961   -2.0503 H         1 <0>         0.0792
     10 C9         -3.3733    4.8039   -0.0309 C.3       1 <0>        -0.0438
     11 S1         -4.1695    6.4155   -0.2748 S.3       1 <0>        -0.2285
     12 C10        -1.8883    5.1155   -1.9922 C.2       1 <0>         0.4812
     13 O1         -0.8727    5.3464   -1.3798 O.co2     1 <0>        -0.6420
     14 H2         -1.3804    0.6364   -5.9730 H         1 <0>         0.1138
     15 H3          0.3710    1.9182   -4.8100 H         1 <0>         0.1164
     16 H4         -0.0914    2.9161   -2.6069 H         1 <0>         0.1236
     17 H5         -4.0626    1.3662   -2.7384 H         1 <0>         0.1162
     18 H6         -3.5972    0.3604   -4.9372 H         1 <0>         0.1146
     19 H7         -3.1223    2.2122   -0.6628 H         1 <0>         0.0639
     20 H8         -1.4698    2.8719   -0.6148 H         1 <0>         0.0763
     21 H9         -4.0751    4.1206    0.4473 H         1 <0>         0.0718
     22 H10        -2.4948    4.9249    0.6029 H         1 <0>         0.0860
     23 H11        -4.4930    6.8103    0.9696 H         1 <0>         0.0585
     24 O2         -2.0710    5.6441   -3.2125 O.co2     1 <0>        -0.7566
@<TRIPOS>BOND
     1    1    6 ar
     2    1    2 ar
     3    1   14 1
     4    2    3 ar
     5    2   15 1
     6    3    4 ar
     7    3   16 1
     8    4    5 ar
     9    4    7 1
    10    5    6 ar
    11    5   17 1
    12    6   18 1
    13    7    8 1
    14    7   19 1
    15    7   20 1
    16    8    9 1
    17    8   10 1
    18    8   12 1
    19   10   11 1
    20   10   21 1
    21   10   22 1
    22   11   23 1
    23   12   13 2
    24   12   24 1
