@<TRIPOS>MOLECULE
ZINC58655676
   55    57     0     0     0
SMALL
USER_CHARGES

@<TRIPOS>ATOM
      1 C1          0.5488    1.6611   -0.2219 C.3       1 <0>        -0.1411
      2 C2          0.4334    0.1368   -0.1575 C.3       1 <0>        -0.0014
      3 C3          1.1752   -0.3791    1.0772 C.3       1 <0>        -0.1412
      4 C4         -1.0195   -0.2538   -0.0701 C.2       1 <0>        -0.2596
      5 C5         -1.9098    0.1168    0.9294 C.2       1 <0>         0.1117
      6 N1         -3.0838   -0.4099    0.6710 N.2       1 <0>        -0.3361
      7 N2         -2.9973   -1.1475   -0.5153 N.pl3     1 <0>        -0.3639
      8 C6         -1.7117   -1.0440   -0.9772 C.2       1 <0>         0.3466
      9 N3         -1.3417   -1.6548   -2.1127 N.2       1 <0>        -0.5767
     10 C7         -2.2072   -2.3671   -2.8134 C.2       1 <0>         0.4953
     11 C8         -3.5350   -2.4948   -2.3753 C.2       1 <0>        -0.3671
     12 C9         -3.9182   -1.8828   -1.2175 C.2       1 <0>         0.5060
     13 N4         -5.2172   -1.9910   -0.7665 N.pl3     1 <0>        -0.7101
     14 C10        -6.1925   -2.7789   -1.5242 C.3       1 <0>         0.1679
     15 C11        -7.5259   -2.7365   -0.8233 C.ar      1 <0>        -0.1184
     16 C12        -7.8360   -3.6880    0.1303 C.ar      1 <0>        -0.0961
     17 C13        -9.0591   -3.6491    0.7733 C.ar      1 <0>        -0.1212
     18 C14        -9.9719   -2.6584    0.4630 C.ar      1 <0>        -0.1053
     19 C15        -9.6614   -1.7064   -0.4899 C.ar      1 <0>        -0.1214
     20 C16        -8.4366   -1.7427   -1.1298 C.ar      1 <0>        -0.0963
     21 N5         -1.8032   -2.9889   -3.9834 N.pl3     1 <0>        -0.6918
     22 C17        -0.4184   -2.8566   -4.4427 C.3       1 <0>         0.1320
     23 H1         -0.0468   -1.8624   -4.1947 H         1 <0>         0.1085
     24 C18         0.4500   -3.9119   -3.7549 C.3       1 <0>         0.0700
     25 O1          0.0275   -5.2151   -4.1614 O.3       1 <0>        -0.5699
     26 C19        -0.3623   -3.0587   -5.9582 C.3       1 <0>         0.1075
     27 H2         -0.7661   -4.0395   -6.2092 H         1 <0>         0.1172
     28 C20        -1.1915   -1.9738   -6.6485 C.3       1 <0>         0.0440
     29 O2         -1.2351   -2.2295   -8.0537 O.3       1 <0>        -0.5625
     30 O3          0.9941   -2.9748   -6.4001 O.3       1 <0>        -0.5390
     31 H3          1.5996    1.9436   -0.2851 H         1 <0>         0.0538
     32 H4          0.0202    2.0286   -1.1015 H         1 <0>         0.0506
     33 H5          0.1086    2.0970    0.6749 H         1 <0>         0.0520
     34 H6          0.8736   -0.2992   -1.0543 H         1 <0>         0.0769
     35 H7          2.2261   -0.0966    1.0141 H         1 <0>         0.0538
     36 H8          0.7351    0.0569    1.9741 H         1 <0>         0.0520
     37 H9          1.0931   -1.4650    1.1232 H         1 <0>         0.0506
     38 H10        -1.6741    0.7374    1.7813 H         1 <0>         0.1890
     39 H11        -4.2442   -3.0761   -2.9458 H         1 <0>         0.1543
     40 H12        -5.4849   -1.5453    0.0524 H         1 <0>         0.4169
     41 H13        -6.2955   -2.3630   -2.5265 H         1 <0>         0.0824
     42 H14        -5.8507   -3.8116   -1.5927 H         1 <0>         0.0828
     43 H15        -7.1229   -4.4620    0.3727 H         1 <0>         0.1248
     44 H16        -9.3017   -4.3929    1.5178 H         1 <0>         0.1267
     45 H17       -10.9277   -2.6285    0.9648 H         1 <0>         0.1260
     46 H18       -10.3746   -0.9326   -0.7326 H         1 <0>         0.1266
     47 H19        -8.1925   -0.9967   -1.8716 H         1 <0>         0.1246
     48 H20        -2.4372   -3.5119   -4.4985 H         1 <0>         0.4145
     49 H21         1.4927   -3.7638   -4.0361 H         1 <0>         0.0598
     50 H22         0.3484   -3.8178   -2.6738 H         1 <0>         0.0555
     51 H23         0.5354   -5.9352   -3.7633 H         1 <0>         0.3813
     52 H24        -2.2046   -1.9800   -6.2464 H         1 <0>         0.0549
     53 H25        -0.7358   -0.9998   -6.4704 H         1 <0>         0.0491
     54 H26        -1.7454   -1.5796   -8.5561 H         1 <0>         0.3802
     55 H27         1.4409   -2.1559   -6.1452 H         1 <0>         0.3731
@<TRIPOS>BOND
     1    1    2 1
     2    1   31 1
     3    1   32 1
     4    1   33 1
     5    2    3 1
     6    2    4 1
     7    2   34 1
     8    3   35 1
     9    3   36 1
    10    3   37 1
    11    4    8 2
    12    4    5 1
    13    5    6 2
    14    5   38 1
    15    6    7 1
    16    7   12 1
    17    7    8 1
    18    8    9 1
    19    9   10 2
    20   10   11 1
    21   10   21 1
    22   11   12 2
    23   11   39 1
    24   12   13 1
    25   13   14 1
    26   13   40 1
    27   14   15 1
    28   14   41 1
    29   14   42 1
    30   15   20 ar
    31   15   16 ar
    32   16   17 ar
    33   16   43 1
    34   17   18 ar
    35   17   44 1
    36   18   19 ar
    37   18   45 1
    38   19   20 ar
    39   19   46 1
    40   20   47 1
    41   21   22 1
    42   21   48 1
    43   22   23 1
    44   22   24 1
    45   22   26 1
    46   24   25 1
    47   24   49 1
    48   24   50 1
    49   25   51 1
    50   26   27 1
    51   26   28 1
    52   26   30 1
    53   28   29 1
    54   28   52 1
    55   28   53 1
    56   29   54 1
    57   30   55 1
@<TRIPOS>MOLECULE
ZINC01649340
   52    54     0     0     0
SMALL
USER_CHARGES

@<TRIPOS>ATOM
      1 C1         -0.0187    1.5258    0.0104 C.3       1 <0>        -0.1531
      2 C2          0.0021   -0.0041    0.0020 C.3       1 <0>        -0.1278
      3 C3         -1.4333   -0.5336    0.0129 C.3       1 <0>         0.1689
      4 H1         -1.9701   -0.1109    0.8621 H         1 <0>         0.1030
      5 C4         -1.4133   -2.0590    0.1302 C.3       1 <0>         0.0625
      6 O1         -0.6117   -2.6069   -0.9183 O.3       1 <0>        -0.5692
      7 N1         -2.1054   -0.1483   -1.2305 N.pl3     1 <0>        -0.6816
      8 C5         -3.4856   -0.0365   -1.2658 C.ar      1 <0>         0.6305
      9 N2         -4.1766   -0.2783   -0.1589 N.ar      1 <0>        -0.6256
     10 C6         -5.5013   -0.1844   -0.1423 C.ar      1 <0>         0.5407
     11 C7         -6.1646    0.1788   -1.3275 C.ar      1 <0>        -0.1560
     12 C8         -5.3921    0.4251   -2.4741 C.ar      1 <0>         0.3485
     13 N3         -4.0693    0.3129   -2.4004 N.ar      1 <0>        -0.6161
     14 N4         -6.2808    0.7538   -3.4662 N.pl3     1 <0>        -0.4704
     15 C9         -7.5330    0.7038   -2.9264 C.2       1 <0>         0.2320
     16 N5         -7.4624    0.3664   -1.6720 N.2       1 <0>        -0.4548
     17 C10        -5.9467    1.0964   -4.8508 C.3       1 <0>         0.1344
     18 C11        -6.6196    0.1019   -5.7989 C.3       1 <0>        -0.1626
     19 C12        -6.4419    2.5107   -5.1599 C.3       1 <0>        -0.1626
     20 N6         -6.2133   -0.4389    1.0165 N.pl3     1 <0>        -0.6899
     21 C13        -5.5062   -0.8166    2.2427 C.3       1 <0>         0.1717
     22 C14        -6.5039   -1.0364    3.3505 C.ar      1 <0>        -0.1135
     23 C15        -6.8801    0.0183    4.1611 C.ar      1 <0>        -0.0982
     24 C16        -7.7953   -0.1833    5.1773 C.ar      1 <0>        -0.1219
     25 C17        -8.3347   -1.4394    5.3826 C.ar      1 <0>        -0.1101
     26 C18        -7.9592   -2.4939    4.5714 C.ar      1 <0>        -0.1221
     27 C19        -7.0472   -2.2913    3.5524 C.ar      1 <0>        -0.0986
     28 H2          1.0039    1.9031    0.0027 H         1 <0>         0.0563
     29 H3         -0.5459    1.8868   -0.8726 H         1 <0>         0.0552
     30 H4         -0.5289    1.8773    0.9072 H         1 <0>         0.0537
     31 H5          0.5123   -0.3556   -0.8948 H         1 <0>         0.0768
     32 H6          0.5293   -0.3651    0.8851 H         1 <0>         0.0774
     33 H7         -0.9936   -2.3437    1.0951 H         1 <0>         0.0524
     34 H8         -2.4301   -2.4431    0.0488 H         1 <0>         0.0503
     35 H9         -0.5540   -3.5721   -0.9058 H         1 <0>         0.3776
     36 H10        -1.5839    0.0285   -2.0291 H         1 <0>         0.4145
     37 H11        -8.4474    0.9139   -3.4613 H         1 <0>         0.2138
     38 H12        -4.8660    1.0524   -4.9853 H         1 <0>         0.1061
     39 H13        -7.7004    0.1459   -5.6644 H         1 <0>         0.0654
     40 H14        -6.3710    0.3568   -6.8291 H         1 <0>         0.0793
     41 H15        -6.2668   -0.9057   -5.5787 H         1 <0>         0.0629
     42 H16        -5.9625    3.2193   -4.4845 H         1 <0>         0.0629
     43 H17        -6.1933    2.7656   -6.1901 H         1 <0>         0.0793
     44 H18        -7.5227    2.5547   -5.0254 H         1 <0>         0.0654
     45 H19        -7.1807   -0.3672    1.0169 H         1 <0>         0.4195
     46 H20        -4.9460   -1.7357    2.0706 H         1 <0>         0.0763
     47 H21        -4.8186   -0.0196    2.5258 H         1 <0>         0.0773
     48 H22        -6.4587    0.9996    4.0008 H         1 <0>         0.1237
     49 H23        -8.0886    0.6405    5.8111 H         1 <0>         0.1245
     50 H24        -9.0492   -1.5971    6.1770 H         1 <0>         0.1237
     51 H25        -8.3804   -3.4753    4.7320 H         1 <0>         0.1244
     52 H26        -6.7567   -3.1143    2.9163 H         1 <0>         0.1232
@<TRIPOS>BOND
     1    1    2 1
     2    1   28 1
     3    1   29 1
     4    1   30 1
     5    2    3 1
     6    2   31 1
     7    2   32 1
     8    3    4 1
     9    3    5 1
    10    3    7 1
    11    5    6 1
    12    5   33 1
    13    5   34 1
    14    6   35 1
    15    7    8 1
    16    7   36 1
    17    8   13 ar
    18    8    9 ar
    19    9   10 ar
    20   10   11 ar
    21   10   20 1
    22   11   16 1
    23   11   12 ar
    24   12   13 ar
    25   12   14 1
    26   14   15 1
    27   14   17 1
    28   15   16 2
    29   15   37 1
    30   17   18 1
    31   17   19 1
    32   17   38 1
    33   18   39 1
    34   18   40 1
    35   18   41 1
    36   19   42 1
    37   19   43 1
    38   19   44 1
    39   20   21 1
    40   20   45 1
    41   21   22 1
    42   21   46 1
    43   21   47 1
    44   22   27 ar
    45   22   23 ar
    46   23   24 ar
    47   23   48 1
    48   24   25 ar
    49   24   49 1
    50   25   26 ar
    51   25   50 1
    52   26   27 ar
    53   26   51 1
    54   27   52 1
@<TRIPOS>MOLECULE
ZINC17782150
   26    27     0     0     0
SMALL
USER_CHARGES

@<TRIPOS>ATOM
      1 C1          1.2107    0.1110   -0.3167 C.ar      1 <0>        -0.0845
      2 C2          2.3695    0.6247   -0.8574 C.ar      1 <0>        -0.1353
      3 C3          2.4406    0.9025   -2.2165 C.ar      1 <0>         0.1143
      4 C4          1.3452    0.6641   -3.0367 C.ar      1 <0>        -0.1360
      5 C5          0.1823    0.1506   -2.5047 C.ar      1 <0>        -0.0742
      6 C6          0.1062   -0.1304   -1.1380 C.ar      1 <0>         0.0044
      7 N1         -1.0458   -0.6406   -0.6057 N.2       1 <0>        -0.1879
      8 N2         -1.0418   -1.8093   -0.0598 N.2       1 <0>        -0.0741
      9 C7          0.0830   -2.5712   -0.0938 C.2       1 <0>        -0.2800
     10 C8          0.6978   -3.1916    0.9919 C.2       1 <0>         0.4511
     11 N3          1.7806   -3.8437    0.5189 N.pl3     1 <0>        -0.4845
     12 H1          2.4027   -4.3664    1.0487 H         1 <0>         0.4440
     13 N4          1.8562   -3.6401   -0.8630 N.2       1 <0>        -0.3488
     14 C9          0.8522   -2.8919   -1.2429 C.2       1 <0>         0.3951
     15 N5          0.5863   -2.4778   -2.5498 N.pl3     1 <0>        -0.8342
     16 N6          0.2770   -3.1474    2.3083 N.pl3     1 <0>        -0.8307
     17 O1          3.5849    1.4093   -2.7452 O.3       1 <0>        -0.4982
     18 H2          1.1578   -0.1088    0.7393 H         1 <0>         0.1196
     19 H3          3.2235    0.8119   -0.2234 H         1 <0>         0.1292
     20 H4          1.4048    0.8819   -4.0928 H         1 <0>         0.1346
     21 H5         -0.6689   -0.0344   -3.1432 H         1 <0>         0.1333
     22 H6         -0.2564   -2.0454   -2.7596 H         1 <0>         0.4089
     23 H7          1.2441   -2.6224   -3.2478 H         1 <0>         0.4071
     24 H8         -0.5195   -2.6474    2.5463 H         1 <0>         0.4262
     25 H9          0.7782   -3.6163    2.9937 H         1 <0>         0.4085
     26 H10         4.2088    0.7365   -3.0504 H         1 <0>         0.3919
@<TRIPOS>BOND
     1    1    6 ar
     2    1    2 ar
     3    1   18 1
     4    2    3 ar
     5    2   19 1
     6    3    4 ar
     7    3   17 1
     8    4    5 ar
     9    4   20 1
    10    5    6 ar
    11    5   21 1
    12    6    7 1
    13    7    8 2
    14    8    9 1
    15    9   14 1
    16    9   10 2
    17   10   11 1
    18   10   16 1
    19   11   12 1
    20   11   13 1
    21   13   14 2
    22   14   15 1
    23   15   22 1
    24   15   23 1
    25   16   24 1
    26   16   25 1
    27   17   26 1
@<TRIPOS>MOLECULE
ZINC17782150
   26    27     0     0     0
SMALL
USER_CHARGES

@<TRIPOS>ATOM
      1 C1         -0.0174    1.4084   -0.0035 C.2       1 <0>         0.0112
      2 C2          1.1490    2.1020   -0.0127 C.2       1 <0>        -0.2354
      3 C3          2.3781    1.4147   -0.0189 C.2       1 <0>         0.3914
      4 O1          3.4293    2.0422   -0.0276 O.2       1 <0>        -0.4959
      5 C4          2.4000    0.0066   -0.0146 C.2       1 <0>        -0.2038
      6 C5          1.2360   -0.6911   -0.0055 C.2       1 <0>        -0.0732
      7 C6          0.0020   -0.0039    0.0003 C.2       1 <0>        -0.0408
      8 N1         -1.1439   -0.6880    0.0093 N.2       1 <0>        -0.1200
      9 N2         -1.1284   -1.9737   -0.0951 N.pl3     1 <0>        -0.3983
     10 C7         -2.3258   -2.6792   -0.1925 C.2       1 <0>        -0.1356
     11 C8         -2.4915   -4.0393   -0.0144 C.2       1 <0>         0.3946
     12 N3         -3.8094   -4.3124   -0.1979 N.pl3     1 <0>        -0.4817
     13 H1         -4.2228   -5.1876   -0.1354 H         1 <0>         0.4481
     14 N4         -4.4681   -3.1130   -0.4923 N.2       1 <0>        -0.3445
     15 C9         -3.5945   -2.1362   -0.4850 C.2       1 <0>         0.3948
     16 N5         -3.8720   -0.7869   -0.7289 N.pl3     1 <0>        -0.8316
     17 N6         -1.4956   -4.9568    0.2943 N.pl3     1 <0>        -0.8462
     18 H2         -0.9598    1.9360    0.0053 H         1 <0>         0.1368
     19 H3          1.1347    3.1819   -0.0156 H         1 <0>         0.1403
     20 H4          3.3438   -0.5184   -0.0190 H         1 <0>         0.1354
     21 H5          1.2532   -1.7710   -0.0029 H         1 <0>         0.1156
     22 H6         -0.2830   -2.4492   -0.1059 H         1 <0>         0.3885
     23 H7         -3.1564   -0.1325   -0.7044 H         1 <0>         0.4173
     24 H8         -4.7799   -0.5057   -0.9226 H         1 <0>         0.4065
     25 H9         -0.5792   -4.6589    0.4052 H         1 <0>         0.4149
     26 H10        -1.7165   -5.8955    0.3990 H         1 <0>         0.4118
@<TRIPOS>BOND
     1    1    7 1
     2    1    2 2
     3    1   18 1
     4    2    3 1
     5    2   19 1
     6    3    4 2
     7    3    5 1
     8    5    6 2
     9    5   20 1
    10    6    7 1
    11    6   21 1
    12    7    8 2
    13    8    9 1
    14    9   10 1
    15    9   22 1
    16   10   15 1
    17   10   11 2
    18   11   12 1
    19   11   17 1
    20   12   13 1
    21   12   14 1
    22   14   15 2
    23   15   16 1
    24   16   23 1
    25   16   24 1
    26   17   25 1
    27   17   26 1
@<TRIPOS>MOLECULE
ZINC17782150
   27    28     0     0     0
SMALL
USER_CHARGES

@<TRIPOS>ATOM
      1 C1         -0.0175    1.4085   -0.0037 C.2       1 <0>        -0.0225
      2 C2          1.1489    2.1020   -0.0131 C.2       1 <0>        -0.1922
      3 C3          2.3781    1.4147   -0.0189 C.2       1 <0>         0.3825
      4 O1          3.4292    2.0423   -0.0270 O.2       1 <0>        -0.4508
      5 C4          2.3999    0.0066   -0.0151 C.2       1 <0>        -0.1577
      6 C5          1.2360   -0.6911   -0.0058 C.2       1 <0>        -0.1054
      7 C6          0.0020   -0.0039    0.0001 C.2       1 <0>         0.0536
      8 N1         -1.1438   -0.6880    0.0097 N.2       1 <0>        -0.1779
      9 N2         -1.1284   -1.9737   -0.0947 N.pl3     1 <0>        -0.4557
     10 C7         -2.3266   -2.6796   -0.1916 C.2       1 <0>        -0.0807
     11 C8         -3.6016   -2.1885    0.0927 C.2       1 <0>         0.5070
     12 N3         -4.4718   -3.1700   -0.1238 N.pl3     1 <0>        -0.4351
     13 H1         -5.4329   -3.1104   -0.0067 H         1 <0>         0.4767
     14 N4         -3.7697   -4.3033   -0.5496 N.pl3     1 <0>        -0.4320
     15 C9         -2.4745   -4.0069   -0.5968 C.cat     1 <0>         0.4909
     16 N5         -1.4497   -4.8669   -0.9789 N.pl3     1 <0>        -0.8015
     17 N6         -3.9072   -0.9022    0.5261 N.pl3     1 <0>        -0.7849
     18 H2         -0.9598    1.9360    0.0052 H         1 <0>         0.1445
     19 H3          1.1346    3.1819   -0.0164 H         1 <0>         0.1516
     20 H4          3.3437   -0.5184   -0.0200 H         1 <0>         0.1472
     21 H5          1.2533   -1.7710   -0.0032 H         1 <0>         0.1241
     22 H6         -0.2830   -2.4492   -0.1058 H         1 <0>         0.4009
     23 H7         -0.5307   -4.5565   -0.9784 H         1 <0>         0.4379
     24 H8         -1.6542   -5.7767   -1.2456 H         1 <0>         0.4301
     25 H9         -3.1983   -0.2530    0.6563 H         1 <0>         0.4474
     26 H10        -4.8292   -0.6546    0.6981 H         1 <0>         0.4249
     27 H11        -4.1627   -5.1606   -0.7763 H         1 <0>         0.4771
@<TRIPOS>BOND
     1    1    7 1
     2    1    2 2
     3    1   18 1
     4    2    3 1
     5    2   19 1
     6    3    4 2
     7    3    5 1
     8    5    6 2
     9    5   20 1
    10    6    7 1
    11    6   21 1
    12    7    8 2
    13    8    9 1
    14    9   10 1
    15    9   22 1
    16   10   15 1
    17   10   11 2
    18   11   12 1
    19   11   17 1
    20   12   13 1
    21   12   14 1
    22   14   15 2
    23   14   27 1
    24   15   16 1
    25   16   23 1
    26   16   24 1
    27   17   25 1
    28   17   26 1
@<TRIPOS>MOLECULE
ZINC17782150
   27    28     0     0     0
SMALL
USER_CHARGES

@<TRIPOS>ATOM
      1 C1         -0.0671    0.1506   -2.4543 C.ar      1 <0>        -0.0780
      2 C2          1.0595    0.7606   -2.9618 C.ar      1 <0>        -0.1323
      3 C3          2.1414    1.0263   -2.1322 C.ar      1 <0>         0.1375
      4 C4          2.0935    0.6783   -0.7884 C.ar      1 <0>        -0.1371
      5 C5          0.9712    0.0675   -0.2723 C.ar      1 <0>        -0.0871
      6 C6         -0.1200   -0.2008   -1.1029 C.ar      1 <0>        -0.0437
      7 N1         -1.2364   -0.8062   -0.5947 N.2       1 <0>        -0.1165
      8 N2         -1.1558   -1.9926   -0.0947 N.2       1 <0>        -0.0827
      9 C7          0.0298   -2.6576   -0.1101 C.2       1 <0>        -0.2485
     10 C8          0.6721   -3.2493    0.9916 C.2       1 <0>         0.5430
     11 N3          1.7996   -3.7946    0.5541 N.pl3     1 <0>        -0.4351
     12 H1          2.4438   -4.2722    1.0997 H         1 <0>         0.4754
     13 N4          1.9080   -3.5694   -0.8222 N.pl3     1 <0>        -0.4342
     14 C9          0.8445   -2.8903   -1.2320 C.cat     1 <0>         0.5159
     15 N5          0.5851   -2.4808   -2.5317 N.pl3     1 <0>        -0.7884
     16 N6          0.2106   -3.2605    2.2997 N.pl3     1 <0>        -0.7813
     17 O1          3.2501    1.6279   -2.6368 O.3       1 <0>        -0.4969
     18 H2         -0.9096   -0.0516   -3.0990 H         1 <0>         0.1475
     19 H3          1.1014    1.0322   -4.0063 H         1 <0>         0.1476
     20 H4          2.9371    0.8865   -0.1470 H         1 <0>         0.1404
     21 H5          0.9350   -0.2033    0.7726 H         1 <0>         0.1284
     22 H6         -0.2238   -1.9840   -2.7314 H         1 <0>         0.4390
     23 H7          1.2125   -2.6913   -3.2409 H         1 <0>         0.4283
     24 H8         -0.5925   -2.7700    2.5349 H         1 <0>         0.4487
     25 H9          0.6911   -3.7589    2.9792 H         1 <0>         0.4290
     26 H10         3.2291    2.5936   -2.5905 H         1 <0>         0.4068
     27 H11         2.6401   -3.8647   -1.3860 H         1 <0>         0.4741
@<TRIPOS>BOND
     1    1    6 ar
     2    1    2 ar
     3    1   18 1
     4    2    3 ar
     5    2   19 1
     6    3    4 ar
     7    3   17 1
     8    4    5 ar
     9    4   20 1
    10    5    6 ar
    11    5   21 1
    12    6    7 1
    13    7    8 2
    14    8    9 1
    15    9   14 1
    16    9   10 2
    17   10   11 1
    18   10   16 1
    19   11   12 1
    20   11   13 1
    21   13   14 2
    22   13   27 1
    23   14   15 1
    24   15   22 1
    25   15   23 1
    26   16   24 1
    27   16   25 1
    28   17   26 1
@<TRIPOS>MOLECULE
ZINC17782150
   27    28     0     0     0
SMALL
USER_CHARGES

@<TRIPOS>ATOM
      1 C1         -0.0169    1.3931    0.0097 C.ar      1 <0>        -0.0402
      2 C2          1.1683    2.0962    0.0022 C.ar      1 <0>        -0.1473
      3 C3          2.3804    1.4181   -0.0131 C.ar      1 <0>         0.1484
      4 C4          2.4041    0.0293   -0.0212 C.ar      1 <0>        -0.1491
      5 C5          1.2238   -0.6820   -0.0142 C.ar      1 <0>        -0.0792
      6 C6          0.0021   -0.0041    0.0020 C.ar      1 <0>         0.0315
      7 N1         -1.1719   -0.7061    0.0099 N.2       1 <0>        -0.2435
      8 N2         -1.1522   -1.9959    0.0028 N.2       1 <0>        -0.1650
      9 C7         -2.3190   -2.6936    0.0106 C.2       1 <0>        -0.1586
     10 C8         -3.6171   -2.1538    0.0203 C.2       1 <0>         0.5109
     11 N3         -4.4735   -3.1670    0.0249 N.pl3     1 <0>        -0.4430
     12 H1         -5.4402   -3.0882    0.0311 H         1 <0>         0.4722
     13 N4         -3.7556   -4.3676    0.0184 N.pl3     1 <0>        -0.4369
     14 C9         -2.4578   -4.0926    0.0045 C.cat     1 <0>         0.5506
     15 N5         -1.4246   -5.0181   -0.0100 N.pl3     1 <0>        -0.7763
     16 N6         -3.9434   -0.8056    0.0246 N.pl3     1 <0>        -0.7729
     17 O1          3.5464    2.1154   -0.0204 O.3       1 <0>        -0.4956
     18 H2         -0.9589    1.9211    0.0260 H         1 <0>         0.1407
     19 H3          1.1546    3.1761    0.0077 H         1 <0>         0.1446
     20 H4          3.3488   -0.4938   -0.0334 H         1 <0>         0.1392
     21 H5          1.2431   -1.7618   -0.0213 H         1 <0>         0.1398
     22 H6         -0.5029   -4.7160   -0.0170 H         1 <0>         0.4492
     23 H7         -1.6239   -5.9674   -0.0132 H         1 <0>         0.4280
     24 H8         -3.2410   -0.1366    0.0209 H         1 <0>         0.4506
     25 H9         -4.8739   -0.5319    0.0313 H         1 <0>         0.4236
     26 H10         3.8924    2.3125    0.8608 H         1 <0>         0.4024
     27 H11        -4.1436   -5.2566    0.0204 H         1 <0>         0.4759
@<TRIPOS>BOND
     1    1    6 ar
     2    1    2 ar
     3    1   18 1
     4    2    3 ar
     5    2   19 1
     6    3    4 ar
     7    3   17 1
     8    4    5 ar
     9    4   20 1
    10    5    6 ar
    11    5   21 1
    12    6    7 1
    13    7    8 2
    14    8    9 1
    15    9   14 1
    16    9   10 2
    17   10   11 1
    18   10   16 1
    19   11   12 1
    20   11   13 1
    21   13   14 2
    22   13   27 1
    23   14   15 1
    24   15   22 1
    25   15   23 1
    26   16   24 1
    27   16   25 1
    28   17   26 1
@<TRIPOS>MOLECULE
ZINC29135065
   25    27     0     0     0
SMALL
USER_CHARGES
4-(6-bromo-1H-pyrrolo[2,3-b]pyridin-3-yl)pyrimidin-2-amine
@<TRIPOS>ATOM
      1 C1          3.9019   -2.6656   -0.0489 C.ar      1 <0>        -0.0068
      2 C2          4.7889   -3.7264   -0.0625 C.ar      1 <0>        -0.1687
      3 C3          4.2976   -5.0234   -0.0642 C.ar      1 <0>         0.1610
      4 N1          3.0039   -5.2697   -0.0528 N.ar      1 <0>        -0.4735
      5 C4          2.1085   -4.2907   -0.0400 C.ar      1 <0>         0.2815
      6 C5          2.5372   -2.9515   -0.0375 C.ar      1 <0>        -0.1089
      7 C6          1.3158   -2.1310   -0.0215 C.2       1 <0>        -0.1479
      8 C7          0.2700   -2.9968   -0.0097 C.2       1 <0>         0.1376
      9 N2          0.7328   -4.2781   -0.0266 N.pl3     1 <0>        -0.5798
     10 H1          0.1740   -5.2256   -0.0304 H         1 <0>         0.4590
     11 C8          1.2420   -0.6541   -0.0133 C.ar      1 <0>         0.3054
     12 C9          0.0021   -0.0041    0.0020 C.ar      1 <0>        -0.2980
     13 C10        -0.0167    1.3771    0.0096 C.ar      1 <0>         0.1995
     14 N3          1.1296    2.0415    0.0022 N.ar      1 <0>        -0.5867
     15 C11         2.2897    1.4014   -0.0123 C.ar      1 <0>         0.5785
     16 N4          2.3547    0.0793   -0.0200 N.ar      1 <0>        -0.5766
     17 N5          3.4640    2.1342   -0.0191 N.pl3     1 <0>        -0.8460
     18 Br1         5.5134   -6.4716   -0.0828 Br        1 <0>        -0.0023
     19 H2          4.2558   -1.6452   -0.0476 H         1 <0>         0.1538
     20 H3          5.8538   -3.5466   -0.0712 H         1 <0>         0.1490
     21 H4         -0.7718   -2.7126    0.0080 H         1 <0>         0.1904
     22 H5         -0.9182   -0.5693    0.0081 H         1 <0>         0.1408
     23 H6         -0.9560    1.9100    0.0170 H         1 <0>         0.1666
     24 H7          4.4349    1.6172   -0.0311 H         1 <0>         0.4350
     25 H8          3.4263    3.2335   -0.0125 H         1 <0>         0.4372
@<TRIPOS>BOND
     1    1    6 ar
     2    1    2 ar
     3    1   19 1
     4    2    3 ar
     5    2   20 1
     6    3    4 ar
     7    3   18 1
     8    4    5 ar
     9    5    9 1
    10    5    6 ar
    11    6    7 1
    12    7    8 2
    13    7   11 1
    14    8    9 1
    15    8   21 1
    16    9   10 1
    17   11   16 ar
    18   11   12 ar
    19   12   13 ar
    20   12   22 1
    21   13   14 ar
    22   13   23 1
    23   14   15 ar
    24   15   16 ar
    25   15   17 1
    26   17   24 1
    27   17   25 1
@<TRIPOS>MOLECULE
ZINC29135071
   25    27     0     0     0
SMALL
USER_CHARGES
4-(4-chloro-1H-pyrrolo[2,3-b]pyridin-3-yl)pyrimidin-2-amine
@<TRIPOS>ATOM
      1 C1          4.6688    5.2304   -0.0133 C.ar      1 <0>        -0.1988
      2 C2          4.1415    6.5117   -0.0012 C.ar      1 <0>         0.1517
      3 N1          2.8423    6.7220    0.0117 N.ar      1 <0>        -0.4946
      4 C3          1.9731    5.7190    0.0139 C.ar      1 <0>         0.2866
      5 C4          2.4375    4.3925    0.0078 C.ar      1 <0>        -0.1240
      6 C5          3.8108    4.1438   -0.0116 C.ar      1 <0>         0.0624
      7 Cl1         4.4249    2.5202   -0.0258 Cl        1 <0>        -0.0158
      8 C6          1.2389    3.5391    0.0088 C.2       1 <0>        -0.1391
      9 C7          0.1699    4.3761    0.0234 C.2       1 <0>         0.1291
     10 N2          0.5983    5.6695    0.0266 N.pl3     1 <0>        -0.5797
     11 H1          0.0145    6.6017    0.0373 H         1 <0>         0.4590
     12 C8          1.2052    2.0607    0.0016 C.ar      1 <0>         0.2968
     13 C9         -0.0167    1.3772    0.0096 C.ar      1 <0>        -0.2957
     14 C10         0.0021   -0.0041    0.0020 C.ar      1 <0>         0.1967
     15 N3          1.1659   -0.6370   -0.0125 N.ar      1 <0>        -0.5865
     16 C11         2.3082    0.0345   -0.0198 C.ar      1 <0>         0.5726
     17 N4          2.3373    1.3579   -0.0130 N.ar      1 <0>        -0.5499
     18 N5          3.5019   -0.6660   -0.0345 N.pl3     1 <0>        -0.8460
     19 H2          5.7383    5.0808   -0.0234 H         1 <0>         0.1479
     20 H3          4.8125    7.3579   -0.0029 H         1 <0>         0.1714
     21 H4         -0.8640    4.0638    0.0314 H         1 <0>         0.1898
     22 H5         -0.9519    1.9171    0.0170 H         1 <0>         0.1390
     23 H6         -0.9225   -0.5623    0.0082 H         1 <0>         0.1652
     24 H7          4.4584   -0.1227   -0.0407 H         1 <0>         0.4252
     25 H8          3.4941   -1.7660   -0.0400 H         1 <0>         0.4366
@<TRIPOS>BOND
     1    1    6 ar
     2    1    2 ar
     3    1   19 1
     4    2    3 ar
     5    2   20 1
     6    3    4 ar
     7    4   10 1
     8    4    5 ar
     9    5    6 ar
    10    5    8 1
    11    6    7 1
    12    8    9 2
    13    8   12 1
    14    9   10 1
    15    9   21 1
    16   10   11 1
    17   12   17 ar
    18   12   13 ar
    19   13   14 ar
    20   13   22 1
    21   14   15 ar
    22   14   23 1
    23   15   16 ar
    24   16   17 ar
    25   16   18 1
    26   18   24 1
    27   18   25 1
@<TRIPOS>MOLECULE
ZINC01639355
   31    34     0     0     0
SMALL
USER_CHARGES

@<TRIPOS>ATOM
      1 C1         -0.0166    1.3732    0.0096 C.ar      1 <0>        -0.1257
      2 C2          1.1748    2.0786    0.0020 C.ar      1 <0>        -0.0832
      3 C3          2.3792    1.4098    0.0056 C.ar      1 <0>        -0.1400
      4 C4          2.4210    0.0136    0.0061 C.ar      1 <0>         0.1789
      5 C5          1.2194   -0.6945   -0.0178 C.ar      1 <0>        -0.0582
      6 C6          0.0021   -0.0041    0.0020 C.ar      1 <0>        -0.0848
      7 C7          1.1765   -2.1700   -0.1110 C.2       1 <0>         0.1249
      8 C8          2.0458   -2.9289   -0.8258 C.2       1 <0>        -0.1473
      9 C9          1.6305   -4.3071   -0.6826 C.ar      1 <0>        -0.0956
     10 C10         2.1330   -5.5059   -1.2017 C.ar      1 <0>        -0.0291
     11 C11         1.4744   -6.6587   -0.8492 C.ar      1 <0>        -0.1144
     12 C12         0.3640   -6.6479   -0.0195 C.ar      1 <0>        -0.0709
     13 C13        -0.1535   -5.4768    0.5077 C.ar      1 <0>        -0.1209
     14 C14         0.4938   -4.2910    0.1676 C.ar      1 <0>         0.1207
     15 N1          0.2503   -2.9898    0.5038 N.pl3     1 <0>        -0.5782
     16 H1         -0.4640   -2.6874    1.0863 H         1 <0>         0.4210
     17 Br1         2.1020   -8.3126   -1.5175 Br        1 <0>        -0.0539
     18 C15         3.2306   -2.3907   -1.5888 C.3       1 <0>        -0.0636
     19 C16         4.1060   -1.6483   -0.6094 C.2       1 <0>         0.5307
     20 O1          5.2428   -2.0303   -0.4280 O.2       1 <0>        -0.5234
     21 N2          3.6660   -0.5863    0.0608 N.am      1 <0>        -0.6636
     22 H2         -0.9584    1.9016    0.0259 H         1 <0>         0.1335
     23 H3          1.1598    3.1584   -0.0064 H         1 <0>         0.1345
     24 H4          3.3016    1.9714    0.0076 H         1 <0>         0.1356
     25 H5         -0.9274   -0.5540    0.0114 H         1 <0>         0.1274
     26 H6          2.9973   -5.5236   -1.8490 H         1 <0>         0.1433
     27 H7         -0.1141   -7.5852    0.2239 H         1 <0>         0.1348
     28 H8         -1.0196   -5.4824    1.1528 H         1 <0>         0.1402
     29 H9          3.7892   -3.2143   -2.0334 H         1 <0>         0.1154
     30 H10         2.8897   -1.7104   -2.3693 H         1 <0>         0.1052
     31 H11         4.3030   -0.1787    0.6682 H         1 <0>         0.4064
@<TRIPOS>BOND
     1    1    6 ar
     2    1    2 ar
     3    1   22 1
     4    2    3 ar
     5    2   23 1
     6    3    4 ar
     7    3   24 1
     8    4   21 1
     9    4    5 ar
    10    5    6 ar
    11    5    7 1
    12    6   25 1
    13    7   15 1
    14    7    8 2
    15    8    9 1
    16    8   18 1
    17    9   14 ar
    18    9   10 ar
    19   10   11 ar
    20   10   26 1
    21   11   12 ar
    22   11   17 1
    23   12   13 ar
    24   12   27 1
    25   13   14 ar
    26   13   28 1
    27   14   15 1
    28   15   16 1
    29   18   19 1
    30   18   29 1
    31   18   30 1
    32   19   20 2
    33   19   21 am
    34   21   31 1
@<TRIPOS>MOLECULE
ZINC02047389
   35    37     0     0     0
SMALL
USER_CHARGES
4-(2-amino-4-methyl-thiazol-5-yl)-N-(3-nitrophenyl)-pyrimidin-2-amine
@<TRIPOS>ATOM
      1 C1         -0.3352    9.7451    0.3855 C.3       1 <0>        -0.0905
      2 C2          1.0683   10.2863    0.4765 C.2       1 <0>         0.1892
      3 C3          2.1516    9.4456    0.4437 C.2       1 <0>        -0.2443
      4 S1          3.4879   10.6229    0.5913 S.3       1 <0>         0.0803
      5 C4          2.5163   12.0599    0.6693 C.2       1 <0>         0.3677
      6 N1          1.2883   11.5754    0.5891 N.2       1 <0>        -0.5897
      7 N2          2.9227   13.3752    0.7905 N.pl3     1 <0>        -0.7863
      8 C5          2.1999    7.9776    0.3258 C.ar      1 <0>         0.3332
      9 C6          3.4297    7.3038    0.3117 C.ar      1 <0>        -0.2707
     10 C7          3.4239    5.9278    0.2000 C.ar      1 <0>         0.2012
     11 N3          2.2663    5.2881    0.1154 N.ar      1 <0>        -0.5701
     12 C8          1.1176    5.9489    0.1256 C.ar      1 <0>         0.5646
     13 N4          1.0742    7.2675    0.2311 N.ar      1 <0>        -0.5547
     14 N5         -0.0691    5.2405    0.0290 N.pl3     1 <0>        -0.6363
     15 C9         -0.0510    3.8425    0.0333 C.ar      1 <0>         0.1760
     16 C10        -0.9835    3.1319   -0.7120 C.ar      1 <0>        -0.1004
     17 C11        -0.9631    1.7513   -0.7052 C.ar      1 <0>        -0.0922
     18 C12        -0.0158    1.0757    0.0425 C.ar      1 <0>        -0.0777
     19 C13         0.9104    1.7799    0.7896 C.ar      1 <0>        -0.0222
     20 C14         0.8989    3.1611    0.7830 C.ar      1 <0>        -0.0570
     21 N6          1.9186    1.0527    1.5932 N.pl3     1 <0>         0.0280
     22 O1          1.9320   -0.1652    1.5961 O.2       1 <0>        -0.1580
     23 O2          2.7348    1.6723    2.2515 O.3       1 <0>        -0.1552
     24 H1         -0.7077    9.5307    1.3872 H         1 <0>         0.0791
     25 H2         -0.9794   10.4840   -0.0912 H         1 <0>         0.0712
     26 H3         -0.3338    8.8291   -0.2054 H         1 <0>         0.0997
     27 H4          2.2629   14.0853    0.8267 H         1 <0>         0.4203
     28 H5          3.8677   13.5883    0.8394 H         1 <0>         0.4243
     29 H6          4.3593    7.8485    0.3862 H         1 <0>         0.1461
     30 H7          4.3533    5.3778    0.1861 H         1 <0>         0.1761
     31 H8         -0.9125    5.7144   -0.0416 H         1 <0>         0.4300
     32 H9         -1.7237    3.6588   -1.2958 H         1 <0>         0.1460
     33 H10        -1.6880    1.1983   -1.2841 H         1 <0>         0.1526
     34 H11        -0.0023   -0.0042    0.0464 H         1 <0>         0.1544
     35 H12         1.6253    3.7105    1.3635 H         1 <0>         0.1650
@<TRIPOS>BOND
     1    1    2 1
     2    1   24 1
     3    1   25 1
     4    1   26 1
     5    2    6 1
     6    2    3 2
     7    3    4 1
     8    3    8 1
     9    4    5 1
    10    5    6 2
    11    5    7 1
    12    7   27 1
    13    7   28 1
    14    8   13 ar
    15    8    9 ar
    16    9   10 ar
    17    9   29 1
    18   10   11 ar
    19   10   30 1
    20   11   12 ar
    21   12   13 ar
    22   12   14 1
    23   14   15 1
    24   14   31 1
    25   15   20 ar
    26   15   16 ar
    27   16   17 ar
    28   16   32 1
    29   17   18 ar
    30   17   33 1
    31   18   19 ar
    32   18   34 1
    33   19   20 ar
    34   19   21 1
    35   20   35 1
    36   21   22 2
    37   21   23 1
@<TRIPOS>MOLECULE
ZINC29135178
   25    27     0     0     0
SMALL
USER_CHARGES
4-(1H-pyrrolo[2,3-b]pyridin-3-yl)pyrimidin-2-amine
@<TRIPOS>ATOM
      1 C1          4.7883   -3.7278   -0.0631 C.ar      1 <0>        -0.2023
      2 C2          3.9016   -2.6660   -0.0490 C.ar      1 <0>        -0.0151
      3 C3          2.5371   -2.9514   -0.0434 C.ar      1 <0>        -0.1205
      4 C4          1.3158   -2.1310   -0.0215 C.2       1 <0>        -0.1497
      5 C5          0.2698   -2.9968   -0.0161 C.2       1 <0>         0.1117
      6 N1          0.7325   -4.2781   -0.0274 N.pl3     1 <0>        -0.5825
      7 H1          0.0233   -5.1190   -0.0251 H         1 <0>         0.4533
      8 C6          2.1082   -4.2909   -0.0406 C.ar      1 <0>         0.2883
      9 N2          3.0037   -5.2695   -0.0543 N.ar      1 <0>        -0.4996
     10 C7          4.2967   -5.0233   -0.0653 C.ar      1 <0>         0.1374
     11 C8          1.2420   -0.6541   -0.0133 C.ar      1 <0>         0.3061
     12 C9          0.0021   -0.0041    0.0020 C.ar      1 <0>        -0.2990
     13 C10        -0.0167    1.3771    0.0096 C.ar      1 <0>         0.1981
     14 N3          1.1296    2.0415    0.0022 N.ar      1 <0>        -0.5882
     15 C11         2.2897    1.4014   -0.0123 C.ar      1 <0>         0.5773
     16 N4          2.3546    0.0793   -0.0200 N.ar      1 <0>        -0.5763
     17 N5          3.4640    2.1342   -0.0196 N.pl3     1 <0>        -0.8466
     18 H2          5.8533   -3.5486   -0.0727 H         1 <0>         0.1386
     19 H3          4.2561   -1.6459   -0.0469 H         1 <0>         0.1435
     20 H4         -0.7720   -2.7125   -0.0043 H         1 <0>         0.1869
     21 H5          4.9908   -5.8507   -0.0760 H         1 <0>         0.1618
     22 H6         -0.9182   -0.5693    0.0081 H         1 <0>         0.1401
     23 H7         -0.9560    1.9100    0.0170 H         1 <0>         0.1658
     24 H8          4.4349    1.6172   -0.0316 H         1 <0>         0.4345
     25 H9          3.4263    3.2335   -0.0134 H         1 <0>         0.4365
@<TRIPOS>BOND
     1    1   10 ar
     2    1    2 ar
     3    1   18 1
     4    2    3 ar
     5    2   19 1
     6    3    8 ar
     7    3    4 1
     8    4    5 2
     9    4   11 1
    10    5    6 1
    11    5   20 1
    12    6    7 1
    13    6    8 1
    14    8    9 ar
    15    9   10 ar
    16   10   21 1
    17   11   16 ar
    18   11   12 ar
    19   12   13 ar
    20   12   22 1
    21   13   14 ar
    22   13   23 1
    23   14   15 ar
    24   15   16 ar
    25   15   17 1
    26   17   24 1
    27   17   25 1
@<TRIPOS>MOLECULE
ZINC01626613
   31    34     0     0     0
SMALL
USER_CHARGES
BLAHone
@<TRIPOS>ATOM
      1 C1          6.4967   -0.9421   -0.8454 C.ar      1 <0>        -0.1467
      2 C2          5.9357   -1.9084   -0.0262 C.ar      1 <0>        -0.0933
      3 C3          4.6611   -1.7834    0.4998 C.ar      1 <0>        -0.1325
      4 C4          3.9522   -0.6302    0.1700 C.ar      1 <0>         0.1086
      5 C5          4.5327    0.3577   -0.6680 C.ar      1 <0>        -0.0995
      6 C6          5.8231    0.2043   -1.1875 C.ar      1 <0>        -0.0629
      7 C7          3.5439    1.4059   -0.7996 C.2       1 <0>        -0.1530
      8 C8          2.4518    1.0187   -0.0942 C.2       1 <0>         0.1194
      9 N1          2.7010   -0.1993    0.5073 N.pl3     1 <0>        -0.5819
     10 H1          2.0818   -0.6759    1.0820 H         1 <0>         0.4182
     11 C9          1.1918    1.7883    0.0003 C.ar      1 <0>        -0.0549
     12 C10        -0.0126    1.0758    0.0080 C.ar      1 <0>        -0.0862
     13 C11        -1.2168    1.7447    0.0173 C.ar      1 <0>        -0.1257
     14 C12        -1.2361    3.1290    0.0278 C.ar      1 <0>        -0.0855
     15 C13        -0.0569    3.8412    0.0344 C.ar      1 <0>        -0.1399
     16 C14         1.1754    3.1828    0.0363 C.ar      1 <0>         0.1769
     17 N2          2.3138    3.9654    0.0978 N.am      1 <0>        -0.6637
     18 C15         3.4550    3.8280   -0.5739 C.2       1 <0>         0.5313
     19 O1          4.3479    4.6280   -0.3902 O.2       1 <0>        -0.5257
     20 C16         3.6669    2.7041   -1.5578 C.3       1 <0>        -0.0619
     21 H2          7.4953   -1.0956   -1.2270 H         1 <0>         0.1217
     22 H3          6.5128   -2.7903    0.2100 H         1 <0>         0.1238
     23 H4          4.2357   -2.5451    1.1365 H         1 <0>         0.1299
     24 H5          6.2679    0.9522   -1.8272 H         1 <0>         0.1326
     25 H6          0.0021   -0.0041    0.0020 H         1 <0>         0.1269
     26 H7         -2.1438    1.1905    0.0202 H         1 <0>         0.1328
     27 H8         -2.1804    3.6532    0.0267 H         1 <0>         0.1339
     28 H9         -0.0853    4.9209    0.0378 H         1 <0>         0.1350
     29 H10         2.2759    4.7145    0.7129 H         1 <0>         0.4055
     30 H11         2.9087    2.7491   -2.3397 H         1 <0>         0.1027
     31 H12         4.6598    2.7824   -2.0006 H         1 <0>         0.1141
@<TRIPOS>BOND
     1    1    6 ar
     2    1    2 ar
     3    1   21 1
     4    2    3 ar
     5    2   22 1
     6    3    4 ar
     7    3   23 1
     8    4    9 1
     9    4    5 ar
    10    5    6 ar
    11    5    7 1
    12    6   24 1
    13    7   20 1
    14    7    8 2
    15    8    9 1
    16    8   11 1
    17    9   10 1
    18   11   16 ar
    19   11   12 ar
    20   12   13 ar
    21   12   25 1
    22   13   14 ar
    23   13   26 1
    24   14   15 ar
    25   14   27 1
    26   15   16 ar
    27   15   28 1
    28   16   17 1
    29   17   18 am
    30   17   29 1
    31   18   19 2
    32   18   20 1
    33   20   30 1
    34   20   31 1
@<TRIPOS>MOLECULE
ZINC03950132
   46    49     0     0     0
SMALL
USER_CHARGES
4-(2-amino-4-methyl-thiazol-5-yl)-N-(4-morpholinophenyl)-pyrimidin-2-amine
@<TRIPOS>ATOM
      1 C1          4.1560   -0.7976    0.1288 C.3       1 <0>        -0.0903
      2 C2          5.0273    0.0086   -0.7995 C.2       1 <0>         0.1857
      3 C3          4.5164    1.0708   -1.5011 C.2       1 <0>        -0.2392
      4 S1          5.9673    1.6025   -2.3985 S.3       1 <0>         0.0763
      5 C4          7.0692    0.4161   -1.7712 C.2       1 <0>         0.3657
      6 N1          6.2965   -0.2857   -0.9592 N.2       1 <0>        -0.5890
      7 N2          8.4111    0.2448   -2.0535 N.pl3     1 <0>        -0.7876
      8 C5          3.1483    1.6180   -1.5155 C.ar      1 <0>         0.3312
      9 C6          2.8322    2.7257   -2.3152 C.ar      1 <0>        -0.2802
     10 C7          1.5368    3.2027   -2.2949 C.ar      1 <0>         0.1966
     11 N3          0.6368    2.6054   -1.5271 N.ar      1 <0>        -0.5647
     12 C8          0.9611    1.5596   -0.7803 C.ar      1 <0>         0.5701
     13 N4          2.1912    1.0711   -0.7636 N.ar      1 <0>        -0.5604
     14 N5         -0.0111    0.9658    0.0074 N.pl3     1 <0>        -0.6370
     15 C9         -1.2863    1.5388    0.0969 C.ar      1 <0>         0.1437
     16 C10        -1.4323    2.9189    0.0487 C.ar      1 <0>        -0.0851
     17 C11        -2.6897    3.4834    0.1313 C.ar      1 <0>        -0.1473
     18 C12        -3.8073    2.6715    0.2739 C.ar      1 <0>         0.0899
     19 C13        -3.6607    1.2916    0.3278 C.ar      1 <0>        -0.1158
     20 C14        -2.4038    0.7269    0.2395 C.ar      1 <0>        -0.1224
     21 N6         -5.0813    3.2440    0.3639 N.pl3     1 <0>        -0.4867
     22 C15        -5.9729    2.7112   -0.6765 C.3       1 <0>         0.0197
     23 C16        -7.3681    3.3176   -0.5049 C.3       1 <0>         0.0614
     24 O1         -7.2718    4.7437   -0.5527 O.3       1 <0>        -0.3833
     25 C17        -6.4117    5.2965    0.4473 C.3       1 <0>         0.0618
     26 C18        -5.0068    4.7101    0.2853 C.3       1 <0>         0.0127
     27 H1          3.7021   -1.6212   -0.4225 H         1 <0>         0.0783
     28 H2          4.7625   -1.1956    0.9423 H         1 <0>         0.0703
     29 H3          3.3730   -0.1593    0.5381 H         1 <0>         0.1010
     30 H4          8.9087   -0.4711   -1.6283 H         1 <0>         0.4198
     31 H5          8.8554    0.8405   -2.6769 H         1 <0>         0.4237
     32 H6          3.5844    3.1948   -2.9320 H         1 <0>         0.1421
     33 H7          1.2595    4.0540   -2.8990 H         1 <0>         0.1715
     34 H8          0.1898    0.1510    0.4938 H         1 <0>         0.4230
     35 H9         -0.5628    3.5505   -0.0578 H         1 <0>         0.1350
     36 H10        -2.8037    4.5566    0.0890 H         1 <0>         0.1283
     37 H11        -4.5298    0.6602    0.4391 H         1 <0>         0.1282
     38 H12        -2.2898   -0.3462    0.2811 H         1 <0>         0.1273
     39 H13        -5.5813    2.9716   -1.6599 H         1 <0>         0.0534
     40 H14        -6.0334    1.6268   -0.5837 H         1 <0>         0.0927
     41 H15        -7.7817    3.0127    0.4564 H         1 <0>         0.0622
     42 H16        -8.0182    2.9696   -1.3076 H         1 <0>         0.1028
     43 H17        -6.7975    5.0492    1.4363 H         1 <0>         0.0619
     44 H18        -6.3694    6.3797    0.3336 H         1 <0>         0.1028
     45 H19        -4.3621    5.0849    1.0802 H         1 <0>         0.0937
     46 H20        -4.5990    5.0025   -0.6823 H         1 <0>         0.0563
@<TRIPOS>BOND
     1    1    2 1
     2    1   27 1
     3    1   28 1
     4    1   29 1
     5    2    6 1
     6    2    3 2
     7    3    4 1
     8    3    8 1
     9    4    5 1
    10    5    6 2
    11    5    7 1
    12    7   30 1
    13    7   31 1
    14    8   13 ar
    15    8    9 ar
    16    9   10 ar
    17    9   32 1
    18   10   11 ar
    19   10   33 1
    20   11   12 ar
    21   12   13 ar
    22   12   14 1
    23   14   15 1
    24   14   34 1
    25   15   20 ar
    26   15   16 ar
    27   16   17 ar
    28   16   35 1
    29   17   18 ar
    30   17   36 1
    31   18   19 ar
    32   18   21 1
    33   19   20 ar
    34   19   37 1
    35   20   38 1
    36   21   26 1
    37   21   22 1
    38   22   23 1
    39   22   39 1
    40   22   40 1
    41   23   24 1
    42   23   41 1
    43   23   42 1
    44   24   25 1
    45   25   26 1
    46   25   43 1
    47   25   44 1
    48   26   45 1
    49   26   46 1
@<TRIPOS>MOLECULE
ZINC40442496
   48    50     0     0     0
SMALL
USER_CHARGES

@<TRIPOS>ATOM
      1 C1         -0.3035    1.5916   -0.2006 C.3       1 <0>        -0.1416
      2 C2         -0.2204    0.0919   -0.0785 C.cat     1 <0>         0.3300
      3 N1         -0.3374   -0.7570   -1.0651 N.pl3     1 <0>        -0.4778
      4 C3         -0.2111   -2.0037   -0.6007 C.2       1 <0>         0.0663
      5 C4         -0.0049   -1.9296    0.7438 C.2       1 <0>         0.0809
      6 N2         -0.0076   -0.5897    1.0654 N.pl3     1 <0>        -0.3913
      7 C5          0.1821   -0.0142    2.3992 C.3       1 <0>         0.1097
      8 C6          1.6270   -0.2375    2.8502 C.3       1 <0>        -0.1881
      9 C7         -0.1118    1.4866    2.3536 C.3       1 <0>        -0.1960
     10 C8          0.1887   -3.0612    1.6722 C.ar      1 <0>         0.2671
     11 C9          0.2594   -2.8438    3.0541 C.ar      1 <0>        -0.2822
     12 C10         0.4409   -3.9342    3.8831 C.ar      1 <0>         0.2146
     13 N3          0.5419   -5.1434    3.3517 N.ar      1 <0>        -0.5353
     14 C11         0.4716   -5.3214    2.0403 C.ar      1 <0>         0.5804
     15 N4          0.2934   -4.3070    1.2090 N.ar      1 <0>        -0.5453
     16 N5          0.5825   -6.6032    1.5266 N.pl3     1 <0>        -0.6309
     17 C12         0.6504   -7.6995    2.3916 C.ar      1 <0>         0.2074
     18 C13        -0.0655   -7.6924    3.5819 C.ar      1 <0>        -0.1347
     19 C14         0.0033   -8.7771    4.4338 C.ar      1 <0>        -0.0015
     20 C15         0.7838   -9.8697    4.1029 C.ar      1 <0>        -0.6719
     21 C16         1.4982   -9.8799    2.9189 C.ar      1 <0>         0.0016
     22 C17         1.4292   -8.8007    2.0598 C.ar      1 <0>        -0.1622
     23 S1          0.8688  -11.2516    5.1927 S.o2      1 <0>         2.5006
     24 O1          2.1265  -11.8532    4.9180 O.2       1 <0>        -0.9349
     25 O2          0.5870  -10.7171    6.4788 O.2       1 <0>        -0.9353
     26 C18        -0.4767  -12.3467    4.6627 C.3       1 <0>        -0.6502
     27 H1          0.7025    2.0103   -0.2277 H         1 <0>         0.1256
     28 H2         -0.8306    1.8528   -1.1182 H         1 <0>         0.1149
     29 H3         -0.8426    1.9966    0.6559 H         1 <0>         0.1416
     30 H4         -0.2638   -2.9091   -1.1870 H         1 <0>         0.2326
     31 H5         -0.4967   -0.4961    3.1028 H         1 <0>         0.1326
     32 H6          1.7910    0.2622    3.8049 H         1 <0>         0.1069
     33 H7          1.8115   -1.3058    2.9628 H         1 <0>         0.0828
     34 H8          2.3079    0.1722    2.1040 H         1 <0>         0.0772
     35 H9         -1.1588    1.6441    2.0945 H         1 <0>         0.0864
     36 H10         0.0910    1.9264    3.3301 H         1 <0>         0.1082
     37 H11         0.5231    1.9586    1.6037 H         1 <0>         0.0925
     38 H12         0.1744   -1.8474    3.4620 H         1 <0>         0.1599
     39 H13         0.5001   -3.8020    4.9534 H         1 <0>         0.1876
     40 H14         0.6132   -6.7400    0.5668 H         1 <0>         0.4306
     41 H15        -0.6750   -6.8393    3.8410 H         1 <0>         0.1402
     42 H16        -0.5528   -8.7720    5.3596 H         1 <0>         0.1481
     43 H17         2.1074  -10.7344    2.6638 H         1 <0>         0.1503
     44 H18         1.9839   -8.8112    1.1331 H         1 <0>         0.1381
     45 H19        -0.3183  -12.6411    3.6252 H         1 <0>         0.1318
     46 H20        -0.4922  -13.2351    5.2941 H         1 <0>         0.1354
     47 H21        -1.4281  -11.8221    4.7503 H         1 <0>         0.1313
     48 H22        -0.4926   -0.5188   -1.9925 H         1 <0>         0.4663
@<TRIPOS>BOND
     1    1    2 1
     2    1   27 1
     3    1   28 1
     4    1   29 1
     5    2    6 1
     6    2    3 2
     7    3    4 1
     8    3   48 1
     9    4    5 2
    10    4   30 1
    11    5    6 1
    12    5   10 1
    13    6    7 1
    14    7    8 1
    15    7    9 1
    16    7   31 1
    17    8   32 1
    18    8   33 1
    19    8   34 1
    20    9   35 1
    21    9   36 1
    22    9   37 1
    23   10   15 ar
    24   10   11 ar
    25   11   12 ar
    26   11   38 1
    27   12   13 ar
    28   12   39 1
    29   13   14 ar
    30   14   15 ar
    31   14   16 1
    32   16   17 1
    33   16   40 1
    34   17   22 ar
    35   17   18 ar
    36   18   19 ar
    37   18   41 1
    38   19   20 ar
    39   19   42 1
    40   20   21 ar
    41   20   23 1
    42   21   22 ar
    43   21   43 1
    44   22   44 1
    45   23   24 2
    46   23   25 2
    47   23   26 1
    48   26   45 1
    49   26   46 1
    50   26   47 1
@<TRIPOS>MOLECULE
ZINC40442496
   47    49     0     0     0
SMALL
USER_CHARGES

@<TRIPOS>ATOM
      1 C1         -0.3035    1.5916   -0.2007 C.3       1 <0>        -0.0993
      2 C2         -0.2204    0.0919   -0.0786 C.2       1 <0>         0.2415
      3 N1         -0.3374   -0.7571   -1.0652 N.2       1 <0>        -0.4953
      4 C3         -0.2111   -2.0037   -0.6007 C.2       1 <0>         0.0612
      5 C4         -0.0049   -1.9296    0.7438 C.2       1 <0>        -0.0230
      6 N2         -0.0076   -0.5897    1.0654 N.pl3     1 <0>        -0.4384
      7 C5          0.1821   -0.0141    2.3992 C.3       1 <0>         0.1185
      8 C6          1.6270   -0.2374    2.8501 C.3       1 <0>        -0.1794
      9 C7         -0.1118    1.4867    2.3535 C.3       1 <0>        -0.1818
     10 C8          0.1887   -3.0611    1.6722 C.ar      1 <0>         0.3085
     11 C9          0.2594   -2.8437    3.0541 C.ar      1 <0>        -0.2980
     12 C10         0.4409   -3.9342    3.8831 C.ar      1 <0>         0.1981
     13 N3          0.5419   -5.1433    3.3517 N.ar      1 <0>        -0.5589
     14 C11         0.4716   -5.3213    2.0404 C.ar      1 <0>         0.5685
     15 N4          0.2934   -4.3069    1.2091 N.ar      1 <0>        -0.5508
     16 N5          0.5826   -6.6032    1.5267 N.pl3     1 <0>        -0.6389
     17 C12         0.6504   -7.6995    2.3917 C.ar      1 <0>         0.2254
     18 C13        -0.0655   -7.6923    3.5819 C.ar      1 <0>        -0.1369
     19 C14         0.0033   -8.7771    4.4339 C.ar      1 <0>        -0.0022
     20 C15         0.7838   -9.8696    4.1031 C.ar      1 <0>        -0.6810
     21 C16         1.4982   -9.8798    2.9190 C.ar      1 <0>         0.0006
     22 C17         1.4292   -8.8007    2.0599 C.ar      1 <0>        -0.1700
     23 S1          0.8688  -11.2515    5.1929 S.o2      1 <0>         2.5030
     24 O1          2.1265  -11.8531    4.9182 O.2       1 <0>        -0.9392
     25 O2          0.5870  -10.7169    6.4790 O.2       1 <0>        -0.9387
     26 C18        -0.4767  -12.3467    4.6629 C.3       1 <0>        -0.6514
     27 H1          0.7025    2.0103   -0.2277 H         1 <0>         0.0847
     28 H2         -0.8306    1.8528   -1.1183 H         1 <0>         0.0907
     29 H3         -0.8426    1.9966    0.6558 H         1 <0>         0.1023
     30 H4         -0.2638   -2.9092   -1.1870 H         1 <0>         0.1812
     31 H5         -0.4967   -0.4961    3.1028 H         1 <0>         0.1018
     32 H6          2.3079    0.1722    2.1040 H         1 <0>         0.0682
     33 H7          1.7910    0.2623    3.8049 H         1 <0>         0.0841
     34 H8          1.8115   -1.3058    2.9627 H         1 <0>         0.0738
     35 H9         -1.1588    1.6442    2.0944 H         1 <0>         0.0773
     36 H10         0.0910    1.9265    3.3300 H         1 <0>         0.0837
     37 H11         0.5230    1.9586    1.6036 H         1 <0>         0.0871
     38 H12         0.1744   -1.8473    3.4620 H         1 <0>         0.1560
     39 H13         0.5001   -3.8019    4.9534 H         1 <0>         0.1754
     40 H14         0.6132   -6.7400    0.5669 H         1 <0>         0.4284
     41 H15        -0.6750   -6.8392    3.8411 H         1 <0>         0.1418
     42 H16        -0.5528   -8.7720    5.3597 H         1 <0>         0.1445
     43 H17         2.1074  -10.7343    2.6639 H         1 <0>         0.1463
     44 H18         1.9839   -8.8112    1.1333 H         1 <0>         0.1364
     45 H19        -0.3183  -12.6410    3.6254 H         1 <0>         0.1311
     46 H20        -0.4922  -13.2350    5.2943 H         1 <0>         0.1322
     47 H21        -1.4281  -11.8220    4.7505 H         1 <0>         0.1310
@<TRIPOS>BOND
     1    1    2 1
     2    1   27 1
     3    1   28 1
     4    1   29 1
     5    2    6 1
     6    2    3 2
     7    3    4 1
     8    4    5 2
     9    4   30 1
    10    5    6 1
    11    5   10 1
    12    6    7 1
    13    7    8 1
    14    7    9 1
    15    7   31 1
    16    8   32 1
    17    8   33 1
    18    8   34 1
    19    9   35 1
    20    9   36 1
    21    9   37 1
    22   10   15 ar
    23   10   11 ar
    24   11   12 ar
    25   11   38 1
    26   12   13 ar
    27   12   39 1
    28   13   14 ar
    29   14   15 ar
    30   14   16 1
    31   16   17 1
    32   16   40 1
    33   17   22 ar
    34   17   18 ar
    35   18   19 ar
    36   18   41 1
    37   19   20 ar
    38   19   42 1
    39   20   21 ar
    40   20   23 1
    41   21   22 ar
    42   21   43 1
    43   22   44 1
    44   23   24 2
    45   23   25 2
    46   23   26 1
    47   26   45 1
    48   26   46 1
    49   26   47 1
