@<TRIPOS>MOLECULE
ZINC02561569
   48    51     0     0     0
SMALL
USER_CHARGES
N-(1-naphthyl)-4-(4-tert-butylphenyl)-thiazol-2-amine
@<TRIPOS>ATOM
      1 C1         -0.6860   -4.8422   -0.8888 C.3       1 <0>        -0.1394
      2 C2          0.0341   -4.2816    0.3392 C.3       1 <0>        -0.0317
      3 C3          1.4819   -4.7763    0.3514 C.3       1 <0>        -0.1455
      4 C4         -0.6774   -4.7554    1.6081 C.3       1 <0>        -0.1394
      5 C5          0.0182   -2.7756    0.2869 C.ar      1 <0>        -0.0615
      6 C6         -1.1885   -2.0995    0.2676 C.ar      1 <0>        -0.1194
      7 C7         -1.2091   -0.7205    0.2197 C.ar      1 <0>        -0.0815
      8 C8         -0.0109   -0.0088    0.1908 C.ar      1 <0>        -0.0330
      9 C9          1.2020   -0.6956    0.2052 C.ar      1 <0>        -0.0991
     10 C10         1.2104   -2.0746    0.2580 C.ar      1 <0>        -0.1226
     11 C11        -0.0265    1.4733    0.1389 C.2       1 <0>         0.1352
     12 C12         1.1460    2.1746    0.1105 C.2       1 <0>        -0.2405
     13 S1          0.5282    3.8516    0.0537 S.3       1 <0>         0.0325
     14 C13        -1.2132    3.4490    0.0735 C.2       1 <0>         0.3560
     15 N1         -1.1777    2.1295    0.1140 N.2       1 <0>        -0.5492
     16 N2         -2.3097    4.2966    0.0467 N.pl3     1 <0>        -0.6026
     17 C14        -2.1286    5.6742    0.1573 C.ar      1 <0>         0.1779
     18 C15        -0.9915    6.1812    0.7503 C.ar      1 <0>        -0.1712
     19 C16        -0.7995    7.5547    0.8620 C.ar      1 <0>        -0.0757
     20 C17        -1.7298    8.4348    0.3988 C.ar      1 <0>        -0.1276
     21 C18        -2.9048    7.9594   -0.2077 C.ar      1 <0>        -0.0227
     22 C19        -3.1101    6.5631   -0.3314 C.ar      1 <0>        -0.0679
     23 C20        -4.2847    6.0899   -0.9365 C.ar      1 <0>        -0.1075
     24 C21        -5.2104    6.9764   -1.3962 C.ar      1 <0>        -0.1123
     25 C22        -5.0096    8.3500   -1.2753 C.ar      1 <0>        -0.1074
     26 C23        -3.8826    8.8446   -0.6941 C.ar      1 <0>        -0.1061
     27 H1         -0.1791   -4.5047   -1.7928 H         1 <0>         0.0567
     28 H2         -0.6746   -5.9315   -0.8510 H         1 <0>         0.0594
     29 H3         -1.7175   -4.4898   -0.8975 H         1 <0>         0.0571
     30 H4          1.9949   -4.3769    1.2263 H         1 <0>         0.0593
     31 H5          1.4934   -5.8656    0.3892 H         1 <0>         0.0591
     32 H6          1.9888   -4.4388   -0.5526 H         1 <0>         0.0592
     33 H7         -1.7089   -4.4030    1.5994 H         1 <0>         0.0572
     34 H8         -0.6660   -5.8447    1.6459 H         1 <0>         0.0594
     35 H9         -0.1644   -4.3561    2.4830 H         1 <0>         0.0567
     36 H10        -2.1162   -2.6520    0.2903 H         1 <0>         0.1226
     37 H11        -2.1518   -0.1937    0.2043 H         1 <0>         0.1301
     38 H12         2.1333   -0.1494    0.1789 H         1 <0>         0.1243
     39 H13         2.1496   -2.6077    0.2729 H         1 <0>         0.1301
     40 H14         2.1644    1.8152    0.1194 H         1 <0>         0.1976
     41 H15        -3.2030    3.9310   -0.0491 H         1 <0>         0.4262
     42 H16        -0.2399    5.5044    1.1292 H         1 <0>         0.1337
     43 H17         0.1007    7.9290    1.3268 H         1 <0>         0.1320
     44 H18        -1.5644    9.4975    0.4973 H         1 <0>         0.1326
     45 H19        -4.4534    5.0280   -1.0372 H         1 <0>         0.1222
     46 H20        -6.1136    6.6096   -1.8611 H         1 <0>         0.1267
     47 H21        -5.7594    9.0321   -1.6478 H         1 <0>         0.1271
     48 H22        -3.7401    9.9116   -0.6074 H         1 <0>         0.1327
@<TRIPOS>BOND
     1    1    2 1
     2    1   27 1
     3    1   28 1
     4    1   29 1
     5    2    3 1
     6    2    4 1
     7    2    5 1
     8    3   30 1
     9    3   31 1
    10    3   32 1
    11    4   33 1
    12    4   34 1
    13    4   35 1
    14    5   10 ar
    15    5    6 ar
    16    6    7 ar
    17    6   36 1
    18    7    8 ar
    19    7   37 1
    20    8    9 ar
    21    8   11 1
    22    9   10 ar
    23    9   38 1
    24   10   39 1
    25   11   15 1
    26   11   12 2
    27   12   13 1
    28   12   40 1
    29   13   14 1
    30   14   15 2
    31   14   16 1
    32   16   17 1
    33   16   41 1
    34   17   22 ar
    35   17   18 ar
    36   18   19 ar
    37   18   42 1
    38   19   20 ar
    39   19   43 1
    40   20   21 ar
    41   20   44 1
    42   21   26 ar
    43   21   22 ar
    44   22   23 ar
    45   23   24 ar
    46   23   45 1
    47   24   25 ar
    48   24   46 1
    49   25   26 ar
    50   25   47 1
    51   26   48 1
@<TRIPOS>MOLECULE
ZINC02161671
   32    33     0     0     0
SMALL
USER_CHARGES
N-phenyl-4-tert-butyl-thiazol-2-amine
@<TRIPOS>ATOM
      1 C1          4.5423    9.0701    0.9163 C.3       1 <0>        -0.1368
      2 C2          4.3132    8.3607   -0.4198 C.3       1 <0>         0.0006
      3 C3          5.5702    7.5775   -0.8035 C.3       1 <0>        -0.1264
      4 C4          4.0084    9.3981   -1.5024 C.3       1 <0>        -0.1393
      5 C5          3.1496    7.4117   -0.2917 C.2       1 <0>         0.1120
      6 C6          1.8773    7.8759   -0.2590 C.2       1 <0>        -0.2566
      7 S1          0.9684    6.3447   -0.1107 S.3       1 <0>         0.0516
      8 C7          2.3336    5.2716   -0.0971 C.2       1 <0>         0.3311
      9 N1          3.3466    6.1097   -0.2091 N.2       1 <0>        -0.5593
     10 N2          2.3537    3.8883    0.0005 N.pl3     1 <0>        -0.6159
     11 C8          1.1690    3.1875    0.2416 C.ar      1 <0>         0.1597
     12 C9          0.9820    1.9259   -0.3091 C.ar      1 <0>        -0.1449
     13 C10        -0.1898    1.2359   -0.0684 C.ar      1 <0>        -0.0870
     14 C11        -1.1787    1.8017    0.7156 C.ar      1 <0>        -0.1374
     15 C12        -0.9936    3.0552    1.2697 C.ar      1 <0>        -0.0826
     16 C13         0.1758    3.7507    1.0330 C.ar      1 <0>        -0.1589
     17 H1          4.7595    8.3311    1.6875 H         1 <0>         0.0560
     18 H2          5.3840    9.7565    0.8236 H         1 <0>         0.0632
     19 H3          3.6468    9.6281    1.1896 H         1 <0>         0.0573
     20 H4          5.4070    7.0721   -1.7554 H         1 <0>         0.0534
     21 H5          6.4119    8.2639   -0.8963 H         1 <0>         0.0524
     22 H6          5.7874    6.8384   -0.0323 H         1 <0>         0.0620
     23 H7          3.1129    9.9561   -1.2290 H         1 <0>         0.0585
     24 H8          4.8500   10.0845   -1.5951 H         1 <0>         0.0637
     25 H9          3.8452    8.8927   -2.4542 H         1 <0>         0.0567
     26 H10         1.5127    8.8911   -0.3121 H         1 <0>         0.1929
     27 H11         3.1902    3.4072   -0.0987 H         1 <0>         0.4247
     28 H12         1.7520    1.4853   -0.9251 H         1 <0>         0.1296
     29 H13        -0.3360    0.2553   -0.4965 H         1 <0>         0.1309
     30 H14        -2.0960    1.2619    0.8986 H         1 <0>         0.1279
     31 H15        -1.7661    3.4925    1.8848 H         1 <0>         0.1305
     32 H16         0.3178    4.7314    1.4624 H         1 <0>         0.1306
@<TRIPOS>BOND
     1    1    2 1
     2    1   17 1
     3    1   18 1
     4    1   19 1
     5    2    3 1
     6    2    4 1
     7    2    5 1
     8    3   20 1
     9    3   21 1
    10    3   22 1
    11    4   23 1
    12    4   24 1
    13    4   25 1
    14    5    9 1
    15    5    6 2
    16    6    7 1
    17    6   26 1
    18    7    8 1
    19    8    9 2
    20    8   10 1
    21   10   11 1
    22   10   27 1
    23   11   16 ar
    24   11   12 ar
    25   12   13 ar
    26   12   28 1
    27   13   14 ar
    28   13   29 1
    29   14   15 ar
    30   14   30 1
    31   15   16 ar
    32   15   31 1
    33   16   32 1
@<TRIPOS>MOLECULE
ZINC36159681
   38    40     0     0     0
SMALL
USER_CHARGES

@<TRIPOS>ATOM
      1 C1         -0.6845    0.9084    0.3204 C.3       1 <0>        -0.1899
      2 C2         -0.3602   -0.5831    0.2150 C.3       1 <0>        -0.0095
      3 N1          0.3559   -0.8410   -1.0415 N.4       1 <0>        -0.5084
      4 C3          0.6673   -2.2730   -1.1427 C.3       1 <0>         0.0825
      5 C4          1.4019   -2.5375   -2.4316 C.2       1 <0>         0.0314
      6 C5          2.7554   -2.5843   -2.4778 C.2       1 <0>        -0.2474
      7 S1          3.0184   -2.9196   -4.2116 S.3       1 <0>         0.1880
      8 C6          1.4048   -2.9643   -4.6876 C.2       1 <0>         0.3138
      9 N2          0.7550   -2.7394   -3.5653 N.2       1 <0>        -0.5851
     10 N3          0.8857   -3.1891   -5.9538 N.pl3     1 <0>        -0.6031
     11 C7          1.7328   -3.5498   -7.0003 C.ar      1 <0>         0.1468
     12 C8          2.8126   -4.3756   -6.7684 C.ar      1 <0>        -0.1456
     13 C9          3.6640   -4.7415   -7.8062 C.ar      1 <0>        -0.0918
     14 C10         3.4561   -4.2966   -9.0764 C.ar      1 <0>        -0.1020
     15 C11         2.3669   -3.4537   -9.3553 C.ar      1 <0>        -0.0309
     16 C12         1.4898   -3.0779   -8.3082 C.ar      1 <0>        -0.0571
     17 C13         0.3999   -2.2396   -8.5893 C.ar      1 <0>        -0.1163
     18 C14         0.1962   -1.8029   -9.8629 C.ar      1 <0>        -0.1016
     19 C15         1.0550   -2.1765  -10.8947 C.ar      1 <0>        -0.1070
     20 C16         2.1280   -2.9794  -10.6569 C.ar      1 <0>        -0.0996
     21 H1          0.2414    1.4834    0.3053 H         1 <0>         0.0806
     22 H2         -1.3099    1.2046   -0.5217 H         1 <0>         0.0800
     23 H3         -1.2159    1.0997    1.2526 H         1 <0>         0.1078
     24 H4          0.2653   -0.8794    1.0571 H         1 <0>         0.1328
     25 H5         -1.2861   -1.1582    0.2301 H         1 <0>         0.1319
     26 H6         -0.2231   -0.5667   -1.8210 H         1 <0>         0.4305
     27 H7          1.2927   -2.5693   -0.3006 H         1 <0>         0.1469
     28 H8         -0.2586   -2.8481   -1.1276 H         1 <0>         0.1434
     29 H9          3.4765   -2.4543   -1.6843 H         1 <0>         0.2049
     30 H10        -0.0668   -3.0955   -6.1111 H         1 <0>         0.4271
     31 H11         2.9997   -4.7422   -5.7699 H         1 <0>         0.1280
     32 H12         4.5039   -5.3887   -7.6009 H         1 <0>         0.1364
     33 H13         4.1281   -4.5912   -9.8688 H         1 <0>         0.1379
     34 H14        -0.2742   -1.9427   -7.7995 H         1 <0>         0.1211
     35 H15        -0.6433   -1.1580  -10.0765 H         1 <0>         0.1290
     36 H16         0.8711   -1.8171  -11.8964 H         1 <0>         0.1313
     37 H17         2.7857   -3.2603  -11.4662 H         1 <0>         0.1368
     38 H18         1.2130   -0.3086   -1.0554 H         1 <0>         0.4266
@<TRIPOS>BOND
     1    1    2 1
     2    1   21 1
     3    1   22 1
     4    1   23 1
     5    2    3 1
     6    2   24 1
     7    2   25 1
     8    3    4 1
     9    3   26 1
    10    3   38 1
    11    4    5 1
    12    4   27 1
    13    4   28 1
    14    5    9 1
    15    5    6 2
    16    6    7 1
    17    6   29 1
    18    7    8 1
    19    8    9 2
    20    8   10 1
    21   10   11 1
    22   10   30 1
    23   11   16 ar
    24   11   12 ar
    25   12   13 ar
    26   12   31 1
    27   13   14 ar
    28   13   32 1
    29   14   15 ar
    30   14   33 1
    31   15   20 ar
    32   15   16 ar
    33   16   17 ar
    34   17   18 ar
    35   17   34 1
    36   18   19 ar
    37   18   35 1
    38   19   20 ar
    39   19   36 1
    40   20   37 1
@<TRIPOS>MOLECULE
ZINC00188419
   36    39     0     0     0
SMALL
USER_CHARGES
N-(1-naphthyl)-4-phenyl-thiazol-2-amine
@<TRIPOS>ATOM
      1 C1          5.0427    0.5697   -0.2428 C.ar      1 <0>        -0.1132
      2 C2          4.7864    1.9289   -0.2200 C.ar      1 <0>        -0.1240
      3 C3          3.4861    2.3877   -0.1643 C.ar      1 <0>        -0.0857
      4 C4          2.4299    1.4786   -0.1310 C.ar      1 <0>        -0.0281
      5 C5          2.6944    0.1102   -0.1488 C.ar      1 <0>        -0.1029
      6 C6          3.9986   -0.3371   -0.2104 C.ar      1 <0>        -0.1211
      7 C7          1.0303    1.9655   -0.0706 C.2       1 <0>         0.1332
      8 C8         -0.0078    1.0775   -0.0378 C.2       1 <0>        -0.2390
      9 S1         -1.4006    2.1973    0.0212 S.3       1 <0>         0.0337
     10 C9         -0.4640    3.7196    0.0067 C.2       1 <0>         0.3568
     11 N1          0.7750    3.2658   -0.0474 N.2       1 <0>        -0.5497
     12 N2         -0.9180    5.0290    0.0372 N.pl3     1 <0>        -0.6027
     13 C10        -2.2831    5.2957   -0.0534 C.ar      1 <0>         0.1769
     14 C11        -3.1315    4.3870   -0.6503 C.ar      1 <0>        -0.1698
     15 C12        -4.4963    4.6416   -0.7413 C.ar      1 <0>        -0.0763
     16 C13        -5.0304    5.7958   -0.2542 C.ar      1 <0>        -0.1268
     17 C14        -4.1997    6.7504    0.3567 C.ar      1 <0>        -0.0231
     18 C15        -2.8090    6.5008    0.4599 C.ar      1 <0>        -0.0674
     19 C16        -1.9805    7.4557    1.0694 C.ar      1 <0>        -0.1076
     20 C17        -2.5222    8.6076    1.5532 C.ar      1 <0>        -0.1121
     21 C18        -3.8898    8.8543    1.4520 C.ar      1 <0>        -0.1074
     22 C19        -4.7232    7.9512    0.8668 C.ar      1 <0>        -0.1060
     23 H1          6.0619    0.2152   -0.2864 H         1 <0>         0.1235
     24 H2          5.6055    2.6324   -0.2455 H         1 <0>         0.1245
     25 H3          3.2871    3.4491   -0.1469 H         1 <0>         0.1309
     26 H4          1.8802   -0.5987   -0.1191 H         1 <0>         0.1251
     27 H5          4.2045   -1.3971   -0.2288 H         1 <0>         0.1263
     28 H6          0.0083   -0.0023   -0.0491 H         1 <0>         0.1981
     29 H7         -0.2856    5.7597    0.1217 H         1 <0>         0.4263
     30 H8         -2.7325    3.4657   -1.0483 H         1 <0>         0.1335
     31 H9         -5.1422    3.9137   -1.2097 H         1 <0>         0.1321
     32 H10        -6.0918    5.9771   -0.3371 H         1 <0>         0.1328
     33 H11        -0.9187    7.2777    1.1547 H         1 <0>         0.1224
     34 H12        -1.8824    9.3407    2.0217 H         1 <0>         0.1268
     35 H13        -4.2946    9.7760    1.8434 H         1 <0>         0.1271
     36 H14        -5.7812    8.1558    0.7953 H         1 <0>         0.1327
@<TRIPOS>BOND
     1    1    6 ar
     2    1    2 ar
     3    1   23 1
     4    2    3 ar
     5    2   24 1
     6    3    4 ar
     7    3   25 1
     8    4    5 ar
     9    4    7 1
    10    5    6 ar
    11    5   26 1
    12    6   27 1
    13    7   11 1
    14    7    8 2
    15    8    9 1
    16    8   28 1
    17    9   10 1
    18   10   11 2
    19   10   12 1
    20   12   13 1
    21   12   29 1
    22   13   18 ar
    23   13   14 ar
    24   14   15 ar
    25   14   30 1
    26   15   16 ar
    27   15   31 1
    28   16   17 ar
    29   16   32 1
    30   17   22 ar
    31   17   18 ar
    32   18   19 ar
    33   19   20 ar
    34   19   33 1
    35   20   21 ar
    36   20   34 1
    37   21   22 ar
    38   21   35 1
    39   22   36 1
@<TRIPOS>MOLECULE
ZINC05730833
   29    31     0     0     0
SMALL
USER_CHARGES

@<TRIPOS>ATOM
      1 C1         -1.1469    1.4283    0.1987 C.3       1 <0>        -0.0811
      2 C2         -1.2024   -0.0750    0.2881 C.2       1 <0>         0.1003
      3 C3         -1.9439   -0.8084   -0.5771 C.2       1 <0>        -0.2742
      4 S1         -1.6145   -2.4592    0.0177 S.3       1 <0>         0.1124
      5 C4         -0.5847   -2.0494    1.2842 C.2       1 <0>         0.2989
      6 N1          0.0520   -2.8909    2.1839 N.pl3     1 <0>        -0.6150
      7 C5         -0.0208   -4.2728    2.0171 C.ar      1 <0>         0.1698
      8 C6         -0.0092   -4.8227    0.7525 C.ar      1 <0>        -0.1560
      9 C7         -0.0814   -6.2008    0.5754 C.ar      1 <0>        -0.0830
     10 C8         -0.1654   -7.0434    1.6420 C.ar      1 <0>        -0.1207
     11 C9         -0.1797   -6.5238    2.9474 C.ar      1 <0>        -0.0279
     12 C10        -0.1013   -5.1226    3.1413 C.ar      1 <0>        -0.0639
     13 C11        -0.1112   -4.6055    4.4460 C.ar      1 <0>        -0.1066
     14 C12        -0.1902   -5.4551    5.5072 C.ar      1 <0>        -0.1125
     15 C13        -0.2617   -6.8337    5.3180 C.ar      1 <0>        -0.1087
     16 C14        -0.2657   -7.3697    4.0669 C.ar      1 <0>        -0.1059
     17 N2         -0.5261   -0.7366    1.2098 N.2       1 <0>        -0.5743
     18 H1         -0.3302    1.7232   -0.4602 H         1 <0>         0.0759
     19 H2         -2.0892    1.8036   -0.2004 H         1 <0>         0.0765
     20 H3         -0.9811    1.8454    1.1919 H         1 <0>         0.0739
     21 H4         -2.5639   -0.4836   -1.3997 H         1 <0>         0.1948
     22 H5          0.0564   -4.1762   -0.1102 H         1 <0>         0.1311
     23 H6         -0.0711   -6.6090   -0.4244 H         1 <0>         0.1321
     24 H7         -0.2214   -8.1104    1.4845 H         1 <0>         0.1326
     25 H8         -0.0559   -3.5391    4.6076 H         1 <0>         0.1231
     26 H9         -0.1973   -5.0545    6.5102 H         1 <0>         0.1262
     27 H10        -0.3237   -7.4861    6.1765 H         1 <0>         0.1268
     28 H11        -0.3227   -8.4402    3.9352 H         1 <0>         0.1323
     29 H12         0.5482   -2.5178    2.9292 H         1 <0>         0.4230
@<TRIPOS>BOND
     1    1    2 1
     2    1   18 1
     3    1   19 1
     4    1   20 1
     5    2   17 1
     6    2    3 2
     7    3    4 1
     8    3   21 1
     9    4    5 1
    10    5    6 1
    11    5   17 2
    12    6    7 1
    13    6   29 1
    14    7   12 ar
    15    7    8 ar
    16    8    9 ar
    17    8   22 1
    18    9   10 ar
    19    9   23 1
    20   10   11 ar
    21   10   24 1
    22   11   16 ar
    23   11   12 ar
    24   12   13 ar
    25   13   14 ar
    26   13   25 1
    27   14   15 ar
    28   14   26 1
    29   15   16 ar
    30   15   27 1
    31   16   28 1
@<TRIPOS>MOLECULE
ZINC40379917
   77    81     0     0     0
SMALL
USER_CHARGES

@<TRIPOS>ATOM
      1 C1         -0.0180    1.4248    0.0103 C.3       1 <0>         0.0149
      2 O1          0.0154   -0.0037   -0.0058 O.3       1 <0>        -0.2866
      3 C2          0.6396   -0.6186    1.0347 C.ar      1 <0>         0.1220
      4 C3          1.1910    0.1346    2.0320 C.ar      1 <0>        -0.1208
      5 C4          1.8334   -0.4967    3.1039 C.ar      1 <0>        -0.1828
      6 C5          1.9079   -1.9106    3.1484 C.ar      1 <0>         0.2117
      7 C6          1.3359   -2.6630    2.1156 C.ar      1 <0>        -0.2292
      8 C7          0.7047   -2.0177    1.0746 C.ar      1 <0>         0.2191
      9 O2          0.1440   -2.7455    0.0739 O.3       1 <0>        -0.2749
     10 C8          0.2435   -4.1677    0.1717 C.3       1 <0>         0.0124
     11 N1          2.5287   -2.4929    4.1869 N.ar      1 <0>        -0.5817
     12 C9          3.0579   -1.7579    5.1457 C.ar      1 <0>         0.6814
     13 N2          3.0098   -0.4286    5.1425 N.ar      1 <0>        -0.5896
     14 C10         2.4200    0.2395    4.1619 C.ar      1 <0>         0.5533
     15 N3          2.3784    1.6183    4.1714 N.pl3     1 <0>        -0.6433
     16 C11         2.9911    2.3620    5.2749 C.3       1 <0>         0.1440
     17 C12         2.0045    2.4004    6.4598 C.3       1 <0>        -0.1241
     18 C13         2.7792    2.6875    7.7175 C.3       1 <0>        -0.1111
     19 C14         2.8068    4.1887    8.0630 C.3       1 <0>        -0.1234
     20 C15         3.0239    5.0823    6.8268 C.3       1 <0>        -0.1274
     21 C16         4.0615    4.5264    5.8894 C.3       1 <0>        -0.1062
     22 C17         3.3470    3.6930    4.8059 C.3       1 <0>        -0.1455
     23 N4          3.6892   -2.3962    6.1989 N.pl3     1 <0>        -0.5844
     24 C18         3.6646   -3.8611    6.3094 C.3       1 <0>         0.1098
     25 C19         3.1391   -4.2422    7.6969 C.3       1 <0>        -0.1608
     26 C20         3.9828   -3.5452    8.7667 C.3       1 <0>         0.0228
     27 C21         3.8633   -2.0281    8.6048 C.3       1 <0>        -0.1618
     28 C22         4.4018   -1.6222    7.2245 C.3       1 <0>         0.1259
     29 N5          3.5026   -3.9345   10.0993 N.4       1 <0>        -0.3807
     30 C23         4.3068   -3.2585   11.1244 C.3       1 <0>        -0.0121
     31 C24         3.7594   -3.5969   12.5127 C.3       1 <0>        -0.1460
     32 C25         3.8260   -5.1119   12.7263 C.3       1 <0>        -0.1411
     33 C26         3.0455   -5.8098   11.6088 C.3       1 <0>        -0.1461
     34 C27         3.6193   -5.3895   10.2540 C.3       1 <0>        -0.0122
     35 H1          1.0009    1.8121    0.0109 H         1 <0>         0.0647
     36 H2         -0.5435    1.7859   -0.8738 H         1 <0>         0.1207
     37 H3         -0.5369    1.7660    0.9061 H         1 <0>         0.0641
     38 H4          1.1320    1.2123    1.9936 H         1 <0>         0.1583
     39 H5          1.3854   -3.7417    2.1368 H         1 <0>         0.1673
     40 H6         -0.2438   -4.5039    1.0869 H         1 <0>         0.0680
     41 H7         -0.2437   -4.6260   -0.6889 H         1 <0>         0.1230
     42 H8          1.2940   -4.4578    0.1917 H         1 <0>         0.0689
     43 H9          1.9436    2.0954    3.4474 H         1 <0>         0.4250
     44 H10         3.8975    1.8442    5.5887 H         1 <0>         0.1024
     45 H11         1.2668    3.1861    6.2967 H         1 <0>         0.0782
     46 H12         1.5033    1.4367    6.5504 H         1 <0>         0.0658
     47 H13         2.3229    2.1436    8.5446 H         1 <0>         0.0624
     48 H14         3.8030    2.3362    7.5890 H         1 <0>         0.0625
     49 H15         1.8601    4.4593    8.5305 H         1 <0>         0.0641
     50 H16         3.6124    4.3709    8.7743 H         1 <0>         0.0654
     51 H17         2.0797    5.1782    6.2908 H         1 <0>         0.0630
     52 H18         3.3414    6.0711    7.1579 H         1 <0>         0.0696
     53 H19         4.6077    5.3450    5.4208 H         1 <0>         0.0784
     54 H20         4.7527    3.8912    6.4434 H         1 <0>         0.0706
     55 H21         4.0051    3.5986    3.9420 H         1 <0>         0.0751
     56 H22         2.4396    4.2142    4.5009 H         1 <0>         0.0764
     57 H23         3.0080   -4.2743    5.5438 H         1 <0>         0.0976
     58 H24         4.6730   -4.2542    6.1799 H         1 <0>         0.1122
     59 H25         2.0997   -3.9276    7.7913 H         1 <0>         0.0989
     60 H26         3.2061   -5.3223    7.8273 H         1 <0>         0.1171
     61 H27         5.0261   -3.8411    8.6562 H         1 <0>         0.1453
     62 H28         2.8171   -1.7344    8.6906 H         1 <0>         0.0980
     63 H29         4.4457   -1.5323    9.3814 H         1 <0>         0.1149
     64 H30         5.4690   -1.8365    7.1681 H         1 <0>         0.0996
     65 H31         4.2317   -0.5578    7.0629 H         1 <0>         0.1310
     66 H32         5.3421   -3.5916   11.0514 H         1 <0>         0.1316
     67 H33         4.2611   -2.1806   10.9691 H         1 <0>         0.1318
     68 H34         4.3590   -3.0955   13.2724 H         1 <0>         0.1157
     69 H35         2.7242   -3.2640   12.5868 H         1 <0>         0.0880
     70 H36         4.8658   -5.4379   12.7032 H         1 <0>         0.0837
     71 H37         3.3852   -5.3636   13.6909 H         1 <0>         0.0976
     72 H38         3.1347   -6.8902   11.7225 H         1 <0>         0.1153
     73 H39         1.9954   -5.5228   11.6642 H         1 <0>         0.0879
     74 H40         3.0660   -5.8848    9.4561 H         1 <0>         0.1299
     75 H41         4.6692   -5.6772   10.1996 H         1 <0>         0.1316
     76 H42         2.5360   -3.6631   10.1999 H         1 <0>         0.4212
     77 H43         2.5880   -3.4600    4.2324 H         1 <0>         0.4318
@<TRIPOS>BOND
     1    1    2 1
     2    1   35 1
     3    1   36 1
     4    1   37 1
     5    2    3 1
     6    3    8 ar
     7    3    4 ar
     8    4    5 ar
     9    4   38 1
    10    5   14 ar
    11    5    6 ar
    12    6    7 ar
    13    6   11 ar
    14    7    8 ar
    15    7   39 1
    16    8    9 1
    17    9   10 1
    18   10   40 1
    19   10   41 1
    20   10   42 1
    21   11   12 ar
    22   11   77 1
    23   12   13 ar
    24   12   23 1
    25   13   14 ar
    26   14   15 1
    27   15   16 1
    28   15   43 1
    29   16   22 1
    30   16   17 1
    31   16   44 1
    32   17   18 1
    33   17   45 1
    34   17   46 1
    35   18   19 1
    36   18   47 1
    37   18   48 1
    38   19   20 1
    39   19   49 1
    40   19   50 1
    41   20   21 1
    42   20   51 1
    43   20   52 1
    44   21   22 1
    45   21   53 1
    46   21   54 1
    47   22   55 1
    48   22   56 1
    49   23   28 1
    50   23   24 1
    51   24   25 1
    52   24   57 1
    53   24   58 1
    54   25   26 1
    55   25   59 1
    56   25   60 1
    57   26   27 1
    58   26   29 1
    59   26   61 1
    60   27   28 1
    61   27   62 1
    62   27   63 1
    63   28   64 1
    64   28   65 1
    65   29   34 1
    66   29   30 1
    67   29   76 1
    68   30   31 1
    69   30   66 1
    70   30   67 1
    71   31   32 1
    72   31   68 1
    73   31   69 1
    74   32   33 1
    75   32   70 1
    76   32   71 1
    77   33   34 1
    78   33   72 1
    79   33   73 1
    80   34   74 1
    81   34   75 1
