@<TRIPOS>MOLECULE
ZINC05932684
   50    53     0     0     0
SMALL
USER_CHARGES
3-[3-[[(2S)-2,3-dihydroxypropyl]amino]phenyl]-4-(5-fluoro-1-methyl-indol-3-yl)pyrrole-2,5-dione
@<TRIPOS>ATOM
      1 C1          1.8520    4.5431    0.0093 C.3       1 <0>         0.0726
      2 N1          0.8716    3.4545    0.0123 N.pl3     1 <0>        -0.4693
      3 C2         -0.4742    3.6256    0.0261 C.2       1 <0>         0.1108
      4 C3         -1.0941    2.3952    0.0195 C.2       1 <0>        -0.1478
      5 C4         -0.0168    1.3885    0.0097 C.ar      1 <0>        -0.0457
      6 C5          1.1878    2.1100    0.0020 C.ar      1 <0>         0.0816
      7 C6          2.3956    1.4207   -0.0137 C.ar      1 <0>        -0.0897
      8 C7          2.4023    0.0424   -0.0211 C.ar      1 <0>        -0.1331
      9 C8          1.2107   -0.6707   -0.0131 C.ar      1 <0>         0.0833
     10 C9          0.0021   -0.0041    0.0020 C.ar      1 <0>        -0.1096
     11 F1          1.2344   -2.0214   -0.0206 F         1 <0>        -0.1388
     12 C10        -2.5397    2.1376    0.0230 C.2       1 <0>        -0.0174
     13 C11        -3.4166    2.2800   -1.0445 C.2       1 <0>        -0.0749
     14 C12        -4.7473    1.9011   -0.5367 C.2       1 <0>         0.5603
     15 O1         -5.7765    1.8987   -1.1830 O.2       1 <0>        -0.4467
     16 N2         -4.6360    1.5589    0.7576 N.am      1 <0>        -0.6894
     17 C13        -3.3599    1.6660    1.1659 C.2       1 <0>         0.5550
     18 O2         -2.9485    1.4209    2.2815 O.2       1 <0>        -0.4424
     19 C14        -3.0827    2.7229   -2.4137 C.ar      1 <0>         0.0137
     20 C15        -2.6250    4.0243   -2.6378 C.ar      1 <0>        -0.1476
     21 C16        -2.3089    4.4333   -3.9167 C.ar      1 <0>        -0.0706
     22 C17        -2.4532    3.5632   -4.9818 C.ar      1 <0>        -0.1871
     23 C18        -2.9132    2.2681   -4.7706 C.ar      1 <0>         0.2196
     24 C19        -3.2287    1.8450   -3.4888 C.ar      1 <0>        -0.1595
     25 N3         -3.0580    1.3936   -5.8502 N.pl3     1 <0>        -0.7407
     26 C20        -2.7246    1.8408   -7.2049 C.3       1 <0>         0.0967
     27 C21        -2.9706    0.6995   -8.1937 C.3       1 <0>         0.0964
     28 H1         -4.0196    0.4058   -8.1559 H         1 <0>         0.1125
     29 C22        -2.6224    1.1665   -9.6085 C.3       1 <0>         0.0474
     30 O3         -2.9614    0.1420  -10.5452 O.3       1 <0>        -0.5627
     31 O4         -2.1503   -0.4176   -7.8455 O.3       1 <0>        -0.5474
     32 H2          2.0857    4.8187   -1.0191 H         1 <0>         0.0769
     33 H3          1.4386    5.4058    0.5316 H         1 <0>         0.0888
     34 H4          2.7611    4.2147    0.5130 H         1 <0>         0.0861
     35 H5         -0.9814    4.5791    0.0355 H         1 <0>         0.1794
     36 H6          3.3282    1.9653   -0.0204 H         1 <0>         0.1325
     37 H7          3.3430   -0.4880   -0.0330 H         1 <0>         0.1410
     38 H8         -0.9241   -0.5595    0.0075 H         1 <0>         0.1323
     39 H9         -5.3732    1.2709    1.3184 H         1 <0>         0.4305
     40 H10        -2.5152    4.7084   -1.8094 H         1 <0>         0.1196
     41 H11        -1.9514    5.4381   -4.0874 H         1 <0>         0.1254
     42 H12        -2.2080    3.8907   -5.9813 H         1 <0>         0.1211
     43 H13        -3.5865    0.8396   -3.3228 H         1 <0>         0.1231
     44 H14        -3.3792    0.4903   -5.7030 H         1 <0>         0.4066
     45 H15        -3.3503    2.6929   -7.4705 H         1 <0>         0.0722
     46 H16        -1.6756    2.1345   -7.2427 H         1 <0>         0.0652
     47 H17        -3.1838    2.0715   -9.8408 H         1 <0>         0.0584
     48 H18        -1.5544    1.3757   -9.6695 H         1 <0>         0.0524
     49 H19        -2.7674    0.3699  -11.4648 H         1 <0>         0.3833
     50 H20        -1.2021   -0.2285   -7.8583 H         1 <0>         0.3759
@<TRIPOS>BOND
     1    1    2 1
     2    1   32 1
     3    1   33 1
     4    1   34 1
     5    2    6 1
     6    2    3 1
     7    3    4 2
     8    3   35 1
     9    4    5 1
    10    4   12 1
    11    5   10 ar
    12    5    6 ar
    13    6    7 ar
    14    7    8 ar
    15    7   36 1
    16    8    9 ar
    17    8   37 1
    18    9   10 ar
    19    9   11 1
    20   10   38 1
    21   12   17 1
    22   12   13 2
    23   13   14 1
    24   13   19 1
    25   14   15 2
    26   14   16 am
    27   16   17 am
    28   16   39 1
    29   17   18 2
    30   19   24 ar
    31   19   20 ar
    32   20   21 ar
    33   20   40 1
    34   21   22 ar
    35   21   41 1
    36   22   23 ar
    37   22   42 1
    38   23   24 ar
    39   23   25 1
    40   24   43 1
    41   25   26 1
    42   25   44 1
    43   26   27 1
    44   26   45 1
    45   26   46 1
    46   27   28 1
    47   27   29 1
    48   27   31 1
    49   29   30 1
    50   29   47 1
    51   29   48 1
    52   30   49 1
    53   31   50 1
@<TRIPOS>MOLECULE
ZINC12501080
   50    53     0     0     0
SMALL
USER_CHARGES
3-[3-[[(2R)-2,3-dihydroxypropyl]amino]phenyl]-4-(5-fluoro-1-methyl-indol-3-yl)pyrrole-2,5-dione
@<TRIPOS>ATOM
      1 C1          7.9960    8.6641    5.2309 C.3       1 <0>         0.0725
      2 N1          6.7497    9.1520    4.6353 N.pl3     1 <0>        -0.4693
      3 C2          6.6022    9.5111    3.3353 C.2       1 <0>         0.1109
      4 C3          5.3062    9.9245    3.1168 C.2       1 <0>        -0.1479
      5 C4          4.6061    9.7932    4.4078 C.ar      1 <0>        -0.0456
      6 C5          5.5586    9.3064    5.3175 C.ar      1 <0>         0.0816
      7 C6          5.1867    9.0788    6.6381 C.ar      1 <0>        -0.0896
      8 C7          3.8932    9.3299    7.0426 C.ar      1 <0>        -0.1332
      9 C8          2.9516    9.8113    6.1425 C.ar      1 <0>         0.0831
     10 C9          3.3022   10.0438    4.8279 C.ar      1 <0>        -0.1098
     11 F1          1.6878   10.0524    6.5549 F         1 <0>        -0.1389
     12 C10         4.7345   10.3959    1.8492 C.2       1 <0>        -0.0174
     13 C11         4.3897    9.6221    0.7487 C.2       1 <0>        -0.0750
     14 C12         3.8564   10.5555   -0.2594 C.2       1 <0>         0.5602
     15 O1          3.4446   10.2476   -1.3606 O.2       1 <0>        -0.4463
     16 N2          3.8999   11.8025    0.2386 N.am      1 <0>        -0.6894
     17 C13         4.4103   11.7964    1.4819 C.2       1 <0>         0.5551
     18 O2          4.5743   12.7713    2.1867 O.2       1 <0>        -0.4425
     19 C14         4.5245    8.1568    0.6175 C.ar      1 <0>         0.0137
     20 C15         5.7914    7.5666    0.6147 C.ar      1 <0>        -0.1477
     21 C16         5.9142    6.1981    0.4924 C.ar      1 <0>        -0.0706
     22 C17         4.7870    5.4053    0.3777 C.ar      1 <0>        -0.1870
     23 C18         3.5222    5.9828    0.3740 C.ar      1 <0>         0.2196
     24 C19         3.3872    7.3570    0.4963 C.ar      1 <0>        -0.1595
     25 N3          2.3871    5.1776    0.2529 N.pl3     1 <0>        -0.7410
     26 C20         2.5297    3.7253    0.1236 C.3       1 <0>         0.0972
     27 C21         1.1449    3.0852    0.0077 C.3       1 <0>         0.0964
     28 H1          0.5324    3.3879    0.8570 H         1 <0>         0.1122
     29 C22         1.2864    1.5618   -0.0018 C.3       1 <0>         0.0474
     30 O3         -0.0110    0.9628    0.0073 O.3       1 <0>        -0.5628
     31 O4          0.5223    3.5133   -1.2052 O.3       1 <0>        -0.5475
     32 H2          8.0425    7.5790    5.1383 H         1 <0>         0.0768
     33 H3          8.8452    9.1096    4.7126 H         1 <0>         0.0889
     34 H4          8.0278    8.9405    6.2848 H         1 <0>         0.0863
     35 H5          7.3811    9.4801    2.5878 H         1 <0>         0.1794
     36 H6          5.9110    8.7045    7.3464 H         1 <0>         0.1325
     37 H7          3.6094    9.1511    8.0692 H         1 <0>         0.1410
     38 H8          2.5690   10.4178    4.1286 H         1 <0>         0.1323
     39 H9          3.6042   12.5966   -0.2335 H         1 <0>         0.4306
     40 H10         6.6741    8.1818    0.7086 H         1 <0>         0.1196
     41 H11         6.8941    5.7438    0.4905 H         1 <0>         0.1255
     42 H12         4.8896    4.3340    0.2864 H         1 <0>         0.1211
     43 H13         2.4055    7.8070    0.4981 H         1 <0>         0.1231
     44 H14         1.5046    5.5800    0.2544 H         1 <0>         0.4060
     45 H15         3.0400    3.3307    1.0023 H         1 <0>         0.0714
     46 H16         3.1121    3.4953   -0.7686 H         1 <0>         0.0663
     47 H17         1.8401    1.2428    0.8812 H         1 <0>         0.0582
     48 H18         1.8231    1.2523   -0.8987 H         1 <0>         0.0528
     49 H19         0.0021   -0.0041    0.0020 H         1 <0>         0.3833
     50 H20         1.0134    3.2774   -2.0040 H         1 <0>         0.3762
@<TRIPOS>BOND
     1    1    2 1
     2    1   32 1
     3    1   33 1
     4    1   34 1
     5    2    6 1
     6    2    3 1
     7    3    4 2
     8    3   35 1
     9    4    5 1
    10    4   12 1
    11    5   10 ar
    12    5    6 ar
    13    6    7 ar
    14    7    8 ar
    15    7   36 1
    16    8    9 ar
    17    8   37 1
    18    9   10 ar
    19    9   11 1
    20   10   38 1
    21   12   17 1
    22   12   13 2
    23   13   14 1
    24   13   19 1
    25   14   15 2
    26   14   16 am
    27   16   17 am
    28   16   39 1
    29   17   18 2
    30   19   24 ar
    31   19   20 ar
    32   20   21 ar
    33   20   40 1
    34   21   22 ar
    35   21   41 1
    36   22   23 ar
    37   22   42 1
    38   23   24 ar
    39   23   25 1
    40   24   43 1
    41   25   26 1
    42   25   44 1
    43   26   27 1
    44   26   45 1
    45   26   46 1
    46   27   28 1
    47   27   29 1
    48   27   31 1
    49   29   30 1
    50   29   47 1
    51   29   48 1
    52   30   49 1
    53   31   50 1
@<TRIPOS>MOLECULE
ZINC00364427
   33    34     0     0     0
SMALL
USER_CHARGES

@<TRIPOS>ATOM
      1 C1          3.4387    0.9521    2.3642 C.3       1 <0>        -0.1275
      2 C2          2.7081   -0.2779    1.8905 C.ar      1 <0>        -0.0225
      3 C3          2.1257   -0.2960    0.6370 C.ar      1 <0>        -0.1405
      4 C4          1.4556   -1.4243    0.2025 C.ar      1 <0>        -0.0120
      5 C5          1.3683   -2.5346    1.0213 C.ar      1 <0>        -0.6852
      6 C6          1.9514   -2.5168    2.2745 C.ar      1 <0>        -0.0140
      7 C7          2.6252   -1.3900    2.7073 C.ar      1 <0>        -0.1422
      8 S1          0.5131   -3.9723    0.4679 S.o2      1 <0>         2.6889
      9 O1         -0.0033   -4.6096    1.6283 O.2       1 <0>        -0.9481
     10 O2         -0.3179   -3.5612   -0.6090 O.2       1 <0>        -0.9459
     11 N1          1.6441   -4.9987   -0.1721 N.pl3     1 <0>        -1.0631
     12 C8          2.3845   -4.6117   -1.2914 C.ar      1 <0>         0.1231
     13 C9          1.7936   -4.6054   -2.5488 C.ar      1 <0>        -0.0722
     14 C10         2.5283   -4.2218   -3.6533 C.ar      1 <0>        -0.1087
     15 C11         3.8511   -3.8445   -3.5088 C.ar      1 <0>        -0.0624
     16 C12         4.4423   -3.8501   -2.2590 C.ar      1 <0>        -0.1770
     17 C13         3.7114   -4.2268   -1.1492 C.ar      1 <0>        -0.0629
     18 C14         5.8842   -3.4392   -2.1067 C.3       1 <0>         0.5092
     19 F1          6.4068   -3.0986   -3.3589 F         1 <0>        -0.1743
     20 F2          5.9666   -2.3355   -1.2510 F         1 <0>        -0.1748
     21 F3          6.6176   -4.5021   -1.5687 F         1 <0>        -0.1746
     22 H1          4.4872    0.8864    2.0737 H         1 <0>         0.0815
     23 H2          2.9912    1.8372    1.9121 H         1 <0>         0.0743
     24 H3          3.3661    1.0224    3.4496 H         1 <0>         0.0741
     25 H4          2.1940    0.5714   -0.0027 H         1 <0>         0.1341
     26 H5          1.0000   -1.4382   -0.7766 H         1 <0>         0.1409
     27 H6          1.8829   -3.3841    2.9144 H         1 <0>         0.1395
     28 H7          3.0840   -1.3774    3.6850 H         1 <0>         0.1343
     29 H8          1.7924   -5.8688    0.2304 H         1 <0>         0.4291
     30 H9          0.7609   -4.9005   -2.6624 H         1 <0>         0.1475
     31 H10         2.0696   -4.2166   -4.6310 H         1 <0>         0.1461
     32 H11         4.4235   -3.5453   -4.3744 H         1 <0>         0.1452
     33 H12         4.1724   -4.2264   -0.1725 H         1 <0>         0.1401
@<TRIPOS>BOND
     1    1    2 1
     2    1   22 1
     3    1   23 1
     4    1   24 1
     5    2    7 ar
     6    2    3 ar
     7    3    4 ar
     8    3   25 1
     9    4    5 ar
    10    4   26 1
    11    5    6 ar
    12    5    8 1
    13    6    7 ar
    14    6   27 1
    15    7   28 1
    16    8    9 2
    17    8   10 2
    18    8   11 1
    19   11   12 1
    20   11   29 1
    21   12   17 ar
    22   12   13 ar
    23   13   14 ar
    24   13   30 1
    25   14   15 ar
    26   14   31 1
    27   15   16 ar
    28   15   32 1
    29   16   17 ar
    30   16   18 1
    31   17   33 1
    32   18   19 1
    33   18   20 1
    34   18   21 1
@<TRIPOS>MOLECULE
ZINC00364427
   32    33     0     0     0
SMALL
USER_CHARGES

@<TRIPOS>ATOM
      1 C1         -0.0184    1.5028    0.0103 C.3       1 <0>        -0.1161
      2 C2          0.0021   -0.0041    0.0020 C.ar      1 <0>        -0.0528
      3 C3          0.0057   -0.6887   -1.1989 C.ar      1 <0>        -0.1478
      4 C4          0.0245   -2.0709   -1.2065 C.ar      1 <0>        -0.0202
      5 C5          0.0400   -2.7685   -0.0132 C.ar      1 <0>        -0.6201
      6 C6          0.0373   -2.0839    1.1877 C.ar      1 <0>        -0.0203
      7 C7          0.0229   -0.7016    1.1953 C.ar      1 <0>        -0.1477
      8 S1          0.0628   -4.5303   -0.0229 S.o2      1 <0>         2.6055
      9 O1         -0.4759   -4.9503    1.2232 O.2       1 <0>        -1.0287
     10 O2         -0.4897   -4.9367   -1.2674 O.2       1 <0>        -1.0288
     11 N1          1.6509   -4.9994   -0.0343 N.2       1 <0>        -1.0876
     12 C8          1.9779   -6.3573   -0.0434 C.ar      1 <0>         0.2788
     13 C9          0.9721   -7.3157   -0.0489 C.ar      1 <0>        -0.2384
     14 C10         1.2989   -8.6572   -0.0584 C.ar      1 <0>        -0.0652
     15 C11         2.6258   -9.0473   -0.0621 C.ar      1 <0>        -0.1850
     16 C12         3.6293   -8.0962   -0.0563 C.ar      1 <0>        -0.1421
     17 C13         3.3094   -6.7525   -0.0530 C.ar      1 <0>        -0.1331
     18 C14         5.0737   -8.5260   -0.0594 C.3       1 <0>         0.5089
     19 F1          5.1445   -9.9232   -0.0683 F         1 <0>        -0.1848
     20 F2          5.7085   -8.0196   -1.1986 F         1 <0>        -0.1827
     21 F3          5.7090   -8.0342    1.0859 F         1 <0>        -0.1826
     22 H1          1.0042    1.8801    0.0026 H         1 <0>         0.0730
     23 H2         -0.5455    1.8639   -0.8728 H         1 <0>         0.0670
     24 H3         -0.5286    1.8543    0.9071 H         1 <0>         0.0670
     25 H4         -0.0064   -0.1436   -2.1312 H         1 <0>         0.1255
     26 H5          0.0266   -2.6057   -2.1448 H         1 <0>         0.1363
     27 H6          0.0491   -2.6289    2.1200 H         1 <0>         0.1363
     28 H7          0.0245   -0.1667    2.1335 H         1 <0>         0.1255
     29 H8         -0.0643   -7.0117   -0.0453 H         1 <0>         0.1049
     30 H9          0.5175   -9.4027   -0.0627 H         1 <0>         0.1146
     31 H10         2.8786  -10.0973   -0.0693 H         1 <0>         0.1180
     32 H11         4.0937   -6.0100   -0.0532 H         1 <0>         0.1228
@<TRIPOS>BOND
     1    1    2 1
     2    1   22 1
     3    1   23 1
     4    1   24 1
     5    2    7 ar
     6    2    3 ar
     7    3    4 ar
     8    3   25 1
     9    4    5 ar
    10    4   26 1
    11    5    6 ar
    12    5    8 1
    13    6    7 ar
    14    6   27 1
    15    7   28 1
    16    8    9 2
    17    8   10 2
    18    8   11 1
    19   11   12 1
    20   12   17 ar
    21   12   13 ar
    22   13   14 ar
    23   13   29 1
    24   14   15 ar
    25   14   30 1
    26   15   16 ar
    27   15   31 1
    28   16   17 ar
    29   16   18 1
    30   17   32 1
    31   18   19 1
    32   18   20 1
    33   18   21 1
@<TRIPOS>MOLECULE
ZINC01738108
   29    30     0     0     0
SMALL
USER_CHARGES

@<TRIPOS>ATOM
      1 C1         -0.0166    1.3766    0.0096 C.ar      1 <0>        -0.0653
      2 C2          1.1707    2.0859    0.0021 C.ar      1 <0>        -0.1827
      3 C3          2.3799    1.4157   -0.0135 C.ar      1 <0>        -0.1422
      4 C4          2.4059    0.0347   -0.0211 C.ar      1 <0>        -0.1300
      5 C5          1.2154   -0.6807   -0.0131 C.ar      1 <0>         0.2807
      6 C6          0.0021   -0.0041    0.0020 C.ar      1 <0>        -0.2374
      7 N1          1.2380   -2.0772   -0.0208 N.2       1 <0>        -1.0747
      8 S1         -0.1825   -2.9284   -0.0112 S.o2      1 <0>         2.5992
      9 O1         -0.8016   -2.6713    1.2417 O.2       1 <0>        -1.0200
     10 O2         -0.8263   -2.6580   -1.2488 O.2       1 <0>        -1.0040
     11 C7          0.2357   -4.6400   -0.0245 C.ar      1 <0>        -0.6017
     12 C8         -0.0862   -5.4382    1.0572 C.ar      1 <0>         0.0026
     13 C9          0.2418   -6.7818    1.0473 C.ar      1 <0>        -0.0544
     14 C10         0.8924   -7.3275   -0.0467 C.ar      1 <0>         0.0164
     15 C11         1.2138   -6.5286   -1.1287 C.ar      1 <0>        -0.1184
     16 C12         0.8809   -5.1856   -1.1198 C.ar      1 <0>         0.0720
     17 Cl1         1.2783   -4.1839   -2.4808 Cl        1 <0>        -0.0065
     18 Cl2         1.3049   -9.0137   -0.0595 Cl        1 <0>        -0.0373
     19 Cl3        -0.1616   -7.7839    2.4063 Cl        1 <0>        -0.0419
     20 C13         3.6711    2.1928   -0.0226 C.3       1 <0>         0.5086
     21 F1          3.3905    3.5634   -0.0129 F         1 <0>        -0.1848
     22 F2          4.4222    1.8626    1.1105 F         1 <0>        -0.1823
     23 F3          4.3991    1.8740   -1.1739 F         1 <0>        -0.1824
     24 H1         -0.9594    1.9032    0.0259 H         1 <0>         0.1149
     25 H2          1.1532    3.1658    0.0080 H         1 <0>         0.1183
     26 H3          3.3508   -0.4882   -0.0336 H         1 <0>         0.1239
     27 H4         -0.9254   -0.5574    0.0082 H         1 <0>         0.1045
     28 H5         -0.5936   -5.0126    1.9103 H         1 <0>         0.1671
     29 H6          1.7215   -6.9535   -1.9820 H         1 <0>         0.1580
@<TRIPOS>BOND
     1    1    6 ar
     2    1    2 ar
     3    1   24 1
     4    2    3 ar
     5    2   25 1
     6    3    4 ar
     7    3   20 1
     8    4    5 ar
     9    4   26 1
    10    5    6 ar
    11    5    7 1
    12    6   27 1
    13    7    8 1
    14    8    9 2
    15    8   10 2
    16    8   11 1
    17   11   16 ar
    18   11   12 ar
    19   12   13 ar
    20   12   28 1
    21   13   14 ar
    22   13   19 1
    23   14   15 ar
    24   14   18 1
    25   15   16 ar
    26   15   29 1
    27   16   17 1
    28   20   21 1
    29   20   22 1
    30   20   23 1
@<TRIPOS>MOLECULE
ZINC58655676
   55    57     0     0     0
SMALL
USER_CHARGES

@<TRIPOS>ATOM
      1 C1          0.5488    1.6611   -0.2219 C.3       1 <0>        -0.1411
      2 C2          0.4334    0.1368   -0.1575 C.3       1 <0>        -0.0014
      3 C3          1.1752   -0.3791    1.0772 C.3       1 <0>        -0.1412
      4 C4         -1.0195   -0.2538   -0.0701 C.2       1 <0>        -0.2596
      5 C5         -1.9098    0.1168    0.9294 C.2       1 <0>         0.1117
      6 N1         -3.0838   -0.4099    0.6710 N.2       1 <0>        -0.3361
      7 N2         -2.9973   -1.1475   -0.5153 N.pl3     1 <0>        -0.3639
      8 C6         -1.7117   -1.0440   -0.9772 C.2       1 <0>         0.3466
      9 N3         -1.3417   -1.6548   -2.1127 N.2       1 <0>        -0.5767
     10 C7         -2.2072   -2.3671   -2.8134 C.2       1 <0>         0.4953
     11 C8         -3.5350   -2.4948   -2.3753 C.2       1 <0>        -0.3671
     12 C9         -3.9182   -1.8828   -1.2175 C.2       1 <0>         0.5060
     13 N4         -5.2172   -1.9910   -0.7665 N.pl3     1 <0>        -0.7101
     14 C10        -6.1925   -2.7789   -1.5242 C.3       1 <0>         0.1679
     15 C11        -7.5259   -2.7365   -0.8233 C.ar      1 <0>        -0.1184
     16 C12        -7.8360   -3.6880    0.1303 C.ar      1 <0>        -0.0961
     17 C13        -9.0591   -3.6491    0.7733 C.ar      1 <0>        -0.1212
     18 C14        -9.9719   -2.6584    0.4630 C.ar      1 <0>        -0.1053
     19 C15        -9.6614   -1.7064   -0.4899 C.ar      1 <0>        -0.1214
     20 C16        -8.4366   -1.7427   -1.1298 C.ar      1 <0>        -0.0963
     21 N5         -1.8032   -2.9889   -3.9834 N.pl3     1 <0>        -0.6918
     22 C17        -0.4184   -2.8566   -4.4427 C.3       1 <0>         0.1320
     23 H1         -0.0468   -1.8624   -4.1947 H         1 <0>         0.1085
     24 C18         0.4500   -3.9119   -3.7549 C.3       1 <0>         0.0700
     25 O1          0.0275   -5.2151   -4.1614 O.3       1 <0>        -0.5699
     26 C19        -0.3623   -3.0587   -5.9582 C.3       1 <0>         0.1075
     27 H2         -0.7661   -4.0395   -6.2092 H         1 <0>         0.1172
     28 C20        -1.1915   -1.9738   -6.6485 C.3       1 <0>         0.0440
     29 O2         -1.2351   -2.2295   -8.0537 O.3       1 <0>        -0.5625
     30 O3          0.9941   -2.9748   -6.4001 O.3       1 <0>        -0.5390
     31 H3          1.5996    1.9436   -0.2851 H         1 <0>         0.0538
     32 H4          0.0202    2.0286   -1.1015 H         1 <0>         0.0506
     33 H5          0.1086    2.0970    0.6749 H         1 <0>         0.0520
     34 H6          0.8736   -0.2992   -1.0543 H         1 <0>         0.0769
     35 H7          2.2261   -0.0966    1.0141 H         1 <0>         0.0538
     36 H8          0.7351    0.0569    1.9741 H         1 <0>         0.0520
     37 H9          1.0931   -1.4650    1.1232 H         1 <0>         0.0506
     38 H10        -1.6741    0.7374    1.7813 H         1 <0>         0.1890
     39 H11        -4.2442   -3.0761   -2.9458 H         1 <0>         0.1543
     40 H12        -5.4849   -1.5453    0.0524 H         1 <0>         0.4169
     41 H13        -6.2955   -2.3630   -2.5265 H         1 <0>         0.0824
     42 H14        -5.8507   -3.8116   -1.5927 H         1 <0>         0.0828
     43 H15        -7.1229   -4.4620    0.3727 H         1 <0>         0.1248
     44 H16        -9.3017   -4.3929    1.5178 H         1 <0>         0.1267
     45 H17       -10.9277   -2.6285    0.9648 H         1 <0>         0.1260
     46 H18       -10.3746   -0.9326   -0.7326 H         1 <0>         0.1266
     47 H19        -8.1925   -0.9967   -1.8716 H         1 <0>         0.1246
     48 H20        -2.4372   -3.5119   -4.4985 H         1 <0>         0.4145
     49 H21         1.4927   -3.7638   -4.0361 H         1 <0>         0.0598
     50 H22         0.3484   -3.8178   -2.6738 H         1 <0>         0.0555
     51 H23         0.5354   -5.9352   -3.7633 H         1 <0>         0.3813
     52 H24        -2.2046   -1.9800   -6.2464 H         1 <0>         0.0549
     53 H25        -0.7358   -0.9998   -6.4704 H         1 <0>         0.0491
     54 H26        -1.7454   -1.5796   -8.5561 H         1 <0>         0.3802
     55 H27         1.4409   -2.1559   -6.1452 H         1 <0>         0.3731
@<TRIPOS>BOND
     1    1    2 1
     2    1   31 1
     3    1   32 1
     4    1   33 1
     5    2    3 1
     6    2    4 1
     7    2   34 1
     8    3   35 1
     9    3   36 1
    10    3   37 1
    11    4    8 2
    12    4    5 1
    13    5    6 2
    14    5   38 1
    15    6    7 1
    16    7   12 1
    17    7    8 1
    18    8    9 1
    19    9   10 2
    20   10   11 1
    21   10   21 1
    22   11   12 2
    23   11   39 1
    24   12   13 1
    25   13   14 1
    26   13   40 1
    27   14   15 1
    28   14   41 1
    29   14   42 1
    30   15   20 ar
    31   15   16 ar
    32   16   17 ar
    33   16   43 1
    34   17   18 ar
    35   17   44 1
    36   18   19 ar
    37   18   45 1
    38   19   20 ar
    39   19   46 1
    40   20   47 1
    41   21   22 1
    42   21   48 1
    43   22   23 1
    44   22   24 1
    45   22   26 1
    46   24   25 1
    47   24   49 1
    48   24   50 1
    49   25   51 1
    50   26   27 1
    51   26   28 1
    52   26   30 1
    53   28   29 1
    54   28   52 1
    55   28   53 1
    56   29   54 1
    57   30   55 1
@<TRIPOS>MOLECULE
ZINC01493878
   48    50     0     0     0
SMALL
USER_CHARGES

@<TRIPOS>ATOM
      1 C1         -1.0955   -5.0083   -6.9234 C.3       1 <0>         0.0847
      2 N1         -1.5520   -4.3038   -5.7228 N.am      1 <0>        -0.7137
      3 C2         -1.8827   -5.0004   -4.6175 C.2       1 <0>         0.5696
      4 O1         -1.8023   -6.2129   -4.6168 O.2       1 <0>        -0.5284
      5 C3         -2.3445   -4.2878   -3.4031 C.ar      1 <0>         0.1129
      6 C4         -2.6788   -5.0128   -2.2640 C.ar      1 <0>        -0.1883
      7 C5         -3.1110   -4.3279   -1.1310 C.ar      1 <0>         0.1595
      8 C6         -3.1903   -2.9389   -1.1877 C.ar      1 <0>        -0.1766
      9 C7         -2.8404   -2.2885   -2.3571 C.ar      1 <0>         0.1349
     10 N2         -2.4302   -2.9626   -3.4105 N.ar      1 <0>        -0.4815
     11 O2         -3.4471   -4.9979    0.0005 O.3       1 <0>        -0.2437
     12 C8         -3.4462   -6.3570   -0.0383 C.ar      1 <0>         0.0568
     13 C9         -2.2447   -7.0505   -0.0178 C.ar      1 <0>        -0.1074
     14 C10        -2.2431   -8.4307   -0.0577 C.ar      1 <0>        -0.1009
     15 C11        -3.4442   -9.1246   -0.1179 C.ar      1 <0>         0.1671
     16 C12        -4.6464   -8.4301   -0.1379 C.ar      1 <0>        -0.1272
     17 C13        -4.6469   -7.0500   -0.0928 C.ar      1 <0>        -0.0940
     18 N3         -3.4432  -10.5252   -0.1588 N.am      1 <0>        -0.6776
     19 C14        -2.5108  -11.2187    0.5239 C.2       1 <0>         0.7077
     20 O3         -1.6217  -10.6297    1.1080 O.2       1 <0>        -0.5493
     21 N4         -2.5639  -12.5649    0.5593 N.am      1 <0>        -0.6795
     22 C15        -1.6655  -13.2800    1.3600 C.ar      1 <0>         0.1700
     23 C16        -1.2529  -12.7583    2.5792 C.ar      1 <0>        -0.0742
     24 C17        -0.3670  -13.4659    3.3674 C.ar      1 <0>        -0.0871
     25 C18         0.1097  -14.6941    2.9434 C.ar      1 <0>        -0.0077
     26 C19        -0.2993  -15.2159    1.7290 C.ar      1 <0>        -0.1564
     27 C20        -1.1898  -14.5147    0.9394 C.ar      1 <0>        -0.0879
     28 C21         0.2222  -16.5533    1.2702 C.3       1 <0>         0.5112
     29 F1         -0.3299  -16.8663    0.0234 F         1 <0>        -0.1743
     30 F2          1.6160  -16.4983    1.1626 F         1 <0>        -0.1671
     31 F3         -0.1354  -17.5367    2.1987 F         1 <0>        -0.1677
     32 Cl1         1.2234  -15.5812    3.9366 Cl        1 <0>        -0.0394
     33 H1         -0.8760   -4.2843   -7.7081 H         1 <0>         0.0803
     34 H2         -0.1948   -5.5764   -6.6909 H         1 <0>         0.0631
     35 H3         -1.8761   -5.6883   -7.2645 H         1 <0>         0.0629
     36 H4         -1.6162   -3.3359   -5.7233 H         1 <0>         0.4141
     37 H5         -2.6047   -6.0902   -2.2584 H         1 <0>         0.1546
     38 H6         -3.5217   -2.3755   -0.3280 H         1 <0>         0.1523
     39 H7         -2.9005   -1.2112   -2.4052 H         1 <0>         0.1747
     40 H8         -1.3104   -6.5106    0.0290 H         1 <0>         0.1364
     41 H9         -1.3078   -8.9704   -0.0424 H         1 <0>         0.1514
     42 H10        -5.5809   -8.9693   -0.1851 H         1 <0>         0.1386
     43 H11        -5.5820   -6.5098   -0.1039 H         1 <0>         0.1400
     44 H12        -4.1137  -10.9957   -0.6785 H         1 <0>         0.4131
     45 H13        -3.2246  -13.0383    0.0299 H         1 <0>         0.4146
     46 H14        -1.6244  -11.7997    2.9103 H         1 <0>         0.1546
     47 H15        -0.0456  -13.0604    4.3154 H         1 <0>         0.1524
     48 H16        -1.5123  -14.9245   -0.0064 H         1 <0>         0.1525
@<TRIPOS>BOND
     1    1    2 1
     2    1   33 1
     3    1   34 1
     4    1   35 1
     5    2    3 am
     6    2   36 1
     7    3    4 2
     8    3    5 1
     9    5   10 ar
    10    5    6 ar
    11    6    7 ar
    12    6   37 1
    13    7    8 ar
    14    7   11 1
    15    8    9 ar
    16    8   38 1
    17    9   10 ar
    18    9   39 1
    19   11   12 1
    20   12   17 ar
    21   12   13 ar
    22   13   14 ar
    23   13   40 1
    24   14   15 ar
    25   14   41 1
    26   15   16 ar
    27   15   18 1
    28   16   17 ar
    29   16   42 1
    30   17   43 1
    31   18   19 am
    32   18   44 1
    33   19   20 2
    34   19   21 am
    35   21   22 1
    36   21   45 1
    37   22   27 ar
    38   22   23 ar
    39   23   24 ar
    40   23   46 1
    41   24   25 ar
    42   24   47 1
    43   25   26 ar
    44   25   32 1
    45   26   27 ar
    46   26   28 1
    47   27   48 1
    48   28   29 1
    49   28   30 1
    50   28   31 1
@<TRIPOS>MOLECULE
ZINC01649340
   52    54     0     0     0
SMALL
USER_CHARGES

@<TRIPOS>ATOM
      1 C1         -0.0187    1.5258    0.0104 C.3       1 <0>        -0.1531
      2 C2          0.0021   -0.0041    0.0020 C.3       1 <0>        -0.1278
      3 C3         -1.4333   -0.5336    0.0129 C.3       1 <0>         0.1689
      4 H1         -1.9701   -0.1109    0.8621 H         1 <0>         0.1030
      5 C4         -1.4133   -2.0590    0.1302 C.3       1 <0>         0.0625
      6 O1         -0.6117   -2.6069   -0.9183 O.3       1 <0>        -0.5692
      7 N1         -2.1054   -0.1483   -1.2305 N.pl3     1 <0>        -0.6816
      8 C5         -3.4856   -0.0365   -1.2658 C.ar      1 <0>         0.6305
      9 N2         -4.1766   -0.2783   -0.1589 N.ar      1 <0>        -0.6256
     10 C6         -5.5013   -0.1844   -0.1423 C.ar      1 <0>         0.5407
     11 C7         -6.1646    0.1788   -1.3275 C.ar      1 <0>        -0.1560
     12 C8         -5.3921    0.4251   -2.4741 C.ar      1 <0>         0.3485
     13 N3         -4.0693    0.3129   -2.4004 N.ar      1 <0>        -0.6161
     14 N4         -6.2808    0.7538   -3.4662 N.pl3     1 <0>        -0.4704
     15 C9         -7.5330    0.7038   -2.9264 C.2       1 <0>         0.2320
     16 N5         -7.4624    0.3664   -1.6720 N.2       1 <0>        -0.4548
     17 C10        -5.9467    1.0964   -4.8508 C.3       1 <0>         0.1344
     18 C11        -6.6196    0.1019   -5.7989 C.3       1 <0>        -0.1626
     19 C12        -6.4419    2.5107   -5.1599 C.3       1 <0>        -0.1626
     20 N6         -6.2133   -0.4389    1.0165 N.pl3     1 <0>        -0.6899
     21 C13        -5.5062   -0.8166    2.2427 C.3       1 <0>         0.1717
     22 C14        -6.5039   -1.0364    3.3505 C.ar      1 <0>        -0.1135
     23 C15        -6.8801    0.0183    4.1611 C.ar      1 <0>        -0.0982
     24 C16        -7.7953   -0.1833    5.1773 C.ar      1 <0>        -0.1219
     25 C17        -8.3347   -1.4394    5.3826 C.ar      1 <0>        -0.1101
     26 C18        -7.9592   -2.4939    4.5714 C.ar      1 <0>        -0.1221
     27 C19        -7.0472   -2.2913    3.5524 C.ar      1 <0>        -0.0986
     28 H2          1.0039    1.9031    0.0027 H         1 <0>         0.0563
     29 H3         -0.5459    1.8868   -0.8726 H         1 <0>         0.0552
     30 H4         -0.5289    1.8773    0.9072 H         1 <0>         0.0537
     31 H5          0.5123   -0.3556   -0.8948 H         1 <0>         0.0768
     32 H6          0.5293   -0.3651    0.8851 H         1 <0>         0.0774
     33 H7         -0.9936   -2.3437    1.0951 H         1 <0>         0.0524
     34 H8         -2.4301   -2.4431    0.0488 H         1 <0>         0.0503
     35 H9         -0.5540   -3.5721   -0.9058 H         1 <0>         0.3776
     36 H10        -1.5839    0.0285   -2.0291 H         1 <0>         0.4145
     37 H11        -8.4474    0.9139   -3.4613 H         1 <0>         0.2138
     38 H12        -4.8660    1.0524   -4.9853 H         1 <0>         0.1061
     39 H13        -7.7004    0.1459   -5.6644 H         1 <0>         0.0654
     40 H14        -6.3710    0.3568   -6.8291 H         1 <0>         0.0793
     41 H15        -6.2668   -0.9057   -5.5787 H         1 <0>         0.0629
     42 H16        -5.9625    3.2193   -4.4845 H         1 <0>         0.0629
     43 H17        -6.1933    2.7656   -6.1901 H         1 <0>         0.0793
     44 H18        -7.5227    2.5547   -5.0254 H         1 <0>         0.0654
     45 H19        -7.1807   -0.3672    1.0169 H         1 <0>         0.4195
     46 H20        -4.9460   -1.7357    2.0706 H         1 <0>         0.0763
     47 H21        -4.8186   -0.0196    2.5258 H         1 <0>         0.0773
     48 H22        -6.4587    0.9996    4.0008 H         1 <0>         0.1237
     49 H23        -8.0886    0.6405    5.8111 H         1 <0>         0.1245
     50 H24        -9.0492   -1.5971    6.1770 H         1 <0>         0.1237
     51 H25        -8.3804   -3.4753    4.7320 H         1 <0>         0.1244
     52 H26        -6.7567   -3.1143    2.9163 H         1 <0>         0.1232
@<TRIPOS>BOND
     1    1    2 1
     2    1   28 1
     3    1   29 1
     4    1   30 1
     5    2    3 1
     6    2   31 1
     7    2   32 1
     8    3    4 1
     9    3    5 1
    10    3    7 1
    11    5    6 1
    12    5   33 1
    13    5   34 1
    14    6   35 1
    15    7    8 1
    16    7   36 1
    17    8   13 ar
    18    8    9 ar
    19    9   10 ar
    20   10   11 ar
    21   10   20 1
    22   11   16 1
    23   11   12 ar
    24   12   13 ar
    25   12   14 1
    26   14   15 1
    27   14   17 1
    28   15   16 2
    29   15   37 1
    30   17   18 1
    31   17   19 1
    32   17   38 1
    33   18   39 1
    34   18   40 1
    35   18   41 1
    36   19   42 1
    37   19   43 1
    38   19   44 1
    39   20   21 1
    40   20   45 1
    41   21   22 1
    42   21   46 1
    43   21   47 1
    44   22   27 ar
    45   22   23 ar
    46   23   24 ar
    47   23   48 1
    48   24   25 ar
    49   24   49 1
    50   25   26 ar
    51   25   50 1
    52   26   27 ar
    53   26   51 1
    54   27   52 1
@<TRIPOS>MOLECULE
ZINC03814434
   62    69     0     0     0
SMALL
USER_CHARGES

@<TRIPOS>ATOM
      1 C1         -0.1295    1.5952   -0.2973 C.3       1 <0>        -0.1687
      2 C2         -0.0862    0.0696   -0.1900 C.3       1 <0>         0.3342
      3 C3          0.5692   -0.4501   -1.4637 C.3       1 <0>         0.0405
      4 H1          1.4796    0.1159   -1.6612 H         1 <0>         0.1372
      5 C4          0.9167   -1.9328   -1.2889 C.3       1 <0>        -0.0061
      6 H2          1.3963   -2.3075   -2.1932 H         1 <0>         0.1555
      7 C5          1.8785   -2.0596   -0.1021 C.3       1 <0>        -0.1827
      8 C6          1.2061   -1.5198    1.1541 C.3       1 <0>         0.2999
      9 H3          1.9797   -1.4243    1.9161 H         1 <0>         0.1550
     10 O1          0.6555   -0.2442    0.9666 O.3       1 <0>        -0.3234
     11 N1          0.2189   -2.4746    1.6600 N.pl3     1 <0>        -0.5366
     12 C7          0.4705   -3.5508    2.4739 C.ar      1 <0>         0.1469
     13 C8          1.6649   -4.0152    3.0240 C.ar      1 <0>        -0.1522
     14 C9          1.5948   -5.1456    3.8201 C.ar      1 <0>        -0.0582
     15 C10         0.4006   -5.7997    4.0696 C.ar      1 <0>        -0.1457
     16 C11        -0.7984   -5.3597    3.5358 C.ar      1 <0>        -0.0280
     17 C12        -0.7487   -4.2198    2.7307 C.ar      1 <0>        -0.1131
     18 C13        -1.7893   -3.4830    2.0197 C.ar      1 <0>         0.0276
     19 C14        -1.1442   -2.4197    1.3841 C.ar      1 <0>         0.0376
     20 C15        -1.8806   -1.5095    0.6175 C.ar      1 <0>         0.0894
     21 N2         -1.4718   -0.3951   -0.1095 N.pl3     1 <0>        -0.5183
     22 C16        -2.5611    0.1913   -0.7090 C.ar      1 <0>         0.1618
     23 C17        -2.6521    1.3277   -1.5118 C.ar      1 <0>        -0.1305
     24 C18        -3.9109    1.6745   -1.9733 C.ar      1 <0>        -0.0737
     25 C19        -5.0393    0.9368   -1.6616 C.ar      1 <0>        -0.1358
     26 C20        -4.9745   -0.1955   -0.8662 C.ar      1 <0>        -0.0503
     27 C21        -3.7147   -0.5596   -0.3919 C.ar      1 <0>        -0.1042
     28 C22        -3.2693   -1.6660    0.4845 C.ar      1 <0>        -0.0360
     29 C23        -3.9084   -2.7313    1.1102 C.ar      1 <0>        -0.0288
     30 C24        -3.1873   -3.6421    1.8754 C.ar      1 <0>        -0.1255
     31 C25        -4.1221   -4.6480    2.4030 C.2       1 <0>         0.5632
     32 O2         -3.8062   -5.5851    3.1110 O.2       1 <0>        -0.5106
     33 N3         -5.3744   -4.3851    1.9926 N.am      1 <0>        -0.7162
     34 C26        -5.3495   -3.1771    1.1601 C.3       1 <0>         0.1358
     35 N4         -0.3067   -2.7008   -1.0216 N.4       1 <0>        -0.5252
     36 C27         0.0145   -4.1336   -0.9773 C.3       1 <0>        -0.0497
     37 O3         -0.3340   -0.2979   -2.5607 O.3       1 <0>        -0.3614
     38 C28         0.3101   -0.0933   -3.8198 C.3       1 <0>         0.0162
     39 H4          0.8261    2.0094    0.0240 H         1 <0>         0.0984
     40 H5         -0.3202    1.8814   -1.3317 H         1 <0>         0.1036
     41 H6         -0.9255    1.9818    0.3392 H         1 <0>         0.0921
     42 H7          2.1370   -3.1081    0.0458 H         1 <0>         0.1233
     43 H8          2.7835   -1.4869   -0.3048 H         1 <0>         0.1455
     44 H9          2.6036   -3.5149    2.8368 H         1 <0>         0.1365
     45 H10         2.5026   -5.5304    4.2610 H         1 <0>         0.1359
     46 H11         0.4045   -6.6780    4.6980 H         1 <0>         0.1352
     47 H12        -1.7278   -5.8736    3.7323 H         1 <0>         0.1600
     48 H13        -1.7792    1.9122   -1.7624 H         1 <0>         0.1440
     49 H14        -4.0153    2.5500   -2.5970 H         1 <0>         0.1336
     50 H15        -5.9967    1.2527   -2.0488 H         1 <0>         0.1332
     51 H16        -5.8575   -0.7687   -0.6249 H         1 <0>         0.1415
     52 H17        -6.1628   -4.9065    2.2103 H         1 <0>         0.4348
     53 H18        -5.9671   -2.3994    1.6094 H         1 <0>         0.1115
     54 H19        -5.7060   -3.4063    0.1559 H         1 <0>         0.1103
     55 H20        -0.6958   -2.4158   -0.1353 H         1 <0>         0.4186
     56 H21         0.4349   -4.4415   -1.9347 H         1 <0>         0.1256
     57 H22         0.7403   -4.3189   -0.1854 H         1 <0>         0.1191
     58 H23        -0.8932   -4.7035   -0.7789 H         1 <0>         0.1256
     59 H24         0.9168    0.8112   -3.7748 H         1 <0>         0.0633
     60 H25         0.9482   -0.9479   -4.0446 H         1 <0>         0.0514
     61 H26        -0.4433    0.0130   -4.6003 H         1 <0>         0.1100
     62 H27        -0.9785   -2.5293   -1.7546 H         1 <0>         0.4274
@<TRIPOS>BOND
     1    1    2 1
     2    1   39 1
     3    1   40 1
     4    1   41 1
     5    2   10 1
     6    2   21 1
     7    2    3 1
     8    3    4 1
     9    3    5 1
    10    3   37 1
    11    5    6 1
    12    5    7 1
    13    5   35 1
    14    7    8 1
    15    7   42 1
    16    7   43 1
    17    8    9 1
    18    8   10 1
    19    8   11 1
    20   11   19 1
    21   11   12 1
    22   12   17 ar
    23   12   13 ar
    24   13   14 ar
    25   13   44 1
    26   14   15 ar
    27   14   45 1
    28   15   16 ar
    29   15   46 1
    30   16   17 ar
    31   16   47 1
    32   17   18 1
    33   18   30 ar
    34   18   19 ar
    35   19   20 ar
    36   20   28 ar
    37   20   21 1
    38   21   22 1
    39   22   27 ar
    40   22   23 ar
    41   23   24 ar
    42   23   48 1
    43   24   25 ar
    44   24   49 1
    45   25   26 ar
    46   25   50 1
    47   26   27 ar
    48   26   51 1
    49   27   28 1
    50   28   29 ar
    51   29   34 1
    52   29   30 ar
    53   30   31 1
    54   31   32 2
    55   31   33 am
    56   33   34 1
    57   33   52 1
    58   34   53 1
    59   34   54 1
    60   35   36 1
    61   35   55 1
    62   35   62 1
    63   36   56 1
    64   36   57 1
    65   36   58 1
    66   37   38 1
    67   38   59 1
    68   38   60 1
    69   38   61 1
@<TRIPOS>MOLECULE
ZINC43207770
   61    63     0     0     0
SMALL
USER_CHARGES

@<TRIPOS>ATOM
      1 C1         -0.0187    1.5258    0.0104 C.3       1 <0>        -0.1420
      2 C2          0.0021   -0.0041    0.0020 C.3       1 <0>        -0.0004
      3 C3          0.7182   -0.4975   -1.2568 C.3       1 <0>        -0.1418
      4 C4          0.7309   -0.5033    1.2229 C.2       1 <0>        -0.2574
      5 C5          2.0495   -0.2273    1.5610 C.2       1 <0>         0.1123
      6 N1          2.3353   -0.8321    2.6902 N.2       1 <0>        -0.3325
      7 N2          1.2034   -1.5282    3.1295 N.pl3     1 <0>        -0.3639
      8 C6          0.2043   -1.3172    2.2162 C.2       1 <0>         0.3429
      9 N3         -1.0069   -1.8674    2.3882 N.2       1 <0>        -0.5741
     10 C7         -1.2661   -2.6222    3.4420 C.2       1 <0>         0.4905
     11 C8         -0.2698   -2.8598    4.4024 C.2       1 <0>        -0.3712
     12 C9          0.9673   -2.3100    4.2317 C.2       1 <0>         0.5074
     13 N4          1.9627   -2.5263    5.1616 N.pl3     1 <0>        -0.7091
     14 C10         1.6996   -3.3630    6.3350 C.3       1 <0>         0.1691
     15 C11         2.9408   -3.4387    7.1865 C.ar      1 <0>        -0.1212
     16 C12         3.8714   -4.4365    6.9645 C.ar      1 <0>        -0.0964
     17 C13         5.0098   -4.5059    7.7455 C.ar      1 <0>        -0.1207
     18 C14         5.2179   -3.5773    8.7481 C.ar      1 <0>        -0.1036
     19 C15         4.2878   -2.5789    8.9694 C.ar      1 <0>        -0.1207
     20 C16         3.1514   -2.5069    8.1857 C.ar      1 <0>        -0.0964
     21 N5         -2.5242   -3.1798    3.5996 N.pl3     1 <0>        -0.7103
     22 C17        -3.5654   -2.9329    2.5990 C.3       1 <0>         0.1310
     23 C18        -4.8488   -3.6579    3.0089 C.3       1 <0>        -0.1349
     24 C19        -5.9362   -3.4000    1.9640 C.3       1 <0>        -0.1172
     25 C20        -7.2197   -4.1250    2.3739 C.3       1 <0>        -0.1183
     26 C21        -8.3071   -3.8671    1.3289 C.3       1 <0>        -0.1535
     27 C22        -9.5905   -4.5921    1.7388 C.3       1 <0>        -0.0100
     28 N6        -10.6346   -4.3445    0.7355 N.4       1 <0>        -0.6388
     29 H1          1.0039    1.9031    0.0027 H         1 <0>         0.0535
     30 H2         -0.5459    1.8868   -0.8726 H         1 <0>         0.0537
     31 H3         -0.5289    1.8773    0.9072 H         1 <0>         0.0505
     32 H4         -1.0205   -0.3814    0.0098 H         1 <0>         0.0755
     33 H5          1.7408   -0.1202   -1.2645 H         1 <0>         0.0535
     34 H6          0.7330   -1.5874   -1.2628 H         1 <0>         0.0505
     35 H7          0.1910   -0.1364   -2.1398 H         1 <0>         0.0537
     36 H8          2.7294    0.3853    0.9875 H         1 <0>         0.1905
     37 H9         -0.4788   -3.4760    5.2643 H         1 <0>         0.1532
     38 H10         2.8369   -2.1244    5.0386 H         1 <0>         0.4179
     39 H11         0.8863   -2.9284    6.9162 H         1 <0>         0.0820
     40 H12         1.4195   -4.3654    6.0111 H         1 <0>         0.0819
     41 H13         3.7088   -5.1620    6.1812 H         1 <0>         0.1243
     42 H14         5.7366   -5.2859    7.5726 H         1 <0>         0.1274
     43 H15         6.1071   -3.6320    9.3588 H         1 <0>         0.1272
     44 H16         4.4502   -1.8536    9.7530 H         1 <0>         0.1274
     45 H17         2.4265   -1.7247    8.3561 H         1 <0>         0.1244
     46 H18        -2.7158   -3.7339    4.3723 H         1 <0>         0.4105
     47 H19        -3.7584   -1.8622    2.5322 H         1 <0>         0.0678
     48 H20        -3.2327   -3.3033    1.6294 H         1 <0>         0.0678
     49 H21        -4.6558   -4.7286    3.0757 H         1 <0>         0.0709
     50 H22        -5.1815   -3.2875    3.9785 H         1 <0>         0.0709
     51 H23        -6.1293   -2.3293    1.8971 H         1 <0>         0.0712
     52 H24        -5.6035   -3.7704    0.9943 H         1 <0>         0.0712
     53 H25        -7.0266   -5.1957    2.4407 H         1 <0>         0.0750
     54 H26        -7.5524   -3.7546    3.3435 H         1 <0>         0.0750
     55 H27        -8.5001   -2.7964    1.2621 H         1 <0>         0.0886
     56 H28        -7.9744   -4.2375    0.3593 H         1 <0>         0.0886
     57 H29        -9.3975   -5.6628    1.8056 H         1 <0>         0.1333
     58 H30        -9.9232   -4.2217    2.7085 H         1 <0>         0.1334
     59 H31       -11.4810   -4.8226    1.0058 H         1 <0>         0.4384
     60 H32       -10.8133   -3.3533    0.6737 H         1 <0>         0.4356
     61 H33       -10.3266   -4.6873   -0.1621 H         1 <0>         0.4356
@<TRIPOS>BOND
     1    1    2 1
     2    1   29 1
     3    1   30 1
     4    1   31 1
     5    2    3 1
     6    2    4 1
     7    2   32 1
     8    3   33 1
     9    3   34 1
    10    3   35 1
    11    4    8 2
    12    4    5 1
    13    5    6 2
    14    5   36 1
    15    6    7 1
    16    7   12 1
    17    7    8 1
    18    8    9 1
    19    9   10 2
    20   10   11 1
    21   10   21 1
    22   11   12 2
    23   11   37 1
    24   12   13 1
    25   13   14 1
    26   13   38 1
    27   14   15 1
    28   14   39 1
    29   14   40 1
    30   15   20 ar
    31   15   16 ar
    32   16   17 ar
    33   16   41 1
    34   17   18 ar
    35   17   42 1
    36   18   19 ar
    37   18   43 1
    38   19   20 ar
    39   19   44 1
    40   20   45 1
    41   21   22 1
    42   21   46 1
    43   22   23 1
    44   22   47 1
    45   22   48 1
    46   23   24 1
    47   23   49 1
    48   23   50 1
    49   24   25 1
    50   24   51 1
    51   24   52 1
    52   25   26 1
    53   25   53 1
    54   25   54 1
    55   26   27 1
    56   26   55 1
    57   26   56 1
    58   27   28 1
    59   27   57 1
    60   27   58 1
    61   28   59 1
    62   28   60 1
    63   28   61 1
@<TRIPOS>MOLECULE
ZINC03938688
   39    41     0     0     0
SMALL
USER_CHARGES

@<TRIPOS>ATOM
      1 C1         -0.0095    1.3826    0.0704 C.ar      1 <0>        -0.0343
      2 C2          0.5587    1.0580   -1.1482 C.ar      1 <0>        -0.1609
      3 C3          1.7655    0.3862   -1.1955 C.ar      1 <0>         0.1753
      4 C4          2.4129    0.0342   -0.0053 C.ar      1 <0>        -0.1954
      5 C5          1.8304    0.3669    1.2233 C.ar      1 <0>         0.1741
      6 C6          0.6231    1.0388    1.2514 C.ar      1 <0>        -0.1610
      7 F1          2.4463    0.0317    2.3781 F         1 <0>        -0.1212
      8 C7          3.6999   -0.6827   -0.0456 C.2       1 <0>         0.6210
      9 O1          4.7383   -0.0615   -0.1600 O.2       1 <0>        -0.4669
     10 N1          3.7255   -2.0272    0.0446 N.am      1 <0>        -0.3962
     11 C8          4.8314   -2.8210    0.1249 C.2       1 <0>         0.5948
     12 N2          4.4249   -4.0694    0.1979 N.2       1 <0>        -0.5873
     13 C9          3.0869   -4.1118    0.1675 C.2       1 <0>         0.5191
     14 N3          2.6183   -2.8904    0.0808 N.2       1 <0>        -0.3480
     15 N4          2.3148   -5.2702    0.2247 N.pl3     1 <0>        -0.6226
     16 C10         2.9267   -6.5079    0.4407 C.ar      1 <0>         0.2365
     17 C11         4.1432   -6.5760    1.1080 C.ar      1 <0>        -0.1584
     18 C12         4.7450   -7.8008    1.3202 C.ar      1 <0>         0.0098
     19 C13         4.1379   -8.9586    0.8692 C.ar      1 <0>        -0.7033
     20 C14         2.9269   -8.8944    0.2046 C.ar      1 <0>         0.0112
     21 C15         2.3170   -7.6734   -0.0063 C.ar      1 <0>        -0.1777
     22 S1          4.9094  -10.5191    1.1415 S.o2      1 <0>         2.7034
     23 O2          4.4084  -11.3993    0.1448 O.2       1 <0>        -0.9656
     24 O3          6.2977  -10.2630    1.3036 O.2       1 <0>        -0.9650
     25 N5          4.3605  -11.0895    2.5960 N.pl3     1 <0>        -1.2510
     26 N6          6.1422   -2.3912    0.1281 N.pl3     1 <0>        -0.7911
     27 F2          2.3185    0.0697   -2.3868 F         1 <0>        -0.1201
     28 H1         -0.9506    1.9116    0.0998 H         1 <0>         0.1546
     29 H2          0.0576    1.3300   -2.0654 H         1 <0>         0.1549
     30 H3          0.1721    1.2963    2.1984 H         1 <0>         0.1546
     31 H4          1.3525   -5.2176    0.1147 H         1 <0>         0.4325
     32 H5          4.6180   -5.6722    1.4601 H         1 <0>         0.1556
     33 H6          5.6909   -7.8544    1.8385 H         1 <0>         0.1456
     34 H7          2.4556   -9.8005   -0.1466 H         1 <0>         0.1475
     35 H8          1.3691   -7.6243   -0.5215 H         1 <0>         0.1387
     36 H9          3.7284  -10.5673    3.1145 H         1 <0>         0.4165
     37 H10         4.6709  -11.9458    2.9296 H         1 <0>         0.4206
     38 H11         6.3422   -1.4439    0.0694 H         1 <0>         0.4292
     39 H12         6.8640   -3.0364    0.1890 H         1 <0>         0.4303
@<TRIPOS>BOND
     1    1    6 ar
     2    1    2 ar
     3    1   28 1
     4    2    3 ar
     5    2   29 1
     6    3    4 ar
     7    3   27 1
     8    4    5 ar
     9    4    8 1
    10    5    6 ar
    11    5    7 1
    12    6   30 1
    13    8    9 2
    14    8   10 am
    15   10   14 1
    16   10   11 1
    17   11   12 2
    18   11   26 1
    19   12   13 1
    20   13   14 2
    21   13   15 1
    22   15   16 1
    23   15   31 1
    24   16   21 ar
    25   16   17 ar
    26   17   18 ar
    27   17   32 1
    28   18   19 ar
    29   18   33 1
    30   19   20 ar
    31   19   22 1
    32   20   21 ar
    33   20   34 1
    34   21   35 1
    35   22   23 2
    36   22   24 2
    37   22   25 1
    38   25   36 1
    39   25   37 1
    40   26   38 1
    41   26   39 1
@<TRIPOS>MOLECULE
ZINC16697102
   68    71     0     0     0
SMALL
USER_CHARGES

@<TRIPOS>ATOM
      1 C1          0.1414    1.0953    0.0252 C.3       1 <0>        -0.1879
      2 C2          0.0344   -0.4077    0.2904 C.3       1 <0>        -0.0179
      3 N1         -1.3805   -0.7845    0.4095 N.4       1 <0>        -0.3831
      4 C3         -1.4799   -2.1986    0.7946 C.3       1 <0>        -0.0114
      5 C4         -0.8914   -2.3887    2.1940 C.3       1 <0>        -0.1507
      6 C5         -0.9950   -3.8615    2.5951 C.3       1 <0>         0.0609
      7 O1         -0.4452   -4.0391    3.9021 O.3       1 <0>        -0.3065
      8 C6         -0.4595   -5.2979    4.4111 C.ar      1 <0>         0.1651
      9 C7         -0.9928   -6.3439    3.6526 C.ar      1 <0>        -0.2107
     10 C8         -1.0196   -7.6158    4.1389 C.ar      1 <0>        -0.0238
     11 C9         -0.5074   -7.8823    5.4144 C.ar      1 <0>        -0.2178
     12 C10         0.0354   -6.8287    6.1913 C.ar      1 <0>         0.2289
     13 C11         0.0571   -5.5307    5.6679 C.ar      1 <0>        -0.1455
     14 N2          0.5204   -7.1100    7.4103 N.ar      1 <0>        -0.5500
     15 C12         0.4909   -8.3384    7.8707 C.ar      1 <0>         0.3626
     16 N3         -0.0056   -9.3531    7.1820 N.ar      1 <0>        -0.5775
     17 C13        -0.5106   -9.1853    5.9662 C.ar      1 <0>         0.4884
     18 N4         -1.0254  -10.2523    5.2597 N.pl3     1 <0>        -0.5978
     19 C14        -1.0192  -11.5341    5.8239 C.2       1 <0>         0.2990
     20 C15        -0.5280  -11.8736    7.0950 C.2       1 <0>        -0.2355
     21 C16        -0.7031  -13.2037    7.2657 C.2       1 <0>         0.1068
     22 N5         -1.2824  -13.6919    6.1487 N.pl3     1 <0>        -0.4559
     23 H1         -1.5251  -14.6176    5.9907 H         1 <0>         0.4419
     24 N6         -1.4765  -12.6271    5.2595 N.2       1 <0>        -0.3116
     25 C17        -0.3191  -13.9996    8.4864 C.3       1 <0>        -0.0770
     26 C18        -1.4265  -13.9219    9.5056 C.2       1 <0>         0.5143
     27 O2         -2.4289  -13.2831    9.2644 O.2       1 <0>        -0.5002
     28 N7         -1.3030  -14.5622   10.6851 N.am      1 <0>        -0.6720
     29 C19        -2.2828  -14.4064   11.6717 C.ar      1 <0>         0.1711
     30 C20        -1.9219  -14.3818   13.0129 C.ar      1 <0>        -0.1532
     31 C21        -2.8902  -14.2274   13.9854 C.ar      1 <0>        -0.0700
     32 C22        -4.2191  -14.0976   13.6262 C.ar      1 <0>        -0.1667
     33 C23        -4.5833  -14.1215   12.2902 C.ar      1 <0>         0.1178
     34 C24        -3.6165  -14.2702   11.3118 C.ar      1 <0>        -0.1591
     35 F1         -5.8825  -13.9949   11.9421 F         1 <0>        -0.1354
     36 C25        -2.0519   -0.5800   -0.8810 C.3       1 <0>        -0.0098
     37 C26        -3.5535   -0.8247   -0.7191 C.3       1 <0>         0.0446
     38 O3         -4.1050    0.1610    0.1562 O.3       1 <0>        -0.5793
     39 H2          1.1903    1.3917    0.0323 H         1 <0>         0.1072
     40 H3         -0.2944    1.3246   -0.9472 H         1 <0>         0.0804
     41 H4         -0.3955    1.6404    0.8016 H         1 <0>         0.0817
     42 H5          0.4880   -0.9556   -0.5355 H         1 <0>         0.1307
     43 H6          0.5544   -0.6511    1.2170 H         1 <0>         0.1338
     44 H7         -2.5269   -2.5019    0.7965 H         1 <0>         0.1336
     45 H8         -0.9261   -2.8092    0.0814 H         1 <0>         0.1348
     46 H9          0.1556   -2.0854    2.1921 H         1 <0>         0.1011
     47 H10        -1.4452   -1.7781    2.9071 H         1 <0>         0.1012
     48 H11        -2.0419   -4.1648    2.5970 H         1 <0>         0.0752
     49 H12        -0.4411   -4.4721    1.8820 H         1 <0>         0.0757
     50 H13        -1.3888   -6.1408    2.6686 H         1 <0>         0.1349
     51 H14        -1.4346   -8.4154    3.5432 H         1 <0>         0.1334
     52 H15         0.4712   -4.7175    6.2456 H         1 <0>         0.1508
     53 H16         0.8901   -8.5298    8.8558 H         1 <0>         0.2027
     54 H17        -1.3916  -10.1149    4.3721 H         1 <0>         0.4252
     55 H18        -0.0885  -11.1933    7.8093 H         1 <0>         0.1852
     56 H19        -0.1563  -15.0401    8.2054 H         1 <0>         0.1142
     57 H20         0.5968  -13.5910    8.9133 H         1 <0>         0.1312
     58 H21        -0.5348  -15.1312   10.8499 H         1 <0>         0.4166
     59 H22        -0.8844  -14.4838   13.2950 H         1 <0>         0.1350
     60 H23        -2.6091  -14.2084   15.0280 H         1 <0>         0.1399
     61 H24        -4.9744  -13.9777   14.3888 H         1 <0>         0.1383
     62 H25        -3.8995  -14.2849   10.2696 H         1 <0>         0.1494
     63 H26        -1.8848    0.4425   -1.2196 H         1 <0>         0.1421
     64 H27        -1.6474   -1.2765   -1.6154 H         1 <0>         0.1431
     65 H28        -4.0394   -0.7588   -1.6926 H         1 <0>         0.0960
     66 H29        -3.7166   -1.8167   -0.2980 H         1 <0>         0.0707
     67 H30        -5.0389    0.0226    0.3657 H         1 <0>         0.4093
     68 H31        -1.8228   -0.2123    1.1131 H         1 <0>         0.4316
@<TRIPOS>BOND
     1    1    2 1
     2    1   39 1
     3    1   40 1
     4    1   41 1
     5    2    3 1
     6    2   42 1
     7    2   43 1
     8    3    4 1
     9    3   36 1
    10    3   68 1
    11    4    5 1
    12    4   44 1
    13    4   45 1
    14    5    6 1
    15    5   46 1
    16    5   47 1
    17    6    7 1
    18    6   48 1
    19    6   49 1
    20    7    8 1
    21    8   13 ar
    22    8    9 ar
    23    9   10 ar
    24    9   50 1
    25   10   11 ar
    26   10   51 1
    27   11   17 ar
    28   11   12 ar
    29   12   13 ar
    30   12   14 ar
    31   13   52 1
    32   14   15 ar
    33   15   16 ar
    34   15   53 1
    35   16   17 ar
    36   17   18 1
    37   18   19 1
    38   18   54 1
    39   19   24 2
    40   19   20 1
    41   20   21 2
    42   20   55 1
    43   21   22 1
    44   21   25 1
    45   22   23 1
    46   22   24 1
    47   25   26 1
    48   25   56 1
    49   25   57 1
    50   26   27 2
    51   26   28 am
    52   28   29 1
    53   28   58 1
    54   29   34 ar
    55   29   30 ar
    56   30   31 ar
    57   30   59 1
    58   31   32 ar
    59   31   60 1
    60   32   33 ar
    61   32   61 1
    62   33   34 ar
    63   33   35 1
    64   34   62 1
    65   36   37 1
    66   36   63 1
    67   36   64 1
    68   37   38 1
    69   37   65 1
    70   37   66 1
    71   38   67 1
@<TRIPOS>MOLECULE
ZINC16697102
   68    71     0     0     0
SMALL
USER_CHARGES

@<TRIPOS>ATOM
      1 C1          0.1009    1.0895    0.0671 C.3       1 <0>        -0.1880
      2 C2          0.0005   -0.4150    0.3267 C.3       1 <0>        -0.0178
      3 N1         -1.4127   -0.7982    0.4447 N.4       1 <0>        -0.3831
      4 C3         -1.5060   -2.2142    0.8244 C.3       1 <0>        -0.0114
      5 C4         -0.9163   -2.4070    2.2230 C.3       1 <0>        -0.1510
      6 C5         -1.0135   -3.8818    2.6185 C.3       1 <0>         0.0610
      7 O1         -0.4626   -4.0619    3.9247 O.3       1 <0>        -0.3058
      8 C6         -0.4714   -5.3227    4.4290 C.ar      1 <0>         0.1652
      9 C7         -1.0003   -6.3681    3.6667 C.ar      1 <0>        -0.2079
     10 C8         -1.0216   -7.6420    4.1481 C.ar      1 <0>        -0.0271
     11 C9         -0.5079   -7.9111    5.4225 C.ar      1 <0>        -0.2157
     12 C10         0.0306   -6.8581    6.2032 C.ar      1 <0>         0.2279
     13 C11         0.0466   -5.5580    5.6848 C.ar      1 <0>        -0.1434
     14 N2          0.5172   -7.1419    7.4211 N.ar      1 <0>        -0.5462
     15 C12         0.4930   -8.3722    7.8768 C.ar      1 <0>         0.3627
     16 N3          0.0007   -9.3864    7.1844 N.ar      1 <0>        -0.5729
     17 C13        -0.5054   -9.2161    5.9694 C.ar      1 <0>         0.4842
     18 N4         -1.0159  -10.2829    5.2588 N.pl3     1 <0>        -0.6133
     19 C14        -1.0041  -11.5601    5.8152 C.2       1 <0>         0.2975
     20 C15        -0.5278  -11.8985    7.0451 C.2       1 <0>        -0.2522
     21 C16        -0.7053  -13.2747    7.2096 C.2       1 <0>         0.0931
     22 N5         -1.2647  -13.7522    6.1276 N.2       1 <0>        -0.2441
     23 N6         -1.4709  -12.6946    5.2325 N.pl3     1 <0>        -0.4898
     24 H1         -1.8732  -12.7611    4.3523 H         1 <0>         0.4364
     25 C17        -0.3175  -14.0738    8.4270 C.3       1 <0>        -0.0571
     26 C18        -1.5188  -14.8275    8.9368 C.2       1 <0>         0.5153
     27 O2         -2.5849  -14.7257    8.3676 O.2       1 <0>        -0.4982
     28 N7         -1.4084  -15.6146   10.0253 N.am      1 <0>        -0.6749
     29 C19        -2.5443  -16.2321   10.5602 C.ar      1 <0>         0.1739
     30 C20        -2.6655  -16.3952   11.9344 C.ar      1 <0>        -0.1553
     31 C21        -3.7876  -17.0044   12.4607 C.ar      1 <0>        -0.0709
     32 C22        -4.7909  -17.4530   11.6216 C.ar      1 <0>        -0.1690
     33 C23        -4.6742  -17.2924   10.2511 C.ar      1 <0>         0.1173
     34 C24        -3.5547  -16.6775    9.7191 C.ar      1 <0>        -0.1594
     35 F1         -5.6558  -17.7320    9.4336 F         1 <0>        -0.1360
     36 C25        -2.0854   -0.5918   -0.8449 C.3       1 <0>        -0.0099
     37 C26        -3.5858   -0.8435   -0.6835 C.3       1 <0>         0.0446
     38 O3         -4.1414    0.1365    0.1957 O.3       1 <0>        -0.5792
     39 H2          1.1486    1.3904    0.0751 H         1 <0>         0.1074
     40 H3         -0.3361    1.3206   -0.9043 H         1 <0>         0.0805
     41 H4         -0.4380    1.6293    0.8457 H         1 <0>         0.0817
     42 H5          0.4562   -0.9578   -0.5014 H         1 <0>         0.1308
     43 H6          0.5217   -0.6596    1.2522 H         1 <0>         0.1337
     44 H7         -2.5517   -2.5220    0.8255 H         1 <0>         0.1335
     45 H8         -0.9498   -2.8197    0.1089 H         1 <0>         0.1347
     46 H9          0.1294   -2.0993    2.2220 H         1 <0>         0.1014
     47 H10        -1.4725   -1.8015    2.9385 H         1 <0>         0.1015
     48 H11        -2.0591   -4.1896    2.6196 H         1 <0>         0.0752
     49 H12        -0.4572   -4.4873    1.9030 H         1 <0>         0.0757
     50 H13        -1.3975   -6.1630    2.6836 H         1 <0>         0.1354
     51 H14        -1.4333   -8.4411    3.5496 H         1 <0>         0.1313
     52 H15         0.4574   -4.7453    6.2654 H         1 <0>         0.1520
     53 H16         0.8932   -8.5656    8.8611 H         1 <0>         0.2055
     54 H17        -1.3830  -10.1437    4.3718 H         1 <0>         0.4209
     55 H18        -0.0902  -11.2232    7.7655 H         1 <0>         0.1880
     56 H19         0.4693  -14.7803    8.1624 H         1 <0>         0.1181
     57 H20         0.0452  -13.4002    9.2034 H         1 <0>         0.1229
     58 H21        -0.5415  -15.7530   10.4378 H         1 <0>         0.4158
     59 H22        -1.8824  -16.0460   12.5909 H         1 <0>         0.1343
     60 H23        -3.8814  -17.1310   13.5291 H         1 <0>         0.1388
     61 H24        -5.6670  -17.9297   12.0358 H         1 <0>         0.1372
     62 H25        -3.4650  -16.5484    8.6506 H         1 <0>         0.1513
     63 H26        -1.9227    0.4328   -1.1796 H         1 <0>         0.1424
     64 H27        -1.6780   -1.2838   -1.5820 H         1 <0>         0.1432
     65 H28        -4.0723   -0.7760   -1.6566 H         1 <0>         0.0961
     66 H29        -3.7446   -1.8378   -0.2661 H         1 <0>         0.0704
     67 H30        -5.0746   -0.0067    0.4048 H         1 <0>         0.4093
     68 H31        -1.8573   -0.2307    1.1505 H         1 <0>         0.4316
@<TRIPOS>BOND
     1    1    2 1
     2    1   39 1
     3    1   40 1
     4    1   41 1
     5    2    3 1
     6    2   42 1
     7    2   43 1
     8    3    4 1
     9    3   36 1
    10    3   68 1
    11    4    5 1
    12    4   44 1
    13    4   45 1
    14    5    6 1
    15    5   46 1
    16    5   47 1
    17    6    7 1
    18    6   48 1
    19    6   49 1
    20    7    8 1
    21    8   13 ar
    22    8    9 ar
    23    9   10 ar
    24    9   50 1
    25   10   11 ar
    26   10   51 1
    27   11   17 ar
    28   11   12 ar
    29   12   13 ar
    30   12   14 ar
    31   13   52 1
    32   14   15 ar
    33   15   16 ar
    34   15   53 1
    35   16   17 ar
    36   17   18 1
    37   18   19 1
    38   18   54 1
    39   19   23 1
    40   19   20 2
    41   20   21 1
    42   20   55 1
    43   21   22 2
    44   21   25 1
    45   22   23 1
    46   23   24 1
    47   25   26 1
    48   25   56 1
    49   25   57 1
    50   26   27 2
    51   26   28 am
    52   28   29 1
    53   28   58 1
    54   29   34 ar
    55   29   30 ar
    56   30   31 ar
    57   30   59 1
    58   31   32 ar
    59   31   60 1
    60   32   33 ar
    61   32   61 1
    62   33   34 ar
    63   33   35 1
    64   34   62 1
    65   36   37 1
    66   36   63 1
    67   36   64 1
    68   37   38 1
    69   37   65 1
    70   37   66 1
    71   38   67 1
@<TRIPOS>MOLECULE
ZINC06718813
   46    49     0     0     0
SMALL
USER_CHARGES
3-[4-(3-amino-1H-indazol-4-yl)phenyl]-1-(2-fluoro-5-methyl-phenyl)urea
@<TRIPOS>ATOM
      1 C1          6.9492   -0.6708   -4.4566 C.3       1 <0>        -0.1151
      2 C2          7.3188   -0.0066   -3.1554 C.ar      1 <0>        -0.0747
      3 C3          8.6152   -0.0905   -2.6815 C.ar      1 <0>        -0.1060
      4 C4          8.9590    0.5169   -1.4879 C.ar      1 <0>        -0.1295
      5 C5          8.0061    1.2101   -0.7639 C.ar      1 <0>         0.0645
      6 C6          6.7020    1.2957   -1.2387 C.ar      1 <0>         0.1336
      7 C7          6.3607    0.6802   -2.4351 C.ar      1 <0>        -0.0953
      8 N1          5.7336    1.9963   -0.5085 N.am      1 <0>        -0.6783
      9 C8          4.4547    1.5712   -0.5040 C.2       1 <0>         0.7069
     10 O1          4.1265    0.6239   -1.1921 O.2       1 <0>        -0.5500
     11 N2          3.5395    2.1961    0.2631 N.am      1 <0>        -0.6801
     12 C9          2.2409    1.6865    0.3572 C.ar      1 <0>         0.1677
     13 C10         1.1632    2.5541    0.4899 C.ar      1 <0>        -0.1430
     14 C11        -0.1180    2.0545    0.5834 C.ar      1 <0>        -0.0892
     15 C12        -0.3326    0.6766    0.5442 C.ar      1 <0>        -0.0682
     16 C13         0.7509   -0.1919    0.4104 C.ar      1 <0>        -0.0779
     17 C14         2.0300    0.3132    0.3174 C.ar      1 <0>        -0.1142
     18 C15        -1.7083    0.1367    0.6449 C.ar      1 <0>         0.0376
     19 C16        -2.0347   -0.7648    1.6483 C.ar      1 <0>        -0.1557
     20 C17        -3.3230   -1.2675    1.7456 C.ar      1 <0>        -0.0592
     21 C18        -4.2968   -0.8911    0.8473 C.ar      1 <0>        -0.1529
     22 C19        -3.9969    0.0086   -0.1734 C.ar      1 <0>         0.1547
     23 C20        -2.6946    0.5292   -0.2801 C.ar      1 <0>        -0.1858
     24 C21        -2.7034    1.4283   -1.4324 C.2       1 <0>         0.3642
     25 N3         -3.9099    1.4169   -1.9352 N.2       1 <0>        -0.3205
     26 N4         -4.7292    0.5606   -1.1926 N.pl3     1 <0>        -0.5119
     27 H1         -5.6955    0.3797   -1.3759 H         1 <0>         0.4473
     28 N5         -1.6172    2.1667   -1.9108 N.pl3     1 <0>        -0.8360
     29 F1          8.3418    1.8036    0.4023 F         1 <0>        -0.1384
     30 H2          6.6188   -1.6912   -4.2627 H         1 <0>         0.0755
     31 H3          6.1436   -0.1125   -4.9335 H         1 <0>         0.0695
     32 H4          7.8178   -0.6890   -5.1149 H         1 <0>         0.0704
     33 H5          9.3607   -0.6319   -3.2448 H         1 <0>         0.1352
     34 H6          9.9724    0.4496   -1.1204 H         1 <0>         0.1410
     35 H7          5.3477    0.7413   -2.8045 H         1 <0>         0.1523
     36 H8          5.9835    2.7876   -0.0061 H         1 <0>         0.4118
     37 H9          3.7818    2.9993    0.7499 H         1 <0>         0.4106
     38 H10         1.3298    3.6208    0.5203 H         1 <0>         0.1310
     39 H11        -0.9554    2.7293    0.6824 H         1 <0>         0.1315
     40 H12         0.5876   -1.2590    0.3794 H         1 <0>         0.1314
     41 H13         2.8692   -0.3587    0.2138 H         1 <0>         0.1391
     42 H14        -1.2822   -1.0738    2.3586 H         1 <0>         0.1292
     43 H15        -3.5651   -1.9655    2.5334 H         1 <0>         0.1325
     44 H16        -5.2951   -1.2940    0.9345 H         1 <0>         0.1278
     45 H17        -0.7342    2.0309   -1.5329 H         1 <0>         0.4118
     46 H18        -1.7465    2.8151   -2.6206 H         1 <0>         0.4050
@<TRIPOS>BOND
     1    1    2 1
     2    1   30 1
     3    1   31 1
     4    1   32 1
     5    2    7 ar
     6    2    3 ar
     7    3    4 ar
     8    3   33 1
     9    4    5 ar
    10    4   34 1
    11    5    6 ar
    12    5   29 1
    13    6    7 ar
    14    6    8 1
    15    7   35 1
    16    8    9 am
    17    8   36 1
    18    9   10 2
    19    9   11 am
    20   11   12 1
    21   11   37 1
    22   12   17 ar
    23   12   13 ar
    24   13   14 ar
    25   13   38 1
    26   14   15 ar
    27   14   39 1
    28   15   16 ar
    29   15   18 1
    30   16   17 ar
    31   16   40 1
    32   17   41 1
    33   18   23 ar
    34   18   19 ar
    35   19   20 ar
    36   19   42 1
    37   20   21 ar
    38   20   43 1
    39   21   22 ar
    40   21   44 1
    41   22   26 1
    42   22   23 ar
    43   23   24 1
    44   24   25 2
    45   24   28 1
    46   25   26 1
    47   26   27 1
    48   28   45 1
    49   28   46 1
@<TRIPOS>MOLECULE
ZINC29056064
   54    57     0     0     0
SMALL
USER_CHARGES
1-(2,6-dichlorophenyl)-6-[[4-(2-hydroxyethoxy)phenyl]methyl]-3-isopropyl-5H-pyrazolo[3,4-d]pyrimidin-4-one
@<TRIPOS>ATOM
      1 C1          2.3572    8.4917    1.4942 C.3       1 <0>        -0.1430
      2 C2          1.5734    8.5299    0.1807 C.3       1 <0>        -0.0242
      3 C3          2.5502    8.5120   -0.9967 C.3       1 <0>        -0.1426
      4 C4          0.6681    7.3278    0.1008 C.2       1 <0>         0.1688
      5 C5         -0.7348    7.3590   -0.0077 C.2       1 <0>        -0.3390
      6 C6         -1.7365    8.4226   -0.0767 C.2       1 <0>         0.5817
      7 O1         -1.4146    9.5972   -0.0426 O.2       1 <0>        -0.5166
      8 N1         -3.0347    8.0531   -0.1803 N.am      1 <0>        -0.6609
      9 H1         -3.8220    8.8194   -0.2351 H         1 <0>         0.4506
     10 C7         -3.3711    6.7390   -0.2170 C.2       1 <0>         0.4368
     11 N2         -2.4939    5.7801   -0.1572 N.2       1 <0>        -0.5073
     12 C8         -1.1793    6.0279   -0.0529 C.2       1 <0>         0.3607
     13 N3         -0.0688    5.2451    0.0268 N.pl3     1 <0>        -0.3137
     14 N4          1.0510    6.0805    0.1260 N.2       1 <0>        -0.2484
     15 C9         -0.0497    3.8439    0.0174 C.ar      1 <0>         0.1627
     16 C10        -0.7963    3.1310    0.9473 C.ar      1 <0>        -0.0096
     17 C11        -0.7746    1.7489    0.9353 C.ar      1 <0>        -0.0953
     18 C12        -0.0111    1.0759   -0.0007 C.ar      1 <0>        -0.0850
     19 C13         0.7377    1.7821   -0.9240 C.ar      1 <0>        -0.0998
     20 C14         0.7164    3.1643   -0.9216 C.ar      1 <0>        -0.0144
     21 Cl1         1.6508    4.0499   -2.0863 Cl        1 <0>        -0.0314
     22 Cl2        -1.7557    3.9749    2.1224 Cl        1 <0>        -0.0279
     23 C15        -4.8284    6.3733   -0.3330 C.3       1 <0>        -0.0338
     24 C16        -4.9808    4.8776   -0.2304 C.ar      1 <0>        -0.1032
     25 C17        -4.9382    4.0996   -1.3726 C.ar      1 <0>        -0.0545
     26 C18        -5.0719    2.7277   -1.2807 C.ar      1 <0>        -0.2083
     27 C19        -5.2600    2.1317   -0.0421 C.ar      1 <0>         0.1366
     28 C20        -5.3080    2.9151    1.1019 C.ar      1 <0>        -0.1465
     29 C21        -5.1685    4.2861    1.0052 C.ar      1 <0>        -0.0571
     30 O2         -5.3973    0.7828    0.0504 O.3       1 <0>        -0.3063
     31 C22        -5.3375    0.0395   -1.1686 C.3       1 <0>         0.0581
     32 C23        -5.5106   -1.4503   -0.8665 C.3       1 <0>         0.0868
     33 O3         -6.8213   -1.6818   -0.3465 O.3       1 <0>        -0.5962
     34 H2          1.6549    8.5046    2.3407 H         1 <0>         0.0553
     35 H3          3.0179    9.3692    1.5525 H         1 <0>         0.0669
     36 H4          2.9622    7.5739    1.5336 H         1 <0>         0.0624
     37 H5          0.9554    9.4390    0.1401 H         1 <0>         0.1059
     38 H6          1.9867    8.5395   -1.9410 H         1 <0>         0.0548
     39 H7          3.1552    7.5942   -0.9573 H         1 <0>         0.0623
     40 H8          3.2109    9.3895   -0.9383 H         1 <0>         0.0669
     41 H9         -1.3550    1.1941    1.6576 H         1 <0>         0.1493
     42 H10         0.0040   -0.0040   -0.0077 H         1 <0>         0.1497
     43 H11         1.3367    1.2532   -1.6506 H         1 <0>         0.1497
     44 H12        -5.3932    6.8559    0.4782 H         1 <0>         0.1138
     45 H13        -5.2162    6.7156   -1.3038 H         1 <0>         0.1153
     46 H14        -4.7962    4.5644   -2.3371 H         1 <0>         0.1199
     47 H15        -5.0338    2.1199   -2.1726 H         1 <0>         0.1236
     48 H16        -5.4546    2.4535    2.0672 H         1 <0>         0.1272
     49 H17        -5.2059    4.8963    1.8954 H         1 <0>         0.1219
     50 H18        -6.1414    0.3731   -1.8412 H         1 <0>         0.0695
     51 H19        -4.3631    0.2049   -1.6515 H         1 <0>         0.0769
     52 H20        -5.3754   -2.0301   -1.7915 H         1 <0>         0.0645
     53 H21        -4.7612   -1.7635   -0.1246 H         1 <0>         0.0539
     54 H22        -7.1311   -2.7003   -0.0694 H         1 <0>         0.4127
@<TRIPOS>BOND
     1    1    2 1
     2    1   34 1
     3    1   35 1
     4    1   36 1
     5    2    3 1
     6    2    4 1
     7    2   37 1
     8    3   38 1
     9    3   39 1
    10    3   40 1
    11    4   14 2
    12    4    5 1
    13    5   12 2
    14    5    6 1
    15    6    7 2
    16    6    8 am
    17    8    9 1
    18    8   10 1
    19   10   11 2
    20   10   23 1
    21   11   12 1
    22   12   13 1
    23   13   14 1
    24   13   15 1
    25   15   20 ar
    26   15   16 ar
    27   16   17 ar
    28   16   22 1
    29   17   18 ar
    30   17   41 1
    31   18   19 ar
    32   18   42 1
    33   19   20 ar
    34   19   43 1
    35   20   21 1
    36   23   24 1
    37   23   44 1
    38   23   45 1
    39   24   29 ar
    40   24   25 ar
    41   25   26 ar
    42   25   46 1
    43   26   27 ar
    44   26   47 1
    45   27   28 ar
    46   27   30 1
    47   28   29 ar
    48   28   48 1
    49   29   49 1
    50   30   31 1
    51   31   32 1
    52   31   50 1
    53   31   51 1
    54   32   33 1
    55   32   52 1
    56   32   53 1
    57   33   54 1
@<TRIPOS>MOLECULE
ZINC29056064
   53    56     0     0     0
SMALL
USER_CHARGES
1-(2,6-dichlorophenyl)-6-[[4-(2-hydroxyethoxy)phenyl]methyl]-3-isopropyl-5H-pyrazolo[3,4-d]pyrimidin-4-one
@<TRIPOS>ATOM
      1 C1          2.3572    8.4917    1.4942 C.3       1 <0>        -0.1356
      2 C2          1.5734    8.5299    0.1807 C.3       1 <0>        -0.0213
      3 C3          2.5502    8.5120   -0.9967 C.3       1 <0>        -0.1351
      4 C4          0.6681    7.3278    0.1008 C.2       1 <0>         0.1613
      5 C5         -0.7348    7.3590   -0.0077 C.ar      1 <0>        -0.3976
      6 C6         -1.7365    8.4226   -0.0767 C.ar      1 <0>         0.5480
      7 O1         -1.4146    9.5972   -0.0426 O.3       1 <0>        -0.5931
      8 N1         -3.0347    8.0531   -0.1803 N.ar      1 <0>        -0.6810
      9 C7         -3.3711    6.7390   -0.2170 C.ar      1 <0>         0.3959
     10 N2         -2.4939    5.7801   -0.1572 N.ar      1 <0>        -0.6094
     11 C8         -1.1793    6.0279   -0.0529 C.ar      1 <0>         0.3775
     12 N3         -0.0688    5.2451    0.0268 N.pl3     1 <0>        -0.3533
     13 N4          1.0510    6.0805    0.1260 N.2       1 <0>        -0.2964
     14 C9         -0.0497    3.8439    0.0174 C.ar      1 <0>         0.2037
     15 C10        -0.7963    3.1310    0.9473 C.ar      1 <0>        -0.0180
     16 C11        -0.7746    1.7489    0.9353 C.ar      1 <0>        -0.0985
     17 C12        -0.0111    1.0759   -0.0007 C.ar      1 <0>        -0.1076
     18 C13         0.7377    1.7821   -0.9240 C.ar      1 <0>        -0.1050
     19 C14         0.7164    3.1643   -0.9216 C.ar      1 <0>        -0.0276
     20 Cl1         1.6508    4.0499   -2.0863 Cl        1 <0>        -0.0424
     21 Cl2        -1.7557    3.9749    2.1224 Cl        1 <0>        -0.0263
     22 C15        -4.8284    6.3733   -0.3330 C.3       1 <0>        -0.0068
     23 C16        -4.9808    4.8776   -0.2304 C.ar      1 <0>        -0.0676
     24 C17        -4.9382    4.0996   -1.3726 C.ar      1 <0>        -0.0620
     25 C18        -5.0719    2.7277   -1.2807 C.ar      1 <0>        -0.2068
     26 C19        -5.2600    2.1317   -0.0421 C.ar      1 <0>         0.1155
     27 C20        -5.3080    2.9151    1.1019 C.ar      1 <0>        -0.1459
     28 C21        -5.1685    4.2861    1.0052 C.ar      1 <0>        -0.0628
     29 O2         -5.3973    0.7828    0.0504 O.3       1 <0>        -0.3112
     30 C22        -5.3375    0.0395   -1.1686 C.3       1 <0>         0.0597
     31 C23        -5.5106   -1.4503   -0.8665 C.3       1 <0>         0.0880
     32 O3         -6.8213   -1.6818   -0.3465 O.3       1 <0>        -0.5941
     33 H1          1.6549    8.5046    2.3407 H         1 <0>         0.0521
     34 H2          3.0179    9.3692    1.5525 H         1 <0>         0.0550
     35 H3          2.9622    7.5739    1.5336 H         1 <0>         0.0557
     36 H4          0.9554    9.4390    0.1401 H         1 <0>         0.1043
     37 H5          1.9867    8.5395   -1.9410 H         1 <0>         0.0515
     38 H6          3.1552    7.5942   -0.9573 H         1 <0>         0.0557
     39 H7          3.2109    9.3895   -0.9383 H         1 <0>         0.0549
     40 H8         -1.3550    1.1941    1.6576 H         1 <0>         0.1399
     41 H9          0.0040   -0.0040   -0.0077 H         1 <0>         0.1392
     42 H10         1.3367    1.2532   -1.6506 H         1 <0>         0.1392
     43 H11        -5.3932    6.8559    0.4782 H         1 <0>         0.0898
     44 H12        -5.2162    6.7156   -1.3038 H         1 <0>         0.0884
     45 H13        -4.7962    4.5644   -2.3371 H         1 <0>         0.1156
     46 H14        -5.0338    2.1199   -2.1726 H         1 <0>         0.1160
     47 H15        -5.4546    2.4535    2.0672 H         1 <0>         0.1195
     48 H16        -5.2059    4.8963    1.8954 H         1 <0>         0.1181
     49 H17        -6.1414    0.3731   -1.8412 H         1 <0>         0.0656
     50 H18        -4.3631    0.2049   -1.6515 H         1 <0>         0.0750
     51 H19        -5.3754   -2.0301   -1.7915 H         1 <0>         0.0608
     52 H20        -4.7612   -1.7635   -0.1246 H         1 <0>         0.0528
     53 H21        -7.1311   -2.7003   -0.0694 H         1 <0>         0.4068
@<TRIPOS>BOND
     1    1    2 1
     2    1   33 1
     3    1   34 1
     4    1   35 1
     5    2    3 1
     6    2    4 1
     7    2   36 1
     8    3   37 1
     9    3   38 1
    10    3   39 1
    11    4   13 2
    12    4    5 1
    13    5   11 ar
    14    5    6 ar
    15    6    7 1
    16    6    8 ar
    17    8    9 ar
    18    9   10 ar
    19    9   22 1
    20   10   11 ar
    21   11   12 1
    22   12   13 1
    23   12   14 1
    24   14   19 ar
    25   14   15 ar
    26   15   16 ar
    27   15   21 1
    28   16   17 ar
    29   16   40 1
    30   17   18 ar
    31   17   41 1
    32   18   19 ar
    33   18   42 1
    34   19   20 1
    35   22   23 1
    36   22   43 1
    37   22   44 1
    38   23   28 ar
    39   23   24 ar
    40   24   25 ar
    41   24   45 1
    42   25   26 ar
    43   25   46 1
    44   26   27 ar
    45   26   29 1
    46   27   28 ar
    47   27   47 1
    48   28   48 1
    49   29   30 1
    50   30   31 1
    51   30   49 1
    52   30   50 1
    53   31   32 1
    54   31   51 1
    55   31   52 1
    56   32   53 1
@<TRIPOS>MOLECULE
ZINC03816409
   50    52     0     0     0
SMALL
USER_CHARGES
N-[5-[(5-tert-butyloxazol-2-yl)methylsulfanyl]thiazol-2-yl]piperidine-4-carboxamide
@<TRIPOS>ATOM
      1 C1         -0.0127    1.0858    0.0080 C.3       1 <0>        -0.1425
      2 C2         -0.7288    1.5792    1.2668 C.3       1 <0>         0.0153
      3 C3          0.0111    1.0724    2.5063 C.3       1 <0>        -0.1429
      4 C4         -0.7496    3.1091    1.2752 C.3       1 <0>        -0.1470
      5 C5         -2.1426    1.0576    1.2775 C.2       1 <0>        -0.0059
      6 C6         -2.5173   -0.2324    1.2742 C.2       1 <0>        -0.0384
      7 N1         -3.8616   -0.2670    1.2868 N.2       1 <0>        -0.4461
      8 C7         -4.3108    0.9556    1.2976 C.2       1 <0>         0.1754
      9 O1         -3.2687    1.7975    1.2981 O.3       1 <0>        -0.1872
     10 C8         -5.7633    1.3568    1.3132 C.3       1 <0>        -0.0274
     11 S1         -6.3302    1.5091    3.0296 S.3       1 <0>         0.0531
     12 C9         -8.0223    1.9770    2.8797 C.2       1 <0>        -0.2079
     13 C10        -8.9445    2.2293    3.8504 C.2       1 <0>         0.0730
     14 N2        -10.1733    2.5704    3.5096 N.2       1 <0>        -0.4781
     15 C11       -10.5307    2.6731    2.2430 C.2       1 <0>         0.3098
     16 S2         -9.0031    2.2599    1.4114 S.3       1 <0>         0.0397
     17 N3        -11.7659    3.0158    1.7000 N.am      1 <0>        -0.6146
     18 C12       -12.8034    3.3002    2.5119 C.2       1 <0>         0.5107
     19 O2        -12.6609    3.2576    3.7157 O.2       1 <0>        -0.4551
     20 C13       -14.1405    3.6713    1.9241 C.3       1 <0>        -0.1149
     21 C14       -13.9915    4.9332    1.0698 C.3       1 <0>        -0.1461
     22 C15       -15.3628    5.3397    0.5255 C.3       1 <0>         0.0009
     23 C16       -16.4761    4.3789    2.4515 C.3       1 <0>        -0.0009
     24 C17       -15.1380    3.9438    3.0534 C.3       1 <0>        -0.1323
     25 H1          0.0021   -0.0041    0.0020 H         1 <0>         0.0648
     26 H2          1.0099    1.4631    0.0003 H         1 <0>         0.0750
     27 H3         -0.5399    1.4469   -0.8751 H         1 <0>         0.0608
     28 H4          1.0337    1.4497    2.4986 H         1 <0>         0.0751
     29 H5         -0.4990    1.4239    3.4031 H         1 <0>         0.0616
     30 H6          0.0259   -0.0175    2.5003 H         1 <0>         0.0649
     31 H7         -1.2768    3.4701    0.3922 H         1 <0>         0.0605
     32 H8         -1.2598    3.4606    2.1720 H         1 <0>         0.0616
     33 H9          0.2730    3.4864    1.2675 H         1 <0>         0.0706
     34 H10        -1.8578   -1.0876    1.2633 H         1 <0>         0.1891
     35 H11        -5.8813    2.3140    0.8053 H         1 <0>         0.1204
     36 H12        -6.3553    0.5983    0.8010 H         1 <0>         0.1329
     37 H13        -8.6718    2.1504    4.8925 H         1 <0>         0.1794
     38 H14       -11.8799    3.0499    0.7373 H         1 <0>         0.4267
     39 H15       -14.5061    2.8521    1.3049 H         1 <0>         0.1234
     40 H16       -13.5885    5.7409    1.6809 H         1 <0>         0.0995
     41 H17       -13.3151    4.7324    0.2390 H         1 <0>         0.1172
     42 H18       -15.7590    4.5372   -0.0967 H         1 <0>         0.1349
     43 H19       -15.2623    6.2461   -0.0715 H         1 <0>         0.1387
     44 H20       -16.8671    3.5809    1.8204 H         1 <0>         0.1334
     45 H21       -17.1842    4.5877    3.2534 H         1 <0>         0.1392
     46 H22       -15.2808    3.0361    3.6398 H         1 <0>         0.1229
     47 H23       -14.7528    4.7354    3.6961 H         1 <0>         0.1008
     48 N4        -16.2857    5.6006    1.6466 N.4       1 <0>        -0.5187
     49 H24       -17.1928    5.9050    1.2741 H         1 <0>         0.4395
     50 H25       -15.8944    6.3401    2.2417 H         1 <0>         0.4347
@<TRIPOS>BOND
     1    1    2 1
     2    1   25 1
     3    1   26 1
     4    1   27 1
     5    2    3 1
     6    2    4 1
     7    2    5 1
     8    3   28 1
     9    3   29 1
    10    3   30 1
    11    4   31 1
    12    4   32 1
    13    4   33 1
    14    5    9 1
    15    5    6 2
    16    6    7 1
    17    6   34 1
    18    7    8 2
    19    8    9 1
    20    8   10 1
    21   10   11 1
    22   10   35 1
    23   10   36 1
    24   11   12 1
    25   12   16 1
    26   12   13 2
    27   13   14 1
    28   13   37 1
    29   14   15 2
    30   15   16 1
    31   15   17 1
    32   17   18 am
    33   17   38 1
    34   18   19 2
    35   18   20 1
    36   20   24 1
    37   20   21 1
    38   20   39 1
    39   21   22 1
    40   21   40 1
    41   21   41 1
    42   22   42 1
    43   22   43 1
    44   22   48 1
    45   23   24 1
    46   23   44 1
    47   23   45 1
    48   23   48 1
    49   24   46 1
    50   24   47 1
    51   48   49 1
    52   48   50 1
@<TRIPOS>MOLECULE
ZINC02047389
   35    37     0     0     0
SMALL
USER_CHARGES
4-(2-amino-4-methyl-thiazol-5-yl)-N-(3-nitrophenyl)-pyrimidin-2-amine
@<TRIPOS>ATOM
      1 C1         -0.3352    9.7451    0.3855 C.3       1 <0>        -0.0905
      2 C2          1.0683   10.2863    0.4765 C.2       1 <0>         0.1892
      3 C3          2.1516    9.4456    0.4437 C.2       1 <0>        -0.2443
      4 S1          3.4879   10.6229    0.5913 S.3       1 <0>         0.0803
      5 C4          2.5163   12.0599    0.6693 C.2       1 <0>         0.3677
      6 N1          1.2883   11.5754    0.5891 N.2       1 <0>        -0.5897
      7 N2          2.9227   13.3752    0.7905 N.pl3     1 <0>        -0.7863
      8 C5          2.1999    7.9776    0.3258 C.ar      1 <0>         0.3332
      9 C6          3.4297    7.3038    0.3117 C.ar      1 <0>        -0.2707
     10 C7          3.4239    5.9278    0.2000 C.ar      1 <0>         0.2012
     11 N3          2.2663    5.2881    0.1154 N.ar      1 <0>        -0.5701
     12 C8          1.1176    5.9489    0.1256 C.ar      1 <0>         0.5646
     13 N4          1.0742    7.2675    0.2311 N.ar      1 <0>        -0.5547
     14 N5         -0.0691    5.2405    0.0290 N.pl3     1 <0>        -0.6363
     15 C9         -0.0510    3.8425    0.0333 C.ar      1 <0>         0.1760
     16 C10        -0.9835    3.1319   -0.7120 C.ar      1 <0>        -0.1004
     17 C11        -0.9631    1.7513   -0.7052 C.ar      1 <0>        -0.0922
     18 C12        -0.0158    1.0757    0.0425 C.ar      1 <0>        -0.0777
     19 C13         0.9104    1.7799    0.7896 C.ar      1 <0>        -0.0222
     20 C14         0.8989    3.1611    0.7830 C.ar      1 <0>        -0.0570
     21 N6          1.9186    1.0527    1.5932 N.pl3     1 <0>         0.0280
     22 O1          1.9320   -0.1652    1.5961 O.2       1 <0>        -0.1580
     23 O2          2.7348    1.6723    2.2515 O.3       1 <0>        -0.1552
     24 H1         -0.7077    9.5307    1.3872 H         1 <0>         0.0791
     25 H2         -0.9794   10.4840   -0.0912 H         1 <0>         0.0712
     26 H3         -0.3338    8.8291   -0.2054 H         1 <0>         0.0997
     27 H4          2.2629   14.0853    0.8267 H         1 <0>         0.4203
     28 H5          3.8677   13.5883    0.8394 H         1 <0>         0.4243
     29 H6          4.3593    7.8485    0.3862 H         1 <0>         0.1461
     30 H7          4.3533    5.3778    0.1861 H         1 <0>         0.1761
     31 H8         -0.9125    5.7144   -0.0416 H         1 <0>         0.4300
     32 H9         -1.7237    3.6588   -1.2958 H         1 <0>         0.1460
     33 H10        -1.6880    1.1983   -1.2841 H         1 <0>         0.1526
     34 H11        -0.0023   -0.0042    0.0464 H         1 <0>         0.1544
     35 H12         1.6253    3.7105    1.3635 H         1 <0>         0.1650
@<TRIPOS>BOND
     1    1    2 1
     2    1   24 1
     3    1   25 1
     4    1   26 1
     5    2    6 1
     6    2    3 2
     7    3    4 1
     8    3    8 1
     9    4    5 1
    10    5    6 2
    11    5    7 1
    12    7   27 1
    13    7   28 1
    14    8   13 ar
    15    8    9 ar
    16    9   10 ar
    17    9   29 1
    18   10   11 ar
    19   10   30 1
    20   11   12 ar
    21   12   13 ar
    22   12   14 1
    23   14   15 1
    24   14   31 1
    25   15   20 ar
    26   15   16 ar
    27   16   17 ar
    28   16   32 1
    29   17   18 ar
    30   17   33 1
    31   18   19 ar
    32   18   34 1
    33   19   20 ar
    34   19   21 1
    35   20   35 1
    36   21   22 2
    37   21   23 1
@<TRIPOS>MOLECULE
ZINC14949271
   58    63     0     0     0
SMALL
USER_CHARGES

@<TRIPOS>ATOM
      1 C1         -0.0167    1.3837    0.0096 C.ar      1 <0>        -0.0864
      2 C2          1.1589    2.1033    0.0023 C.ar      1 <0>        -0.1134
      3 C3          2.3783    1.4352   -0.0130 C.ar      1 <0>         0.1332
      4 C4          2.3928    0.0270   -0.0207 C.ar      1 <0>        -0.1099
      5 C5          1.1883   -0.6821   -0.0130 C.ar      1 <0>        -0.0281
      6 C6          0.0021   -0.0041    0.0020 C.ar      1 <0>        -0.1875
      7 C7         -1.2962   -0.7693    0.0103 C.3       1 <0>         0.0496
      8 N1         -1.7313   -1.0105   -1.3719 N.4       1 <0>        -0.3817
      9 C8         -2.0309    0.2721   -2.0198 C.3       1 <0>        -0.0119
     10 C9         -2.4066    0.0328   -3.4837 C.3       1 <0>        -0.1450
     11 C10        -3.6396   -0.8732   -3.5471 C.3       1 <0>        -0.1390
     12 C11        -3.3405   -2.1784   -2.8039 C.3       1 <0>        -0.1462
     13 C12        -2.9302   -1.8572   -1.3651 C.3       1 <0>        -0.0074
     14 C13         3.7999   -0.3686   -0.0367 C.2       1 <0>        -0.1486
     15 C14         4.5321    0.7741   -0.0378 C.2       1 <0>         0.1667
     16 N2          3.6887    1.8615   -0.0236 N.pl3     1 <0>        -0.5758
     17 H1          3.9737    2.7886   -0.0217 H         1 <0>         0.4245
     18 C15         6.0075    0.8405   -0.0511 C.2       1 <0>         0.1322
     19 C16         6.8242    1.8551   -0.7279 C.ar      1 <0>        -0.1584
     20 C17         6.5225    2.9777   -1.5043 C.ar      1 <0>        -0.0490
     21 C18         7.5281    3.7467   -2.0090 C.ar      1 <0>        -0.1242
     22 C19         8.8658    3.4211   -1.7565 C.ar      1 <0>         0.0481
     23 C20         9.1844    2.3108   -0.9887 C.ar      1 <0>        -0.1030
     24 C21         8.1657    1.5193   -0.4677 C.ar      1 <0>         0.1331
     25 N3          8.1516    0.3871    0.3077 N.pl3     1 <0>        -0.4911
     26 H2          8.9368   -0.0742    0.6418 H         1 <0>         0.4495
     27 N4          6.8272    0.0061    0.5450 N.2       1 <0>        -0.2036
     28 C22         9.9495    4.2685   -2.3139 C.2       1 <0>         0.0509
     29 C23         9.9550    4.9372   -3.5519 C.2       1 <0>         0.0222
     30 N5         11.1102    5.5565   -3.6181 N.2       1 <0>        -0.2567
     31 N6         11.7755    5.3155   -2.5450 N.pl3     1 <0>        -0.2337
     32 N7         11.1088    4.5575   -1.7486 N.2       1 <0>        -0.2641
     33 H3         12.6618    5.6631   -2.3587 H         1 <0>         0.4760
     34 C24         8.8608    4.9410   -4.5881 C.3       1 <0>         0.1618
     35 O1          7.9667    6.0261   -4.3326 O.3       1 <0>        -0.5649
     36 H4         -0.9624    1.9052    0.0260 H         1 <0>         0.1334
     37 H5          1.1330    3.1830    0.0080 H         1 <0>         0.1346
     38 H6          1.1952   -1.7620   -0.0192 H         1 <0>         0.1327
     39 H7         -1.1524   -1.7232    0.5177 H         1 <0>         0.1345
     40 H8         -2.0561   -0.1898    0.5346 H         1 <0>         0.1334
     41 H9         -2.8631    0.7528   -1.5055 H         1 <0>         0.1263
     42 H10        -1.1535    0.9170   -1.9711 H         1 <0>         0.1326
     43 H11        -2.6304    0.9861   -3.9625 H         1 <0>         0.1097
     44 H12        -1.5749   -0.4477   -3.9991 H         1 <0>         0.0861
     45 H13        -4.4852   -0.3715   -3.0767 H         1 <0>         0.0811
     46 H14        -3.8775   -1.0928   -4.5879 H         1 <0>         0.0924
     47 H15        -4.2319   -2.8057   -2.7968 H         1 <0>         0.1108
     48 H16        -2.5283   -2.7048   -3.3051 H         1 <0>         0.0868
     49 H17        -2.7168   -2.7843   -0.8331 H         1 <0>         0.1294
     50 H18        -3.7432   -1.3311   -0.8648 H         1 <0>         0.1278
     51 H19         4.1837   -1.3781   -0.0457 H         1 <0>         0.1603
     52 H20         5.4929    3.2353   -1.7043 H         1 <0>         0.1268
     53 H21         7.2912    4.6133   -2.6084 H         1 <0>         0.1472
     54 H22        10.2176    2.0620   -0.7964 H         1 <0>         0.1386
     55 H23         9.2993    5.0572   -5.5792 H         1 <0>         0.0720
     56 H24         8.3128    4.0000   -4.5412 H         1 <0>         0.0748
     57 H25         7.2356    6.0900   -4.9624 H         1 <0>         0.3892
     58 H26        -0.9941   -1.4770   -1.8789 H         1 <0>         0.4211
@<TRIPOS>BOND
     1    1    6 ar
     2    1    2 ar
     3    1   36 1
     4    2    3 ar
     5    2   37 1
     6    3   16 1
     7    3    4 ar
     8    4    5 ar
     9    4   14 1
    10    5    6 ar
    11    5   38 1
    12    6    7 1
    13    7    8 1
    14    7   39 1
    15    7   40 1
    16    8   13 1
    17    8    9 1
    18    8   58 1
    19    9   10 1
    20    9   41 1
    21    9   42 1
    22   10   11 1
    23   10   43 1
    24   10   44 1
    25   11   12 1
    26   11   45 1
    27   11   46 1
    28   12   13 1
    29   12   47 1
    30   12   48 1
    31   13   49 1
    32   13   50 1
    33   14   15 2
    34   14   51 1
    35   15   16 1
    36   15   18 1
    37   16   17 1
    38   18   27 2
    39   18   19 1
    40   19   24 ar
    41   19   20 ar
    42   20   21 ar
    43   20   52 1
    44   21   22 ar
    45   21   53 1
    46   22   23 ar
    47   22   28 1
    48   23   24 ar
    49   23   54 1
    50   24   25 1
    51   25   26 1
    52   25   27 1
    53   28   29 1
    54   28   32 2
    55   29   30 2
    56   29   34 1
    57   30   31 1
    58   31   33 1
    59   31   32 1
    60   34   35 1
    61   34   55 1
    62   34   56 1
    63   35   57 1
@<TRIPOS>MOLECULE
ZINC14949271
   59    64     0     0     0
SMALL
USER_CHARGES

@<TRIPOS>ATOM
      1 C1         -0.0168    1.3900    0.0097 C.ar      1 <0>        -0.0608
      2 C2          1.1285    2.1222    0.0027 C.ar      1 <0>        -0.1113
      3 C3          2.3737    1.4670   -0.0127 C.ar      1 <0>         0.1382
      4 N1          3.6383    1.8759   -0.0230 N.pl3     1 <0>        -0.4991
      5 C4          4.4713    0.8250   -0.0368 C.2       1 <0>         0.0288
      6 C5          5.9310    0.9116   -0.0500 C.2       1 <0>         0.3442
      7 C6          6.7269    2.1374   -0.0450 C.ar      1 <0>        -0.1770
      8 C7          6.3957    3.4983   -0.0289 C.ar      1 <0>        -0.0207
      9 C8          7.3825    4.4389   -0.0289 C.ar      1 <0>        -0.1142
     10 C9          8.7280    4.0539   -0.0455 C.ar      1 <0>         0.1259
     11 C10         9.0747    2.7053   -0.0617 C.ar      1 <0>        -0.1136
     12 C11         8.0817    1.7405   -0.0613 C.ar      1 <0>         0.2169
     13 N2          8.1113    0.3570   -0.0754 N.pl3     1 <0>        -0.4485
     14 N3          6.8019   -0.1345   -0.0632 N.pl3     1 <0>        -0.3621
     15 C12         9.7898    5.0874   -0.0463 C.2       1 <0>        -0.0263
     16 C13         9.7481    6.3075   -0.6615 C.2       1 <0>         0.0349
     17 N4         10.9303    6.9023   -0.3911 N.pl3     1 <0>        -0.3586
     18 N5         11.6341    6.1044    0.3320 N.2       1 <0>        -0.0476
     19 H1         11.2029    7.7832   -0.6920 H         1 <0>         0.4653
     20 N6         10.9878    5.0168    0.5635 N.2       1 <0>        -0.2320
     21 C14         8.6139    6.8735   -1.4765 C.3       1 <0>         0.1408
     22 O1          8.9676    8.1766   -1.9444 O.3       1 <0>        -0.5714
     23 C15         3.7386   -0.3654   -0.0359 C.2       1 <0>        -0.0711
     24 C16         2.3907   -0.0024   -0.0207 C.ar      1 <0>        -0.1307
     25 C17         1.1708   -0.6995   -0.0130 C.ar      1 <0>        -0.0095
     26 C18         0.0021   -0.0041    0.0020 C.ar      1 <0>        -0.1729
     27 C19        -1.3028   -0.7579    0.0104 C.3       1 <0>         0.0420
     28 N7         -1.7400   -0.9953   -1.3718 N.4       1 <0>        -0.3819
     29 C20        -2.0284    0.2897   -2.0198 C.3       1 <0>        -0.0124
     30 C21        -2.4061    0.0536   -3.4838 C.3       1 <0>        -0.1448
     31 C22        -3.6470   -0.8416   -3.5470 C.3       1 <0>        -0.1409
     32 C23        -3.3594   -2.1492   -2.8037 C.3       1 <0>        -0.1465
     33 C24        -2.9463   -1.8315   -1.3650 C.3       1 <0>        -0.0080
     34 H2         -0.9675    1.9022    0.0261 H         1 <0>         0.1437
     35 H3          1.0830    3.2013    0.0085 H         1 <0>         0.1465
     36 H4          5.3594    3.8022   -0.0167 H         1 <0>         0.1404
     37 H5          7.1243    5.4875   -0.0164 H         1 <0>         0.1589
     38 H6         10.1144    2.4130   -0.0744 H         1 <0>         0.1655
     39 H7          8.9145   -0.1867   -0.0886 H         1 <0>         0.4775
     40 H8          6.5537   -1.0722   -0.0655 H         1 <0>         0.4776
     41 H9          8.4183    6.2222   -2.3284 H         1 <0>         0.0851
     42 H10         7.7194    6.9402   -0.8572 H         1 <0>         0.0827
     43 H11         8.2824    8.6024   -2.4776 H         1 <0>         0.4055
     44 H12         4.1370   -1.3692   -0.0455 H         1 <0>         0.1711
     45 H13         1.1613   -1.7795   -0.0191 H         1 <0>         0.1441
     46 H14        -1.1674   -1.7130    0.5178 H         1 <0>         0.1395
     47 H15        -2.0577   -0.1717    0.5346 H         1 <0>         0.1396
     48 H16        -2.8563    0.7778   -1.5056 H         1 <0>         0.1297
     49 H17        -1.1454    0.9269   -1.9711 H         1 <0>         0.1281
     50 H18        -2.6216    1.0088   -3.9626 H         1 <0>         0.1117
     51 H19        -1.5787   -0.4342   -3.9991 H         1 <0>         0.0855
     52 H20        -4.4882   -0.3324   -3.0767 H         1 <0>         0.0833
     53 H21        -3.8868   -1.0591   -4.5879 H         1 <0>         0.0952
     54 H22        -4.2563   -2.7687   -2.7966 H         1 <0>         0.1143
     55 H23        -2.5518   -2.6828   -3.3049 H         1 <0>         0.0869
     56 H24        -2.7410   -2.7604   -0.8329 H         1 <0>         0.1314
     57 H25        -3.7547   -1.2983   -0.8647 H         1 <0>         0.1307
     58 H26         3.9194    2.8042   -0.0211 H         1 <0>         0.4300
     59 H27        -1.0070   -1.4684   -1.8788 H         1 <0>         0.4202
@<TRIPOS>BOND
     1    1   26 ar
     2    1    2 ar
     3    1   34 1
     4    2    3 ar
     5    2   35 1
     6    3   24 ar
     7    3    4 2
     8    4    5 1
     9    4   58 1
    10    5    6 2
    11    5   23 1
    12    6   14 1
    13    6    7 1
    14    7   12 ar
    15    7    8 ar
    16    8    9 ar
    17    8   36 1
    18    9   10 ar
    19    9   37 1
    20   10   11 ar
    21   10   15 1
    22   11   12 ar
    23   11   38 1
    24   12   13 1
    25   13   14 1
    26   13   39 1
    27   14   40 1
    28   15   16 2
    29   15   20 1
    30   16   21 1
    31   16   17 1
    32   17   19 1
    33   17   18 1
    34   18   20 2
    35   21   22 1
    36   21   41 1
    37   21   42 1
    38   22   43 1
    39   23   24 2
    40   23   44 1
    41   24   25 ar
    42   25   26 ar
    43   25   45 1
    44   26   27 1
    45   27   28 1
    46   27   46 1
    47   27   47 1
    48   28   33 1
    49   28   29 1
    50   28   59 1
    51   29   30 1
    52   29   48 1
    53   29   49 1
    54   30   31 1
    55   30   50 1
    56   30   51 1
    57   31   32 1
    58   31   52 1
    59   31   53 1
    60   32   33 1
    61   32   54 1
    62   32   55 1
    63   33   56 1
    64   33   57 1
@<TRIPOS>MOLECULE
ZINC21288966
   49    52     0     0     0
SMALL
USER_CHARGES
2-(2-chlorophenyl)-5,7-dihydroxy-8-[(3S,4R)-3-hydroxy-1-methyl-4-piperidyl]chromen-4-one
@<TRIPOS>ATOM
      1 C1          6.0895   -0.0238    5.9621 C.3       1 <0>        -0.0460
      2 N1          6.1756    1.0472    4.9603 N.4       1 <0>        -0.3934
      3 C2          5.9739    0.5180    3.6055 C.3       1 <0>        -0.0028
      4 C3          6.2126    1.6289    2.5802 C.3       1 <0>        -0.1464
      5 C4          5.2418    2.7821    2.8491 C.3       1 <0>        -0.0180
      6 H1          4.2050    2.4431    2.7074 H         1 <0>         0.1039
      7 C5          5.4391    3.2830    4.2825 C.3       1 <0>         0.1015
      8 H2          4.7709    4.1271    4.5084 H         1 <0>         0.0941
      9 C6          5.2218    2.1236    5.2574 C.3       1 <0>        -0.0361
     10 O1          6.7669    3.7898    4.4323 O.3       1 <0>        -0.5639
     11 C7          5.5132    3.9050    1.8814 C.ar      1 <0>        -0.2158
     12 C8          6.8017    4.3949    1.7322 C.ar      1 <0>         0.2946
     13 C9          7.0678    5.4304    0.8434 C.ar      1 <0>        -0.3049
     14 C10         6.0448    5.9841    0.0956 C.ar      1 <0>         0.3111
     15 C11         4.7411    5.4942    0.2412 C.ar      1 <0>        -0.3649
     16 C12         4.4748    4.4470    1.1407 C.ar      1 <0>         0.2362
     17 O2          3.2147    3.9814    1.2730 O.3       1 <0>        -0.2171
     18 C13         2.1871    4.4838    0.5705 C.2       1 <0>         0.1982
     19 C14         2.3394    5.4926   -0.3277 C.2       1 <0>        -0.2780
     20 C15         3.6225    6.0546   -0.5353 C.2       1 <0>         0.4382
     21 O3          3.7953    6.9641   -1.3304 O.2       1 <0>        -0.4786
     22 C16         0.8407    3.9147    0.7769 C.ar      1 <0>        -0.0680
     23 C17         0.6478    2.5322    0.7263 C.ar      1 <0>        -0.0708
     24 C18        -0.6124    2.0073    0.9205 C.ar      1 <0>        -0.1159
     25 C19        -1.6867    2.8467    1.1599 C.ar      1 <0>        -0.0780
     26 C20        -1.5036    4.2164    1.2169 C.ar      1 <0>        -0.1066
     27 C21        -0.2472    4.7566    1.0243 C.ar      1 <0>        -0.0057
     28 Cl1        -0.0199    6.4765    1.0889 Cl        1 <0>        -0.0424
     29 O4          6.3024    6.9947   -0.7728 O.3       1 <0>        -0.4999
     30 O5          7.8133    3.8585    2.4614 O.3       1 <0>        -0.4665
     31 H3          6.8128   -0.8151    5.7159 H         1 <0>         0.1242
     32 H4          5.0728   -0.4438    5.9634 H         1 <0>         0.1169
     33 H5          6.3184    0.3856    6.9571 H         1 <0>         0.1225
     34 H6          6.6809   -0.3050    3.4243 H         1 <0>         0.1308
     35 H7          4.9438    0.1448    3.5072 H         1 <0>         0.1211
     36 H8          7.2477    1.9910    2.6662 H         1 <0>         0.1216
     37 H9          6.0450    1.2349    1.5669 H         1 <0>         0.1057
     38 H10         4.1951    1.7434    5.1512 H         1 <0>         0.1298
     39 H11         5.3771    2.4772    6.2874 H         1 <0>         0.1312
     40 H12         7.0946    4.1958    5.4007 H         1 <0>         0.4106
     41 H13         8.0758    5.8030    0.7365 H         1 <0>         0.1471
     42 H14         1.4871    5.8659   -0.8759 H         1 <0>         0.1670
     43 H15         1.4839    1.8757    0.5352 H         1 <0>         0.1384
     44 H16        -0.7625    0.9385    0.8812 H         1 <0>         0.1407
     45 H17        -2.6721    2.4298    1.3071 H         1 <0>         0.1438
     46 H18        -2.3456    4.8651    1.4082 H         1 <0>         0.1476
     47 H19         5.4855    7.4321   -1.3656 H         1 <0>         0.4556
     48 H20         8.8375    4.2431    2.3473 H         1 <0>         0.4397
     49 H21         7.1882    1.4744    5.0059 H         1 <0>         0.4481
@<TRIPOS>BOND
     1    1    2 1
     2    1   31 1
     3    1   32 1
     4    1   33 1
     5    2    9 1
     6    2    3 1
     7    2   49 1
     8    3    4 1
     9    3   34 1
    10    3   35 1
    11    4    5 1
    12    4   36 1
    13    4   37 1
    14    5    6 1
    15    5    7 1
    16    5   11 1
    17    7    8 1
    18    7    9 1
    19    7   10 1
    20    9   38 1
    21    9   39 1
    22   10   40 1
    23   11   16 ar
    24   11   12 ar
    25   12   13 ar
    26   12   30 1
    27   13   14 ar
    28   13   41 1
    29   14   15 ar
    30   14   29 1
    31   15   20 1
    32   15   16 ar
    33   16   17 1
    34   17   18 1
    35   18   19 2
    36   18   22 1
    37   19   20 1
    38   19   42 1
    39   20   21 2
    40   22   27 ar
    41   22   23 ar
    42   23   24 ar
    43   23   43 1
    44   24   25 ar
    45   24   44 1
    46   25   26 ar
    47   25   45 1
    48   26   27 ar
    49   26   46 1
    50   27   28 1
    51   29   47 1
    52   30   48 1
@<TRIPOS>MOLECULE
ZINC34285231
   52    54     0     0     0
SMALL
USER_CHARGES

@<TRIPOS>ATOM
      1 C1         -0.0187    1.5258    0.0104 C.3       1 <0>        -0.1545
      2 C2          0.0021   -0.0041    0.0020 C.3       1 <0>        -0.1280
      3 C3         -1.4333   -0.5336    0.0129 C.3       1 <0>         0.1630
      4 H1         -1.9701   -0.1109    0.8621 H         1 <0>         0.1040
      5 C4         -1.4133   -2.0590    0.1302 C.3       1 <0>         0.0627
      6 O1         -0.6117   -2.6069   -0.9183 O.3       1 <0>        -0.5682
      7 N1         -2.1054   -0.1483   -1.2305 N.pl3     1 <0>        -0.6685
      8 C5         -3.4818   -0.0368   -1.2657 C.2       1 <0>         0.6288
      9 N2         -4.0765    0.3062   -2.3943 N.2       1 <0>        -0.6023
     10 C6         -5.4147    0.4181   -2.4417 C.2       1 <0>         0.3487
     11 C7         -6.3090    0.7497   -3.4432 C.2       1 <0>        -0.2518
     12 C8         -7.5879    0.7004   -2.8982 C.2       1 <0>         0.1207
     13 N3         -7.4995    0.3591   -1.6342 N.2       1 <0>        -0.3263
     14 N4         -6.1527    0.1732   -1.3098 N.pl3     1 <0>        -0.3982
     15 C9         -5.5043   -0.1797   -0.1574 C.2       1 <0>         0.6978
     16 N5         -4.1895   -0.2832   -0.1581 N.2       1 <0>        -0.6304
     17 N6         -6.2162   -0.4298    0.9868 N.pl3     1 <0>        -0.6761
     18 C10        -5.5163   -0.8071    2.2173 C.3       1 <0>         0.1775
     19 C11        -6.5204   -1.0246    3.3198 C.ar      1 <0>        -0.1209
     20 C12        -6.8998    0.0313    4.1273 C.ar      1 <0>        -0.0954
     21 C13        -7.8208   -0.1682    5.1387 C.ar      1 <0>        -0.1214
     22 C14        -8.3628   -1.4235    5.3422 C.ar      1 <0>        -0.1051
     23 C15        -7.9841   -2.4792    4.5341 C.ar      1 <0>        -0.1215
     24 C16        -7.0663   -2.2787    3.5200 C.ar      1 <0>        -0.0957
     25 C17        -5.9610    1.1008   -4.8669 C.3       1 <0>        -0.0041
     26 C18        -6.6326    0.1063   -5.8161 C.3       1 <0>        -0.1409
     27 C19        -6.4537    2.5154   -5.1783 C.3       1 <0>        -0.1408
     28 H2          1.0039    1.9031    0.0027 H         1 <0>         0.0585
     29 H3         -0.5459    1.8868   -0.8726 H         1 <0>         0.0558
     30 H4         -0.5289    1.8773    0.9072 H         1 <0>         0.0538
     31 H5          0.5123   -0.3556   -0.8948 H         1 <0>         0.0791
     32 H6          0.5293   -0.3651    0.8851 H         1 <0>         0.0797
     33 H7         -0.9936   -2.3437    1.0951 H         1 <0>         0.0554
     34 H8         -2.4301   -2.4431    0.0488 H         1 <0>         0.0493
     35 H9         -0.5540   -3.5721   -0.9058 H         1 <0>         0.3796
     36 H10        -1.5839    0.0285   -2.0291 H         1 <0>         0.4204
     37 H11        -8.5048    0.9094   -3.4292 H         1 <0>         0.1935
     38 H12        -7.1835   -0.3569    0.9819 H         1 <0>         0.4251
     39 H13        -4.9563   -1.7270    2.0492 H         1 <0>         0.0857
     40 H14        -4.8294   -0.0107    2.5033 H         1 <0>         0.0865
     41 H15        -6.4763    1.0120    3.9683 H         1 <0>         0.1249
     42 H16        -8.1166    0.6566    5.7700 H         1 <0>         0.1265
     43 H17        -9.0818   -1.5795    6.1328 H         1 <0>         0.1258
     44 H18        -8.4073   -3.4599    4.6933 H         1 <0>         0.1264
     45 H19        -6.7732   -3.1027    2.8863 H         1 <0>         0.1244
     46 H20        -4.8799    1.0553   -4.9985 H         1 <0>         0.0793
     47 H21        -7.7137    0.1518   -5.6845 H         1 <0>         0.0525
     48 H22        -6.3809    0.3603   -6.8458 H         1 <0>         0.0551
     49 H23        -6.2816   -0.9015   -5.5942 H         1 <0>         0.0509
     50 H24        -7.5347    2.5609   -5.0467 H         1 <0>         0.0525
     51 H25        -5.9752    3.2238   -4.5021 H         1 <0>         0.0510
     52 H26        -6.2020    2.7693   -6.2080 H         1 <0>         0.0551
@<TRIPOS>BOND
     1    1    2 1
     2    1   28 1
     3    1   29 1
     4    1   30 1
     5    2    3 1
     6    2   31 1
     7    2   32 1
     8    3    4 1
     9    3    5 1
    10    3    7 1
    11    5    6 1
    12    5   33 1
    13    5   34 1
    14    6   35 1
    15    7    8 1
    16    7   36 1
    17    8   16 1
    18    8    9 2
    19    9   10 1
    20   10   14 1
    21   10   11 2
    22   11   12 1
    23   11   25 1
    24   12   13 2
    25   12   37 1
    26   13   14 1
    27   14   15 1
    28   15   16 2
    29   15   17 1
    30   17   18 1
    31   17   38 1
    32   18   19 1
    33   18   39 1
    34   18   40 1
    35   19   24 ar
    36   19   20 ar
    37   20   21 ar
    38   20   41 1
    39   21   22 ar
    40   21   42 1
    41   22   23 ar
    42   22   43 1
    43   23   24 ar
    44   23   44 1
    45   24   45 1
    46   25   26 1
    47   25   27 1
    48   25   46 1
    49   26   47 1
    50   26   48 1
    51   26   49 1
    52   27   50 1
    53   27   51 1
    54   27   52 1
@<TRIPOS>MOLECULE
ZINC34285231
   53    55     0     0     0
SMALL
USER_CHARGES

@<TRIPOS>ATOM
      1 C1         -0.0187    1.5258    0.0104 C.3       1 <0>        -0.1599
      2 C2          0.0021   -0.0041    0.0020 C.3       1 <0>        -0.1329
      3 C3          0.7182   -0.4975   -1.2568 C.3       1 <0>         0.1492
      4 H1          0.2444   -0.0644   -2.1377 H         1 <0>         0.1233
      5 C4          0.6303   -2.0233   -1.3286 C.3       1 <0>         0.0599
      6 O1          1.1463   -2.5875   -0.1213 O.3       1 <0>        -0.5719
      7 N1          2.1249   -0.0911   -1.2094 N.pl3     1 <0>        -0.6393
      8 C5          2.8415    0.0551   -2.3812 C.cat     1 <0>         0.6985
      9 N2          4.1107    0.4168   -2.3250 N.pl3     1 <0>        -0.5861
     10 C6          4.8187    0.5629   -3.4577 C.2       1 <0>         0.2789
     11 C7          6.1276    0.9208   -3.7247 C.2       1 <0>        -0.1688
     12 C8          6.2954    0.9020   -5.1055 C.2       1 <0>         0.1389
     13 N3          5.1619    0.5540   -5.6677 N.2       1 <0>        -0.2512
     14 N4          4.2110    0.3327   -4.6675 N.pl3     1 <0>        -0.3824
     15 C9          2.8945   -0.0408   -4.6893 C.2       1 <0>         0.7284
     16 N5          2.2397   -0.1773   -3.5527 N.2       1 <0>        -0.5902
     17 N6          2.2633   -0.2770   -5.8828 N.pl3     1 <0>        -0.6254
     18 C10         0.8539   -0.6766   -5.8995 C.3       1 <0>         0.1617
     19 C11         0.4042   -0.8726   -7.3244 C.ar      1 <0>        -0.1405
     20 C12        -0.1224    0.1896   -8.0353 C.ar      1 <0>        -0.0920
     21 C13        -0.5350    0.0099   -9.3423 C.ar      1 <0>        -0.1186
     22 C14        -0.4205   -1.2320   -9.9386 C.ar      1 <0>        -0.0926
     23 C15         0.1070   -2.2940   -9.2281 C.ar      1 <0>        -0.1188
     24 C16         0.5235   -2.1131   -7.9224 C.ar      1 <0>        -0.0923
     25 C17         7.1811    1.2682   -2.7047 C.3       1 <0>        -0.0224
     26 C18         8.3546    0.2947   -2.8317 C.3       1 <0>        -0.1502
     27 C19         7.6745    2.6961   -2.9470 C.3       1 <0>        -0.1502
     28 H2          1.0039    1.9031    0.0027 H         1 <0>         0.0492
     29 H3         -0.5459    1.8868   -0.8726 H         1 <0>         0.0602
     30 H4         -0.5289    1.8773    0.9072 H         1 <0>         0.0702
     31 H5          0.5293   -0.3651    0.8851 H         1 <0>         0.0869
     32 H6         -1.0205   -0.3814    0.0098 H         1 <0>         0.0973
     33 H7         -0.4106   -2.3218   -1.4533 H         1 <0>         0.0744
     34 H8          1.2150   -2.3814   -2.1759 H         1 <0>         0.0536
     35 H9          1.1218   -3.5538   -0.0969 H         1 <0>         0.3922
     36 H10         2.5531    0.0754   -0.3551 H         1 <0>         0.4320
     37 H11         7.2101    1.1363   -5.6298 H         1 <0>         0.2224
     38 H12         2.7497   -0.1796   -6.7163 H         1 <0>         0.4391
     39 H13         0.7343   -1.6098   -5.3491 H         1 <0>         0.1029
     40 H14         0.2502    0.1011   -5.4316 H         1 <0>         0.1038
     41 H15        -0.2119    1.1598   -7.5693 H         1 <0>         0.1263
     42 H16        -0.9471    0.8396   -9.8975 H         1 <0>         0.1316
     43 H17        -0.7434   -1.3726  -10.9596 H         1 <0>         0.1316
     44 H18         0.1961   -3.2643   -9.6939 H         1 <0>         0.1314
     45 H19         0.9390   -2.9419   -7.3685 H         1 <0>         0.1259
     46 H20         6.7557    1.1958   -1.7038 H         1 <0>         0.0766
     47 H21         8.7801    0.3671   -3.8326 H         1 <0>         0.0657
     48 H22         9.1166    0.5460   -2.0939 H         1 <0>         0.0725
     49 H23         8.0032   -0.7225   -2.6590 H         1 <0>         0.0574
     50 H24         6.8385    3.3896   -2.8566 H         1 <0>         0.0574
     51 H25         8.4365    2.9473   -2.2093 H         1 <0>         0.0725
     52 H26         8.1000    2.7685   -3.9480 H         1 <0>         0.0657
     53 H27         4.5317    0.5774   -1.4660 H         1 <0>         0.4483
@<TRIPOS>BOND
     1    1    2 1
     2    1   28 1
     3    1   29 1
     4    1   30 1
     5    2    3 1
     6    2   31 1
     7    2   32 1
     8    3    4 1
     9    3    5 1
    10    3    7 1
    11    5    6 1
    12    5   33 1
    13    5   34 1
    14    6   35 1
    15    7    8 1
    16    7   36 1
    17    8   16 1
    18    8    9 2
    19    9   10 1
    20    9   53 1
    21   10   14 1
    22   10   11 2
    23   11   12 1
    24   11   25 1
    25   12   13 2
    26   12   37 1
    27   13   14 1
    28   14   15 1
    29   15   16 2
    30   15   17 1
    31   17   18 1
    32   17   38 1
    33   18   19 1
    34   18   39 1
    35   18   40 1
    36   19   24 ar
    37   19   20 ar
    38   20   21 ar
    39   20   41 1
    40   21   22 ar
    41   21   42 1
    42   22   23 ar
    43   22   43 1
    44   23   24 ar
    45   23   44 1
    46   24   45 1
    47   25   26 1
    48   25   27 1
    49   25   46 1
    50   26   47 1
    51   26   48 1
    52   26   49 1
    53   27   50 1
    54   27   51 1
    55   27   52 1
@<TRIPOS>MOLECULE
ZINC35636073
   54    57     0     0     0
SMALL
USER_CHARGES

@<TRIPOS>ATOM
      1 C1          0.5293    2.5597    0.6609 C.3       1 <0>        -0.6502
      2 S1          0.5231    0.7695    0.9537 S.o2      1 <0>         2.4984
      3 O1          1.4953    0.4303    1.9330 O.2       1 <0>        -0.9347
      4 O2         -0.8122    0.2962    1.0642 O.2       1 <0>        -0.9346
      5 C2          1.1277    0.0637   -0.5434 C.ar      1 <0>        -0.6614
      6 C3          0.2466   -0.2729   -1.5542 C.ar      1 <0>        -0.0120
      7 C4          0.7209   -0.8265   -2.7284 C.ar      1 <0>        -0.1383
      8 C5          2.0765   -1.0432   -2.8924 C.ar      1 <0>        -0.0420
      9 C6          2.9574   -0.7058   -1.8823 C.ar      1 <0>        -0.1368
     10 C7          2.4834   -0.1481   -0.7093 C.ar      1 <0>        -0.0029
     11 C8          4.4350   -0.9424   -2.0608 C.3       1 <0>         0.1688
     12 N1          5.0507    0.2442   -2.6600 N.pl3     1 <0>        -0.6986
     13 C9          6.4111    0.2619   -2.9206 C.ar      1 <0>         0.5248
     14 C10         7.0097    1.3902   -3.4864 C.ar      1 <0>        -0.4122
     15 C11         8.3690    1.3631   -3.7288 C.ar      1 <0>         0.2743
     16 N2          9.0610    0.2761   -3.4201 N.ar      1 <0>        -0.5853
     17 C12         8.4672   -0.7800   -2.8843 C.ar      1 <0>         0.6213
     18 N3          7.1668   -0.7921   -2.6310 N.ar      1 <0>        -0.6121
     19 N4          9.2255   -1.8972   -2.5763 N.pl3     1 <0>        -0.6283
     20 C13        10.6173   -1.8605   -2.7227 C.ar      1 <0>         0.1388
     21 C14        11.3225   -0.7154   -2.3747 C.ar      1 <0>        -0.0732
     22 C15        12.6947   -0.6788   -2.5197 C.ar      1 <0>        -0.1299
     23 C16        13.3705   -1.7872   -3.0130 C.ar      1 <0>         0.1489
     24 C17        12.6655   -2.9321   -3.3601 C.ar      1 <0>        -0.1038
     25 C18        11.2938   -2.9710   -3.2106 C.ar      1 <0>        -0.1026
     26 C19        13.4022   -4.1332   -3.8938 C.3       1 <0>        -0.0768
     27 C20        14.6005   -3.6710   -4.7235 C.3       1 <0>        -0.1390
     28 C21        15.3853   -2.6389   -3.9597 C.2       1 <0>         0.5206
     29 O3         16.5932   -2.6051   -4.0653 O.2       1 <0>        -0.5264
     30 N5         14.7627   -1.7530   -3.1608 N.am      1 <0>        -0.6633
     31 C22         6.1907    2.6090   -3.8251 C.3       1 <0>         0.5288
     32 F1          7.0215    3.5910   -4.3752 F         1 <0>        -0.1721
     33 F2          5.2010    2.2632   -4.7513 F         1 <0>        -0.1789
     34 F3          5.5893    3.1043   -2.6631 F         1 <0>        -0.1791
     35 H1          1.5452    2.8884    0.4416 H         1 <0>         0.1320
     36 H2         -0.1182    2.7918   -0.1846 H         1 <0>         0.1324
     37 H3          0.1647    3.0745    1.5498 H         1 <0>         0.1352
     38 H4         -0.8123   -0.1037   -1.4261 H         1 <0>         0.1458
     39 H5          0.0325   -1.0901   -3.5178 H         1 <0>         0.1384
     40 H6          2.4470   -1.4764   -3.8097 H         1 <0>         0.1347
     41 H7          3.1722    0.1190    0.0785 H         1 <0>         0.1449
     42 H8          4.8915   -1.1379   -1.0906 H         1 <0>         0.0876
     43 H9          4.5891   -1.8010   -2.7145 H         1 <0>         0.0864
     44 H10         4.5057    1.0176   -2.8743 H         1 <0>         0.4141
     45 H11         8.8626    2.2186   -4.1656 H         1 <0>         0.1821
     46 H12         8.7923   -2.7050   -2.2591 H         1 <0>         0.4264
     47 H13        10.7970    0.1465   -1.9909 H         1 <0>         0.1359
     48 H14        13.2428    0.2116   -2.2492 H         1 <0>         0.1336
     49 H15        10.7463   -3.8630   -3.4771 H         1 <0>         0.1338
     50 H16        13.7510   -4.7446   -3.0615 H         1 <0>         0.0857
     51 H17        12.7319   -4.7215   -4.5204 H         1 <0>         0.0930
     52 H18        15.2414   -4.5254   -4.9409 H         1 <0>         0.1107
     53 H19        14.2473   -3.2377   -5.6593 H         1 <0>         0.1051
     54 H20        15.2815   -1.0864   -2.6841 H         1 <0>         0.4118
@<TRIPOS>BOND
     1    1    2 1
     2    1   35 1
     3    1   36 1
     4    1   37 1
     5    2    3 2
     6    2    4 2
     7    2    5 1
     8    5   10 ar
     9    5    6 ar
    10    6    7 ar
    11    6   38 1
    12    7    8 ar
    13    7   39 1
    14    8    9 ar
    15    8   40 1
    16    9   10 ar
    17    9   11 1
    18   10   41 1
    19   11   12 1
    20   11   42 1
    21   11   43 1
    22   12   13 1
    23   12   44 1
    24   13   18 ar
    25   13   14 ar
    26   14   15 ar
    27   14   31 1
    28   15   16 ar
    29   15   45 1
    30   16   17 ar
    31   17   18 ar
    32   17   19 1
    33   19   20 1
    34   19   46 1
    35   20   25 ar
    36   20   21 ar
    37   21   22 ar
    38   21   47 1
    39   22   23 ar
    40   22   48 1
    41   23   30 1
    42   23   24 ar
    43   24   25 ar
    44   24   26 1
    45   25   49 1
    46   26   27 1
    47   26   50 1
    48   26   51 1
    49   27   28 1
    50   27   52 1
    51   27   53 1
    52   28   29 2
    53   28   30 am
    54   30   54 1
    55   31   32 1
    56   31   33 1
    57   31   34 1
@<TRIPOS>MOLECULE
ZINC03816310
   51    55     0     0     0
SMALL
USER_CHARGES
4-amino-5-fluoro-3-[5-(4-methylpiperazin-1-yl)-3H-benzoimidazol-2-yl]-1H-quinolin-2-one
@<TRIPOS>ATOM
      1 C1         -4.4670    0.8494    3.0633 C.3       1 <0>        -0.0407
      2 C2         -3.3790    0.9463    0.9019 C.3       1 <0>         0.0019
      3 C3         -3.5151    1.4789   -0.5264 C.3       1 <0>         0.0203
      4 N1         -3.5799    2.9467   -0.4951 N.pl3     1 <0>        -0.4822
      5 C4         -4.7239    3.4034    0.3063 C.3       1 <0>         0.0231
      6 C5         -4.5878    2.8708    1.7347 C.3       1 <0>         0.0021
      7 C6         -3.6324    3.4738   -1.7895 C.ar      1 <0>         0.0898
      8 C7         -3.6187    2.6172   -2.8884 C.ar      1 <0>        -0.1658
      9 C8         -3.6694    3.1157   -4.1588 C.ar      1 <0>        -0.0428
     10 C9         -3.7362    4.4973   -4.3655 C.ar      1 <0>         0.0571
     11 C10        -3.7506    5.3641   -3.2589 C.ar      1 <0>         0.0655
     12 C11        -3.7036    4.8454   -1.9734 C.ar      1 <0>        -0.1134
     13 N2         -3.8198    6.6467   -3.7722 N.pl3     1 <0>        -0.5851
     14 H1         -3.8464    7.4962   -3.2453 H         1 <0>         0.4436
     15 C12        -3.8451    6.5353   -5.1390 C.2       1 <0>         0.4046
     16 N3         -3.7957    5.2687   -5.4809 N.2       1 <0>        -0.5294
     17 C13        -3.9164    7.6652   -6.0804 C.2       1 <0>        -0.3025
     18 C14        -4.0559    7.4305   -7.4504 C.2       1 <0>         0.3760
     19 C15        -4.1228    8.5898   -8.3476 C.ar      1 <0>        -0.1878
     20 C16        -4.0447    9.8830   -7.7997 C.ar      1 <0>         0.2450
     21 C17        -4.1078   10.9864   -8.6429 C.ar      1 <0>        -0.1734
     22 C18        -4.2458   10.8081  -10.0035 C.ar      1 <0>        -0.0185
     23 C19        -4.3231    9.5350  -10.5468 C.ar      1 <0>        -0.1801
     24 C20        -4.2628    8.4239   -9.7304 C.ar      1 <0>         0.1680
     25 F1         -4.3388    7.1843  -10.2623 F         1 <0>        -0.1206
     26 N4         -3.9076   10.0470   -6.4354 N.am      1 <0>        -0.6368
     27 H2         -3.8498   10.9715   -6.0585 H         1 <0>         0.4300
     28 C21        -3.8500    8.9949   -5.6023 C.2       1 <0>         0.5826
     29 O1         -3.7334    9.1908   -4.4050 O.2       1 <0>        -0.5600
     30 N5         -4.1288    6.1500   -7.9440 N.pl3     1 <0>        -0.8025
     31 H3         -3.5472    1.1734    3.5502 H         1 <0>         0.1241
     32 H4         -5.3249    1.2032    3.6351 H         1 <0>         0.1225
     33 H5         -4.4877   -0.2393    3.0134 H         1 <0>         0.1228
     34 H6         -3.3598   -0.1434    0.8835 H         1 <0>         0.1376
     35 H7         -2.4541    1.3189    1.3424 H         1 <0>         0.1399
     36 H8         -2.6529    1.1655   -1.1151 H         1 <0>         0.1307
     37 H9         -4.4260    1.0841   -0.9765 H         1 <0>         0.0717
     38 H10        -4.7431    4.4931    0.3248 H         1 <0>         0.1261
     39 H11        -5.6486    3.0309   -0.1345 H         1 <0>         0.0691
     40 H12        -3.6769    3.2656    2.1847 H         1 <0>         0.1400
     41 H13        -5.4498    3.1846    2.3235 H         1 <0>         0.1367
     42 H14        -3.5672    1.5496   -2.7341 H         1 <0>         0.1314
     43 H15        -3.6582    2.4431   -5.0037 H         1 <0>         0.1346
     44 H16        -3.7183    5.5073   -1.1202 H         1 <0>         0.1268
     45 H17        -4.0491   11.9836   -8.2323 H         1 <0>         0.1496
     46 H18        -4.2944   11.6697  -10.6529 H         1 <0>         0.1516
     47 H19        -4.4307    9.4121  -11.6144 H         1 <0>         0.1515
     48 H20        -4.3218    5.4103   -7.3468 H         1 <0>         0.4285
     49 H21        -3.9874    5.9859   -8.8895 H         1 <0>         0.4092
     50 N6         -4.5458    1.3938    1.6909 N.4       1 <0>        -0.3998
     51 H22        -5.4033    1.0486    1.2438 H         1 <0>         0.4274
@<TRIPOS>BOND
     1    1   31 1
     2    1   32 1
     3    1   33 1
     4    1   50 1
     5    2    3 1
     6    2   34 1
     7    2   35 1
     8    2   50 1
     9    3    4 1
    10    3   36 1
    11    3   37 1
    12    4    5 1
    13    4    7 1
    14    5    6 1
    15    5   38 1
    16    5   39 1
    17    6   40 1
    18    6   41 1
    19    6   50 1
    20    7   12 ar
    21    7    8 ar
    22    8    9 ar
    23    8   42 1
    24    9   10 ar
    25    9   43 1
    26   10   16 1
    27   10   11 ar
    28   11   12 ar
    29   11   13 1
    30   12   44 1
    31   13   14 1
    32   13   15 1
    33   15   16 2
    34   15   17 1
    35   17   28 1
    36   17   18 2
    37   18   19 1
    38   18   30 1
    39   19   24 ar
    40   19   20 ar
    41   20   21 ar
    42   20   26 1
    43   21   22 ar
    44   21   45 1
    45   22   23 ar
    46   22   46 1
    47   23   24 ar
    48   23   47 1
    49   24   25 1
    50   26   27 1
    51   26   28 am
    52   28   29 2
    53   30   48 1
    54   30   49 1
    55   50   51 1
@<TRIPOS>MOLECULE
ZINC03964325
   57    59     0     0     0
SMALL
USER_CHARGES

@<TRIPOS>ATOM
      1 C1          0.1489    2.0884    0.1150 C.3       1 <0>        -0.1876
      2 C2          0.1348    0.5603    0.1888 C.3       1 <0>        -0.0191
      3 N1         -1.2520    0.0881    0.2979 N.4       1 <0>        -0.3822
      4 C3         -1.9779    0.4111   -0.9377 C.3       1 <0>        -0.0142
      5 C4         -3.4549    0.0484   -0.7712 C.3       1 <0>        -0.1895
      6 C5         -1.2593   -1.3663    0.5041 C.3       1 <0>        -0.0265
      7 C6         -0.6131   -1.6936    1.8518 C.3       1 <0>         0.0952
      8 N2         -0.6203   -3.1440    2.0575 N.am      1 <0>        -0.7289
      9 C7         -0.0988   -3.6675    3.1846 C.2       1 <0>         0.6111
     10 O1          0.3779   -2.9358    4.0309 O.2       1 <0>        -0.5184
     11 C8         -0.1061   -5.1270    3.3915 C.2       1 <0>        -0.2420
     12 C9          0.9071   -6.0320    3.0089 C.2       1 <0>        -0.0577
     13 C10         0.4868   -7.2892    3.3960 C.2       1 <0>        -0.0075
     14 N3         -0.7476   -7.1595    3.9982 N.pl3     1 <0>        -0.4910
     15 H1         -1.2731   -7.8879    4.3645 H         1 <0>         0.4270
     16 C11        -1.1044   -5.8642    4.0022 C.2       1 <0>         0.1158
     17 C12        -2.3825   -5.3072    4.5743 C.3       1 <0>        -0.0999
     18 C13         1.1957   -8.4957    3.2079 C.2       1 <0>         0.0729
     19 C14         0.5100   -9.6674    2.9570 C.2       1 <0>        -0.1889
     20 C15         1.0648  -11.0377    2.8871 C.ar      1 <0>        -0.0736
     21 C16         2.3472  -11.5557    3.0375 C.ar      1 <0>        -0.1000
     22 C17         2.5553  -12.9162    2.9116 C.ar      1 <0>         0.0861
     23 C18         1.4888  -13.7593    2.6366 C.ar      1 <0>        -0.1139
     24 C19         0.2139  -13.2531    2.4856 C.ar      1 <0>        -0.1021
     25 C20        -0.0144  -11.8871    2.6092 C.ar      1 <0>         0.1282
     26 N4         -1.1765  -11.1301    2.5069 N.am      1 <0>        -0.6466
     27 C21        -0.9294   -9.8245    2.7079 C.2       1 <0>         0.5595
     28 O2         -1.7538   -8.9280    2.6842 O.2       1 <0>        -0.5156
     29 F1          3.7984  -13.4252    3.0561 F         1 <0>        -0.1318
     30 C22         2.1990   -5.6919    2.3116 C.3       1 <0>        -0.0931
     31 H2          1.1793    2.4435    0.1331 H         1 <0>         0.1076
     32 H3         -0.3308    2.4121   -0.8087 H         1 <0>         0.0811
     33 H4         -0.3916    2.4984    0.9682 H         1 <0>         0.0809
     34 H5          0.5888    0.1488   -0.7126 H         1 <0>         0.1317
     35 H6          0.6996    0.2334    1.0619 H         1 <0>         0.1337
     36 H7         -1.8867    1.4775   -1.1444 H         1 <0>         0.1351
     37 H8         -1.5554   -0.1571   -1.7664 H         1 <0>         0.1307
     38 H9         -3.5537   -1.0316   -0.6617 H         1 <0>         0.0802
     39 H10        -3.8523    0.5414    0.1160 H         1 <0>         0.0808
     40 H11        -4.0109    0.3769   -1.6492 H         1 <0>         0.1074
     41 H12        -2.2871   -1.7292    0.4963 H         1 <0>         0.1397
     42 H13        -0.6973   -1.8494   -0.2952 H         1 <0>         0.1376
     43 H14         0.4147   -1.3306    1.8596 H         1 <0>         0.0893
     44 H15        -1.1751   -1.2105    2.6511 H         1 <0>         0.0890
     45 H16        -1.0005   -3.7277    1.3824 H         1 <0>         0.4099
     46 H17        -3.1529   -5.3000    3.8032 H         1 <0>         0.0840
     47 H18        -2.7087   -5.9289    5.4080 H         1 <0>         0.0782
     48 H19        -2.2103   -4.2898    4.9254 H         1 <0>         0.0840
     49 H20         2.2744   -8.5020    3.2604 H         1 <0>         0.1589
     50 H21         3.1765  -10.8977    3.2512 H         1 <0>         0.1436
     51 H22         1.6578  -14.8215    2.5394 H         1 <0>         0.1485
     52 H23        -0.6084  -13.9196    2.2712 H         1 <0>         0.1415
     53 H24        -2.0541  -11.4980    2.3189 H         1 <0>         0.4217
     54 H25         2.9686   -5.4822    3.0545 H         1 <0>         0.0785
     55 H26         2.5107   -6.5337    1.6932 H         1 <0>         0.0726
     56 H27         2.0522   -4.8138    1.6827 H         1 <0>         0.0634
     57 H28        -1.7009    0.5410    1.0799 H         1 <0>         0.4247
@<TRIPOS>BOND
     1    1    2 1
     2    1   31 1
     3    1   32 1
     4    1   33 1
     5    2    3 1
     6    2   34 1
     7    2   35 1
     8    3    4 1
     9    3    6 1
    10    3   57 1
    11    4    5 1
    12    4   36 1
    13    4   37 1
    14    5   38 1
    15    5   39 1
    16    5   40 1
    17    6    7 1
    18    6   41 1
    19    6   42 1
    20    7    8 1
    21    7   43 1
    22    7   44 1
    23    8    9 am
    24    8   45 1
    25    9   10 2
    26    9   11 1
    27   11   16 2
    28   11   12 1
    29   12   13 2
    30   12   30 1
    31   13   14 1
    32   13   18 1
    33   14   15 1
    34   14   16 1
    35   16   17 1
    36   17   46 1
    37   17   47 1
    38   17   48 1
    39   18   19 2
    40   18   49 1
    41   19   27 1
    42   19   20 1
    43   20   25 ar
    44   20   21 ar
    45   21   22 ar
    46   21   50 1
    47   22   23 ar
    48   22   29 1
    49   23   24 ar
    50   23   51 1
    51   24   25 ar
    52   24   52 1
    53   25   26 1
    54   26   27 am
    55   26   53 1
    56   27   28 2
    57   30   54 1
    58   30   55 1
    59   30   56 1
@<TRIPOS>MOLECULE
ZINC18825339
   59    62     0     0     0
SMALL
USER_CHARGES
5-[(Z)-(5-fluoro-2-oxo-indolin-3-ylidene)methyl]-N-[(2R)-2-hydroxy-3-morpholino-propyl]-2,4-dimethyl-1H-pyrrole-3-carboxamide
@<TRIPOS>ATOM
      1 C1          3.5607    0.7280    0.3667 C.3       1 <0>        -0.0956
      2 C2          2.0758    0.7165    0.1102 C.2       1 <0>        -0.0564
      3 C3          1.2591    1.8188   -0.0477 C.2       1 <0>        -0.0308
      4 N1         -0.0271    1.3691   -0.2640 N.pl3     1 <0>        -0.5068
      5 H1         -0.8436    2.0903   -0.4163 H         1 <0>         0.4494
      6 C4         -0.0354    0.0257   -0.2455 C.2       1 <0>         0.1277
      7 C5          1.2525   -0.4230   -0.0155 C.2       1 <0>        -0.2308
      8 C6          1.6847   -1.8291    0.0810 C.2       1 <0>         0.5980
      9 O1          2.0430   -2.4250   -0.9167 O.2       1 <0>        -0.5421
     10 N2          1.6827   -2.4542    1.2750 N.am      1 <0>        -0.7266
     11 C7          2.1121   -3.8516    1.3710 C.3       1 <0>         0.1299
     12 C8          2.0150   -4.3162    2.8255 C.3       1 <0>         0.1144
     13 H2          2.5334   -3.6206    3.5018 H         1 <0>         0.0568
     14 C9          2.5799   -5.7329    2.9471 C.3       1 <0>         0.0228
     15 N3          2.4867   -6.1790    4.3436 N.3       1 <0>        -0.5349
     16 C10         3.3671   -5.3829    5.2109 C.3       1 <0>         0.0083
     17 C11         3.1945   -5.8402    6.6618 C.3       1 <0>         0.0618
     18 O2          3.4694   -7.2408    6.7508 O.3       1 <0>        -0.3843
     19 C12         2.6296   -8.0463    5.9193 C.3       1 <0>         0.0614
     20 C13         2.7965   -7.6114    4.4609 C.3       1 <0>         0.0172
     21 O3          0.6463   -4.3123    3.2364 O.3       1 <0>        -0.5882
     22 C14        -1.2476   -0.8477   -0.4426 C.3       1 <0>        -0.0994
     23 C15         1.6686    3.1691    0.0027 C.2       1 <0>         0.0908
     24 C16         0.8216    4.1284    0.5209 C.2       1 <0>        -0.2125
     25 C17         1.0162    5.5955    0.5210 C.ar      1 <0>        -0.0684
     26 C18         2.0202    6.4240    0.0297 C.ar      1 <0>        -0.1043
     27 C19         1.9118    7.7937    0.1786 C.ar      1 <0>         0.0808
     28 C20         0.8031    8.3379    0.8097 C.ar      1 <0>        -0.1198
     29 C21        -0.2000    7.5233    1.2941 C.ar      1 <0>        -0.1061
     30 C22        -0.1080    6.1430    1.1533 C.ar      1 <0>         0.1250
     31 N4         -0.9593    5.1144    1.5420 N.am      1 <0>        -0.6604
     32 C23        -0.4649    3.9133    1.1971 C.2       1 <0>         0.5647
     33 O4         -0.9909    2.8351    1.4086 O.2       1 <0>        -0.5132
     34 F1          2.8866    8.6030   -0.2904 F         1 <0>        -0.1355
     35 H3          3.9167    1.7678    0.4131 H         1 <0>         0.0672
     36 H4          4.0776    0.1994   -0.4478 H         1 <0>         0.0746
     37 H5          3.7717    0.2252    1.3221 H         1 <0>         0.0710
     38 H6          1.3586   -1.9152    2.1775 H         1 <0>         0.4262
     39 H7          1.4633   -4.4786    0.7417 H         1 <0>         0.0750
     40 H8          3.1531   -3.9398    1.0266 H         1 <0>         0.0785
     41 H9          2.0023   -6.4143    2.3052 H         1 <0>         0.0900
     42 H10         3.6334   -5.7360    2.6307 H         1 <0>         0.0465
     43 H11         4.4130   -5.5254    4.9015 H         1 <0>         0.0459
     44 H12         3.1012   -4.3189    5.1257 H         1 <0>         0.0881
     45 H13         3.8925   -5.2859    7.3064 H         1 <0>         0.1001
     46 H14         2.1618   -5.6458    6.9871 H         1 <0>         0.0615
     47 H15         2.9156   -9.1033    6.0238 H         1 <0>         0.1009
     48 H16         1.5805   -7.9185    6.2243 H         1 <0>         0.0621
     49 H17         2.1104   -8.1883    3.8234 H         1 <0>         0.0898
     50 H18         3.8332   -7.7899    4.1393 H         1 <0>         0.0455
     51 H19         0.3780   -4.6185    4.2583 H         1 <0>         0.4136
     52 H20        -0.9523   -1.9052   -0.3757 H         1 <0>         0.0845
     53 H21        -1.6843   -0.6508   -1.4328 H         1 <0>         0.0777
     54 H22        -1.9909   -0.6245    0.3369 H         1 <0>         0.0809
     55 H23         2.6624    3.4568   -0.3709 H         1 <0>         0.1579
     56 H24         2.8828    5.9984   -0.4614 H         1 <0>         0.1409
     57 H25         0.7239    9.4091    0.9228 H         1 <0>         0.1443
     58 H26        -1.0583    7.9589    1.7840 H         1 <0>         0.1386
     59 H27        -1.9003    5.3463    2.0623 H         1 <0>         0.4455
@<TRIPOS>BOND
     1    1    2 1
     2    1   35 1
     3    1   36 1
     4    1   37 1
     5    2    7 1
     6    2    3 2
     7    3    4 1
     8    3   23 1
     9    4    5 1
    10    4    6 1
    11    6    7 2
    12    6   22 1
    13    7    8 1
    14    8    9 2
    15    8   10 am
    16   10   11 1
    17   10   38 1
    18   11   12 1
    19   11   39 1
    20   11   40 1
    21   12   13 1
    22   12   14 1
    23   12   21 1
    24   14   15 1
    25   14   41 1
    26   14   42 1
    27   15   20 1
    28   15   16 1
    29   16   17 1
    30   16   43 1
    31   16   44 1
    32   17   18 1
    33   17   45 1
    34   17   46 1
    35   18   19 1
    36   19   20 1
    37   19   47 1
    38   19   48 1
    39   20   49 1
    40   20   50 1
    41   21   51 1
    42   22   52 1
    43   22   53 1
    44   22   54 1
    45   23   24 2
    46   23   55 1
    47   24   32 1
    48   24   25 1
    49   25   30 ar
    50   25   26 ar
    51   26   27 ar
    52   26   56 1
    53   27   28 ar
    54   27   34 1
    55   28   29 ar
    56   28   57 1
    57   29   30 ar
    58   29   58 1
    59   30   31 1
    60   31   32 am
    61   31   59 1
    62   32   33 2
@<TRIPOS>MOLECULE
ZINC18825344
   59    62     0     0     0
SMALL
USER_CHARGES
5-[(Z)-(5-fluoro-2-oxo-indolin-3-ylidene)methyl]-N-[(2S)-2-hydroxy-3-morpholino-propyl]-2,4-dimethyl-1H-pyrrole-3-carboxamide
@<TRIPOS>ATOM
      1 C1          4.7056    0.6287    1.0117 C.3       1 <0>        -0.0968
      2 C2          3.2464    0.8378    0.6983 C.2       1 <0>        -0.0523
      3 C3          2.5980    2.0501    0.5678 C.2       1 <0>        -0.0327
      4 N1          1.2732    1.7961    0.2789 N.pl3     1 <0>        -0.5060
      5 H1          0.5720    2.6311    0.1339 H         1 <0>         0.4496
      6 C4          1.0783    0.4679    0.2258 C.2       1 <0>         0.1246
      7 C5          2.2801   -0.1676    0.4808 C.2       1 <0>        -0.2308
      8 C6          2.5088   -1.6234    0.5191 C.2       1 <0>         0.5976
      9 O1          2.8262   -2.2159   -0.4944 O.2       1 <0>        -0.5428
     10 N2          2.3662   -2.2977    1.6773 N.am      1 <0>        -0.7254
     11 C7          2.5935   -3.7444    1.7154 C.3       1 <0>         0.1298
     12 C8          2.3672   -4.2590    3.1384 C.3       1 <0>         0.1172
     13 H2          1.3599   -4.0040    3.4994 H         1 <0>         0.0560
     14 C9          2.6045   -5.7699    3.1781 C.3       1 <0>         0.0219
     15 N3          2.3382   -6.2720    4.5327 N.3       1 <0>        -0.5356
     16 C10         2.9762   -7.5793    4.7450 C.3       1 <0>         0.0168
     17 C11         2.7241   -8.0365    6.1842 C.3       1 <0>         0.0612
     18 O2          1.3152   -8.0759    6.4267 O.3       1 <0>        -0.3844
     19 C12         0.6618   -6.8191    6.2299 C.3       1 <0>         0.0617
     20 C13         0.8930   -6.3496    4.7911 C.3       1 <0>         0.0111
     21 O3          3.2765   -3.6103    4.0297 O.3       1 <0>        -0.5892
     22 C14        -0.2328   -0.2165   -0.0637 C.3       1 <0>        -0.0987
     23 C15         3.1876    3.3256    0.7056 C.2       1 <0>         0.0935
     24 C16         2.4515    4.3746    1.2192 C.2       1 <0>        -0.2157
     25 C17         2.8515    5.7966    1.3077 C.ar      1 <0>        -0.0669
     26 C18         3.9943    6.4912    0.9234 C.ar      1 <0>        -0.1048
     27 C19         4.0710    7.8545    1.1363 C.ar      1 <0>         0.0814
     28 C20         3.0098    8.5263    1.7247 C.ar      1 <0>        -0.1204
     29 C21         1.8704    7.8457    2.1029 C.ar      1 <0>        -0.1055
     30 C22         1.7753    6.4739    1.8965 C.ar      1 <0>         0.1237
     31 N4          0.7622    5.5637    2.1775 N.am      1 <0>        -0.6596
     32 C23         1.1039    4.3195    1.8021 C.2       1 <0>         0.5657
     33 O4          0.4171    3.3209    1.9242 O.2       1 <0>        -0.5153
     34 F1          5.1807    8.5334    0.7715 F         1 <0>        -0.1355
     35 H3          5.1994    1.6049    1.1269 H         1 <0>         0.0668
     36 H4          5.1808    0.0720    0.1906 H         1 <0>         0.0744
     37 H5          4.8016    0.0567    1.9464 H         1 <0>         0.0741
     38 H6          2.0791   -1.7617    2.5940 H         1 <0>         0.4273
     39 H7          1.8935   -4.2437    1.0293 H         1 <0>         0.0777
     40 H8          3.6268   -3.9615    1.4070 H         1 <0>         0.0736
     41 H9          1.9304   -6.2658    2.4641 H         1 <0>         0.0486
     42 H10         3.6486   -5.9844    2.9062 H         1 <0>         0.0884
     43 H11         2.5501   -8.3132    4.0451 H         1 <0>         0.0451
     44 H12         4.0587   -7.4917    4.5704 H         1 <0>         0.0900
     45 H13         3.1515   -9.0395    6.3305 H         1 <0>         0.1008
     46 H14         3.1986   -7.3305    6.8817 H         1 <0>         0.0620
     47 H15        -0.4170   -6.9344    6.4112 H         1 <0>         0.1000
     48 H16         1.0741   -6.0778    6.9303 H         1 <0>         0.0613
     49 H17         0.4415   -5.3564    4.6504 H         1 <0>         0.0873
     50 H18         0.4333   -7.0637    4.0920 H         1 <0>         0.0461
     51 H19         3.2627   -3.8533    5.1024 H         1 <0>         0.4141
     52 H20        -0.0899   -1.3070   -0.0417 H         1 <0>         0.0829
     53 H21        -0.5927    0.0862   -1.0581 H         1 <0>         0.0781
     54 H22        -0.9728    0.0718    0.6974 H         1 <0>         0.0803
     55 H23         4.2335    3.4835    0.4037 H         1 <0>         0.1584
     56 H24         4.8196    5.9664    0.4654 H         1 <0>         0.1411
     57 H25         3.0756    9.5918    1.8882 H         1 <0>         0.1443
     58 H26         1.0507    8.3797    2.5605 H         1 <0>         0.1385
     59 H27        -0.1701    5.9069    2.6497 H         1 <0>         0.4455
@<TRIPOS>BOND
     1    1    2 1
     2    1   35 1
     3    1   36 1
     4    1   37 1
     5    2    7 1
     6    2    3 2
     7    3    4 1
     8    3   23 1
     9    4    5 1
    10    4    6 1
    11    6    7 2
    12    6   22 1
    13    7    8 1
    14    8    9 2
    15    8   10 am
    16   10   11 1
    17   10   38 1
    18   11   12 1
    19   11   39 1
    20   11   40 1
    21   12   13 1
    22   12   14 1
    23   12   21 1
    24   14   15 1
    25   14   41 1
    26   14   42 1
    27   15   20 1
    28   15   16 1
    29   16   17 1
    30   16   43 1
    31   16   44 1
    32   17   18 1
    33   17   45 1
    34   17   46 1
    35   18   19 1
    36   19   20 1
    37   19   47 1
    38   19   48 1
    39   20   49 1
    40   20   50 1
    41   21   51 1
    42   22   52 1
    43   22   53 1
    44   22   54 1
    45   23   24 2
    46   23   55 1
    47   24   32 1
    48   24   25 1
    49   25   30 ar
    50   25   26 ar
    51   26   27 ar
    52   26   56 1
    53   27   28 ar
    54   27   34 1
    55   28   29 ar
    56   28   57 1
    57   29   30 ar
    58   29   58 1
    59   30   31 1
    60   31   32 am
    61   31   59 1
    62   32   33 2
@<TRIPOS>MOLECULE
ZINC23247639
   69    72     0     0     0
SMALL
USER_CHARGES
1-[4-[(4-ethylpiperazin-1-yl)methyl]-3-(trifluoromethyl)phenyl]-3-[4-(6-methylaminopyrimidin-4-yl)oxyphenyl]urea
@<TRIPOS>ATOM
      1 C1          8.9417    3.3719    8.2172 C.3       1 <0>        -0.1901
      2 C2         10.1498    2.9102    7.3997 C.3       1 <0>        -0.0070
      3 N1          9.9972    3.3533    6.0075 N.4       1 <0>        -0.4011
      4 C3         11.2367    3.1387    5.2477 C.3       1 <0>         0.0016
      5 C4         11.0629    3.6845    3.8284 C.3       1 <0>         0.0271
      6 N2          9.9288    3.0094    3.1822 N.3       1 <0>        -0.5300
      7 C5          8.6893    3.2240    3.9420 C.3       1 <0>         0.0232
      8 C6          8.8631    2.6781    5.3612 C.3       1 <0>        -0.0016
      9 C7          9.7762    3.4524    1.7899 C.3       1 <0>         0.0786
     10 C8          8.7879    2.5601    1.0842 C.ar      1 <0>        -0.0666
     11 C9          7.5022    3.0092    0.8434 C.ar      1 <0>        -0.0932
     12 C10         6.5958    2.1959    0.1923 C.ar      1 <0>        -0.0888
     13 C11         6.9731    0.9214   -0.2106 C.ar      1 <0>         0.1880
     14 C12         8.2646    0.4735    0.0326 C.ar      1 <0>        -0.1043
     15 C13         9.1683    1.2940    0.6793 C.ar      1 <0>        -0.1369
     16 C14        10.5702    0.8086    0.9441 C.3       1 <0>         0.5111
     17 F1         10.7250   -0.4786    0.4184 F         1 <0>        -0.1776
     18 F2         11.4860    1.6739    0.3362 F         1 <0>        -0.1774
     19 F3         10.8008    0.7797    2.3237 F         1 <0>        -0.1628
     20 N3          6.0552    0.0926   -0.8655 N.am      1 <0>        -0.6979
     21 C15         4.7513    0.1311   -0.5266 C.2       1 <0>         0.7117
     22 O1          4.3858    0.8194    0.4067 O.2       1 <0>        -0.5623
     23 N4          3.8526   -0.5934   -1.2222 N.am      1 <0>        -0.6900
     24 C16         2.4863   -0.4790   -0.9335 C.ar      1 <0>         0.1635
     25 C17         1.5516   -0.5518   -1.9576 C.ar      1 <0>        -0.1265
     26 C18         0.2052   -0.4394   -1.6724 C.ar      1 <0>        -0.0923
     27 C19        -0.2137   -0.2543   -0.3628 C.ar      1 <0>         0.0841
     28 C20         0.7198   -0.1815    0.6609 C.ar      1 <0>        -0.0957
     29 C21         2.0665   -0.2932    0.3769 C.ar      1 <0>        -0.1058
     30 O2         -1.5393   -0.1385   -0.0833 O.3       1 <0>        -0.2424
     31 C22        -2.3129   -1.2454   -0.1983 C.ar      1 <0>         0.3836
     32 C23        -3.6894   -1.1637   -0.0277 C.ar      1 <0>        -0.3134
     33 C24        -4.4409   -2.3284   -0.1601 C.ar      1 <0>         0.4631
     34 N5         -3.8165   -3.4721   -0.4341 N.ar      1 <0>        -0.5936
     35 C25        -2.5082   -3.5081   -0.5840 C.ar      1 <0>         0.3760
     36 N6         -1.7644   -2.4263   -0.4707 N.ar      1 <0>        -0.6039
     37 N7         -5.8178   -2.2988   -0.0034 N.pl3     1 <0>        -0.7218
     38 C26        -6.4937   -1.0344    0.2979 C.3       1 <0>         0.0891
     39 H1          9.0560    3.0401    9.2597 H         1 <0>         0.1066
     40 H2          8.0243    2.9380    7.7928 H         1 <0>         0.0798
     41 H3          8.8763    4.4695    8.1868 H         1 <0>         0.0803
     42 H4         11.0672    3.3441    7.8241 H         1 <0>         0.1306
     43 H5         10.2153    1.8126    7.4301 H         1 <0>         0.1269
     44 H6         12.0665    3.6630    5.7442 H         1 <0>         0.1361
     45 H7         11.4577    2.0621    5.2031 H         1 <0>         0.1357
     46 H8         10.8699    4.7665    3.8728 H         1 <0>         0.0625
     47 H9         11.9796    3.4990    3.2494 H         1 <0>         0.1239
     48 H10         8.4684    4.3007    3.9867 H         1 <0>         0.0621
     49 H11         7.8594    2.6998    3.4455 H         1 <0>         0.1239
     50 H12         9.0569    1.5962    5.3178 H         1 <0>         0.1351
     51 H13         7.9470    2.8635    5.9412 H         1 <0>         0.1359
     52 H14         9.4106    4.4897    1.7732 H         1 <0>         0.0663
     53 H15        10.7489    3.3982    1.2791 H         1 <0>         0.1073
     54 H16         7.2082    3.9988    1.1607 H         1 <0>         0.1358
     55 H17         5.5933    2.5489    0.0003 H         1 <0>         0.1466
     56 H18         8.5625   -0.5152   -0.2838 H         1 <0>         0.1447
     57 H19         6.3979   -0.5903   -1.6569 H         1 <0>         0.4387
     58 H20         4.1917   -1.2745   -2.0166 H         1 <0>         0.4355
     59 H21         1.8775   -0.6959   -2.9771 H         1 <0>         0.1334
     60 H22        -0.5220   -0.4960   -2.4689 H         1 <0>         0.1303
     61 H23         0.3932   -0.0371    1.6801 H         1 <0>         0.1327
     62 H24         2.7931   -0.2369    1.1740 H         1 <0>         0.1442
     63 H25        -4.1646   -0.2205    0.1982 H         1 <0>         0.1466
     64 H26        -2.0315   -4.4515   -0.8058 H         1 <0>         0.2000
     65 H27        -6.4030   -3.2246   -0.1053 H         1 <0>         0.4376
     66 H28        -7.5762   -1.2091    0.3856 H         1 <0>         0.0864
     67 H29        -6.3028   -0.3146   -0.5117 H         1 <0>         0.0603
     68 H30        -6.1096   -0.6302    1.2461 H         1 <0>         0.0599
     69 H31         9.7882    4.4332    6.0188 H         1 <0>         0.4364
@<TRIPOS>BOND
     1    1    2 1
     2    1   39 1
     3    1   40 1
     4    1   41 1
     5    2    3 1
     6    2   42 1
     7    2   43 1
     8    3    8 1
     9    3    4 1
    10    3   69 1
    11    4    5 1
    12    4   44 1
    13    4   45 1
    14    5    6 1
    15    5   46 1
    16    5   47 1
    17    6    7 1
    18    6    9 1
    19    7    8 1
    20    7   48 1
    21    7   49 1
    22    8   50 1
    23    8   51 1
    24    9   10 1
    25    9   52 1
    26    9   53 1
    27   10   15 ar
    28   10   11 ar
    29   11   12 ar
    30   11   54 1
    31   12   13 ar
    32   12   55 1
    33   13   14 ar
    34   13   20 1
    35   14   15 ar
    36   14   56 1
    37   15   16 1
    38   16   17 1
    39   16   18 1
    40   16   19 1
    41   20   21 am
    42   20   57 1
    43   21   22 2
    44   21   23 am
    45   23   24 1
    46   23   58 1
    47   24   29 ar
    48   24   25 ar
    49   25   26 ar
    50   25   59 1
    51   26   27 ar
    52   26   60 1
    53   27   28 ar
    54   27   30 1
    55   28   29 ar
    56   28   61 1
    57   29   62 1
    58   30   31 1
    59   31   36 ar
    60   31   32 ar
    61   32   33 ar
    62   32   63 1
    63   33   34 ar
    64   33   37 1
    65   34   35 ar
    66   35   36 ar
    67   35   64 1
    68   37   38 1
    69   37   65 1
    70   38   66 1
    71   38   67 1
    72   38   68 1
@<TRIPOS>MOLECULE
ZINC23247639
   69    72     0     0     0
SMALL
USER_CHARGES
1-[4-[(4-ethylpiperazin-1-yl)methyl]-3-(trifluoromethyl)phenyl]-3-[4-(6-methylaminopyrimidin-4-yl)oxyphenyl]urea
@<TRIPOS>ATOM
      1 C1          8.9417    3.3719    8.2172 C.3       1 <0>        -0.1569
      2 C2         10.1498    2.9102    7.3997 C.3       1 <0>         0.0486
      3 N1          9.9972    3.3533    6.0075 N.3       1 <0>        -0.5379
      4 C3         11.2367    3.1387    5.2477 C.3       1 <0>         0.0250
      5 C4         11.0629    3.6845    3.8284 C.3       1 <0>         0.0004
      6 N2          9.9288    3.0094    3.1822 N.4       1 <0>        -0.4202
      7 C5          8.6893    3.2240    3.9420 C.3       1 <0>        -0.0009
      8 C6          8.8631    2.6781    5.3612 C.3       1 <0>         0.0222
      9 C7          9.7762    3.4524    1.7899 C.3       1 <0>         0.0266
     10 C8          8.7879    2.5601    1.0842 C.ar      1 <0>        -0.1272
     11 C9          7.5022    3.0092    0.8434 C.ar      1 <0>        -0.0630
     12 C10         6.5958    2.1959    0.1923 C.ar      1 <0>        -0.0846
     13 C11         6.9731    0.9214   -0.2106 C.ar      1 <0>         0.2154
     14 C12         8.2646    0.4735    0.0326 C.ar      1 <0>        -0.0955
     15 C13         9.1683    1.2940    0.6793 C.ar      1 <0>        -0.1507
     16 C14        10.5702    0.8086    0.9441 C.3       1 <0>         0.5109
     17 F1         10.7250   -0.4786    0.4184 F         1 <0>        -0.1491
     18 F2         11.4860    1.6739    0.3362 F         1 <0>        -0.1584
     19 F3         10.8008    0.7797    2.3237 F         1 <0>        -0.1724
     20 N3          6.0552    0.0926   -0.8655 N.am      1 <0>        -0.6988
     21 C15         4.7513    0.1311   -0.5266 C.2       1 <0>         0.7114
     22 O1          4.3858    0.8194    0.4067 O.2       1 <0>        -0.5584
     23 N4          3.8526   -0.5934   -1.2222 N.am      1 <0>        -0.6858
     24 C16         2.4863   -0.4790   -0.9335 C.ar      1 <0>         0.1577
     25 C17         1.5516   -0.5518   -1.9576 C.ar      1 <0>        -0.1240
     26 C18         0.2052   -0.4394   -1.6724 C.ar      1 <0>        -0.0926
     27 C19        -0.2137   -0.2543   -0.3628 C.ar      1 <0>         0.0883
     28 C20         0.7198   -0.1815    0.6609 C.ar      1 <0>        -0.0957
     29 C21         2.0665   -0.2932    0.3769 C.ar      1 <0>        -0.1046
     30 O2         -1.5393   -0.1385   -0.0833 O.3       1 <0>        -0.2426
     31 C22        -2.3129   -1.2454   -0.1983 C.ar      1 <0>         0.3832
     32 C23        -3.6894   -1.1637   -0.0277 C.ar      1 <0>        -0.3126
     33 C24        -4.4409   -2.3284   -0.1601 C.ar      1 <0>         0.4635
     34 N5         -3.8165   -3.4721   -0.4341 N.ar      1 <0>        -0.5931
     35 C25        -2.5082   -3.5081   -0.5840 C.ar      1 <0>         0.3762
     36 N6         -1.7644   -2.4263   -0.4707 N.ar      1 <0>        -0.6049
     37 N7         -5.8178   -2.2988   -0.0034 N.pl3     1 <0>        -0.7212
     38 C26        -6.4937   -1.0344    0.2979 C.3       1 <0>         0.0887
     39 H1          9.0560    3.0401    9.2597 H         1 <0>         0.0714
     40 H2          8.0243    2.9380    7.7928 H         1 <0>         0.0562
     41 H3          8.8763    4.4695    8.1868 H         1 <0>         0.0696
     42 H4         11.0672    3.3441    7.8241 H         1 <0>         0.0895
     43 H5         10.2153    1.8126    7.4301 H         1 <0>         0.0455
     44 H6         12.0665    3.6630    5.7442 H         1 <0>         0.1253
     45 H7         11.4577    2.0621    5.2031 H         1 <0>         0.0582
     46 H8         10.8699    4.7665    3.8728 H         1 <0>         0.1369
     47 H9         11.9796    3.4990    3.2494 H         1 <0>         0.1329
     48 H10         8.4684    4.3007    3.9867 H         1 <0>         0.1355
     49 H11         7.8594    2.6998    3.4455 H         1 <0>         0.1312
     50 H12         9.0569    1.5962    5.3178 H         1 <0>         0.0572
     51 H13         7.9470    2.8635    5.9412 H         1 <0>         0.1266
     52 H14         9.4106    4.4897    1.7732 H         1 <0>         0.1472
     53 H15        10.7489    3.3982    1.2791 H         1 <0>         0.1420
     54 H16         7.2082    3.9988    1.1607 H         1 <0>         0.1512
     55 H17         5.5933    2.5489    0.0003 H         1 <0>         0.1583
     56 H18         8.5625   -0.5152   -0.2838 H         1 <0>         0.1556
     57 H19         6.3979   -0.5903   -1.6569 H         1 <0>         0.4440
     58 H20         4.1917   -1.2745   -2.0166 H         1 <0>         0.4371
     59 H21         1.8775   -0.6959   -2.9771 H         1 <0>         0.1338
     60 H22        -0.5220   -0.4960   -2.4689 H         1 <0>         0.1313
     61 H23         0.3932   -0.0371    1.6801 H         1 <0>         0.1341
     62 H24         2.7931   -0.2369    1.1740 H         1 <0>         0.1440
     63 H25        -4.1646   -0.2205    0.1982 H         1 <0>         0.1470
     64 H26        -2.0315   -4.4515   -0.8058 H         1 <0>         0.2001
     65 H27        -6.4030   -3.2246   -0.1053 H         1 <0>         0.4380
     66 H28        -7.5762   -1.2091    0.3856 H         1 <0>         0.0868
     67 H29        -6.3028   -0.3146   -0.5117 H         1 <0>         0.0604
     68 H30        -6.1096   -0.6302    1.2461 H         1 <0>         0.0603
     69 H31        10.1379    1.9295    3.1711 H         1 <0>         0.4253
@<TRIPOS>BOND
     1    1    2 1
     2    1   39 1
     3    1   40 1
     4    1   41 1
     5    2    3 1
     6    2   42 1
     7    2   43 1
     8    3    8 1
     9    3    4 1
    10    4    5 1
    11    4   44 1
    12    4   45 1
    13    5    6 1
    14    5   46 1
    15    5   47 1
    16    6    7 1
    17    6    9 1
    18    6   69 1
    19    7    8 1
    20    7   48 1
    21    7   49 1
    22    8   50 1
    23    8   51 1
    24    9   10 1
    25    9   52 1
    26    9   53 1
    27   10   15 ar
    28   10   11 ar
    29   11   12 ar
    30   11   54 1
    31   12   13 ar
    32   12   55 1
    33   13   14 ar
    34   13   20 1
    35   14   15 ar
    36   14   56 1
    37   15   16 1
    38   16   17 1
    39   16   18 1
    40   16   19 1
    41   20   21 am
    42   20   57 1
    43   21   22 2
    44   21   23 am
    45   23   24 1
    46   23   58 1
    47   24   29 ar
    48   24   25 ar
    49   25   26 ar
    50   25   59 1
    51   26   27 ar
    52   26   60 1
    53   27   28 ar
    54   27   30 1
    55   28   29 ar
    56   28   61 1
    57   29   62 1
    58   30   31 1
    59   31   36 ar
    60   31   32 ar
    61   32   33 ar
    62   32   63 1
    63   33   34 ar
    64   33   37 1
    65   34   35 ar
    66   35   36 ar
    67   35   64 1
    68   37   38 1
    69   37   65 1
    70   38   66 1
    71   38   67 1
    72   38   68 1
@<TRIPOS>MOLECULE
ZINC23247639
   68    71     0     0     0
SMALL
USER_CHARGES
1-[4-[(4-ethylpiperazin-1-yl)methyl]-3-(trifluoromethyl)phenyl]-3-[4-(6-methylaminopyrimidin-4-yl)oxyphenyl]urea
@<TRIPOS>ATOM
      1 C1          8.9417    3.3719    8.2172 C.3       1 <0>        -0.1510
      2 C2         10.1498    2.9102    7.3997 C.3       1 <0>         0.0499
      3 N1          9.9972    3.3533    6.0075 N.3       1 <0>        -0.5402
      4 C3         11.2367    3.1387    5.2477 C.3       1 <0>         0.0569
      5 C4         11.0629    3.6845    3.8284 C.3       1 <0>         0.0590
      6 N2          9.9288    3.0094    3.1822 N.3       1 <0>        -0.5268
      7 C5          8.6893    3.2240    3.9420 C.3       1 <0>         0.0561
      8 C6          8.8631    2.6781    5.3612 C.3       1 <0>         0.0550
      9 C7          9.7762    3.4524    1.7899 C.3       1 <0>         0.0729
     10 C8          8.7879    2.5601    1.0842 C.ar      1 <0>        -0.0447
     11 C9          7.5022    3.0092    0.8434 C.ar      1 <0>        -0.0942
     12 C10         6.5958    2.1959    0.1923 C.ar      1 <0>        -0.0884
     13 C11         6.9731    0.9214   -0.2106 C.ar      1 <0>         0.1720
     14 C12         8.2646    0.4735    0.0326 C.ar      1 <0>        -0.1038
     15 C13         9.1683    1.2940    0.6793 C.ar      1 <0>        -0.1404
     16 C14        10.5702    0.8086    0.9441 C.3       1 <0>         0.5095
     17 F1         10.7250   -0.4786    0.4184 F         1 <0>        -0.1841
     18 F2         11.4860    1.6739    0.3362 F         1 <0>        -0.1795
     19 F3         10.8008    0.7797    2.3237 F         1 <0>        -0.1519
     20 N3          6.0552    0.0926   -0.8655 N.am      1 <0>        -0.6948
     21 C15         4.7513    0.1311   -0.5266 C.2       1 <0>         0.7096
     22 O1          4.3858    0.8194    0.4067 O.2       1 <0>        -0.5587
     23 N4          3.8526   -0.5934   -1.2222 N.am      1 <0>        -0.6930
     24 C16         2.4863   -0.4790   -0.9335 C.ar      1 <0>         0.1697
     25 C17         1.5516   -0.5518   -1.9576 C.ar      1 <0>        -0.1297
     26 C18         0.2052   -0.4394   -1.6724 C.ar      1 <0>        -0.0930
     27 C19        -0.2137   -0.2543   -0.3628 C.ar      1 <0>         0.0783
     28 C20         0.7198   -0.1815    0.6609 C.ar      1 <0>        -0.0936
     29 C21         2.0665   -0.2932    0.3769 C.ar      1 <0>        -0.1059
     30 O2         -1.5393   -0.1385   -0.0833 O.3       1 <0>        -0.2412
     31 C22        -2.3129   -1.2454   -0.1983 C.ar      1 <0>         0.3851
     32 C23        -3.6894   -1.1637   -0.0277 C.ar      1 <0>        -0.3141
     33 C24        -4.4409   -2.3284   -0.1601 C.ar      1 <0>         0.4620
     34 N5         -3.8165   -3.4721   -0.4341 N.ar      1 <0>        -0.5954
     35 C25        -2.5082   -3.5081   -0.5840 C.ar      1 <0>         0.3753
     36 N6         -1.7644   -2.4263   -0.4707 N.ar      1 <0>        -0.6017
     37 N7         -5.8178   -2.2988   -0.0034 N.pl3     1 <0>        -0.7231
     38 C26        -6.4937   -1.0344    0.2979 C.3       1 <0>         0.0898
     39 H1          9.0560    3.0401    9.2597 H         1 <0>         0.0595
     40 H2          8.0243    2.9380    7.7928 H         1 <0>         0.0547
     41 H3          8.8763    4.4695    8.1868 H         1 <0>         0.0631
     42 H4         11.0672    3.3441    7.8241 H         1 <0>         0.0746
     43 H5         10.2153    1.8126    7.4301 H         1 <0>         0.0335
     44 H6         12.0665    3.6630    5.7442 H         1 <0>         0.0800
     45 H7         11.4577    2.0621    5.2031 H         1 <0>         0.0441
     46 H8         10.8699    4.7665    3.8728 H         1 <0>         0.0445
     47 H9         11.9796    3.4990    3.2494 H         1 <0>         0.0809
     48 H10         8.4684    4.3007    3.9867 H         1 <0>         0.0435
     49 H11         7.8594    2.6998    3.4455 H         1 <0>         0.0808
     50 H12         9.0569    1.5962    5.3178 H         1 <0>         0.0425
     51 H13         7.9470    2.8635    5.9412 H         1 <0>         0.0819
     52 H14         9.4106    4.4897    1.7732 H         1 <0>         0.0550
     53 H15        10.7489    3.3982    1.2791 H         1 <0>         0.0962
     54 H16         7.2082    3.9988    1.1607 H         1 <0>         0.1355
     55 H17         5.5933    2.5489    0.0003 H         1 <0>         0.1427
     56 H18         8.5625   -0.5152   -0.2838 H         1 <0>         0.1409
     57 H19         6.3979   -0.5903   -1.6569 H         1 <0>         0.4343
     58 H20         4.1917   -1.2745   -2.0166 H         1 <0>         0.4332
     59 H21         1.8775   -0.6959   -2.9771 H         1 <0>         0.1323
     60 H22        -0.5220   -0.4960   -2.4689 H         1 <0>         0.1282
     61 H23         0.3932   -0.0371    1.6801 H         1 <0>         0.1328
     62 H24         2.7931   -0.2369    1.1740 H         1 <0>         0.1466
     63 H25        -4.1646   -0.2205    0.1982 H         1 <0>         0.1463
     64 H26        -2.0315   -4.4515   -0.8058 H         1 <0>         0.1996
     65 H27        -6.4030   -3.2246   -0.1053 H         1 <0>         0.4362
     66 H28        -7.5762   -1.2091    0.3856 H         1 <0>         0.0851
     67 H29        -6.3028   -0.3146   -0.5117 H         1 <0>         0.0598
     68 H30        -6.1096   -0.6302    1.2461 H         1 <0>         0.0599
@<TRIPOS>BOND
     1    1    2 1
     2    1   39 1
     3    1   40 1
     4    1   41 1
     5    2    3 1
     6    2   42 1
     7    2   43 1
     8    3    8 1
     9    3    4 1
    10    4    5 1
    11    4   44 1
    12    4   45 1
    13    5    6 1
    14    5   46 1
    15    5   47 1
    16    6    7 1
    17    6    9 1
    18    7    8 1
    19    7   48 1
    20    7   49 1
    21    8   50 1
    22    8   51 1
    23    9   10 1
    24    9   52 1
    25    9   53 1
    26   10   15 ar
    27   10   11 ar
    28   11   12 ar
    29   11   54 1
    30   12   13 ar
    31   12   55 1
    32   13   14 ar
    33   13   20 1
    34   14   15 ar
    35   14   56 1
    36   15   16 1
    37   16   17 1
    38   16   18 1
    39   16   19 1
    40   20   21 am
    41   20   57 1
    42   21   22 2
    43   21   23 am
    44   23   24 1
    45   23   58 1
    46   24   29 ar
    47   24   25 ar
    48   25   26 ar
    49   25   59 1
    50   26   27 ar
    51   26   60 1
    52   27   28 ar
    53   27   30 1
    54   28   29 ar
    55   28   61 1
    56   29   62 1
    57   30   31 1
    58   31   36 ar
    59   31   32 ar
    60   32   33 ar
    61   32   63 1
    62   33   34 ar
    63   33   37 1
    64   34   35 ar
    65   35   36 ar
    66   35   64 1
    67   37   38 1
    68   37   65 1
    69   38   66 1
    70   38   67 1
    71   38   68 1
