@<TRIPOS>MOLECULE
ZINC49054534
   68    71     0     0     0
SMALL
USER_CHARGES

@<TRIPOS>ATOM
      1 C1         -0.0408    1.4963   -0.0860 C.3       1 <0>         0.0008
      2 C2          1.4070    1.9844   -0.1715 C.3       1 <0>         0.0582
      3 H1          1.4205    3.0714   -0.2507 H         1 <0>         0.1016
      4 C3          2.1603    1.5543    1.0905 C.3       1 <0>         0.0279
      5 H2          3.2062    1.8503    1.0094 H         1 <0>         0.0893
      6 C4          2.0685    0.0324    1.2342 C.3       1 <0>         0.1078
      7 H3          2.5548   -0.2758    2.1597 H         1 <0>         0.1029
      8 C5          0.5962   -0.3834    1.2676 C.3       1 <0>         0.0466
      9 H4          0.1038    0.0930    2.1154 H         1 <0>         0.1587
     10 N1         -0.0618    0.0327    0.0233 N.4       1 <0>        -0.3707
     11 C6         -1.4538   -0.4366    0.0267 C.3       1 <0>        -0.0181
     12 C7         -2.1057   -0.1092   -1.3183 C.3       1 <0>        -0.1445
     13 C8         -3.5555   -0.5980   -1.3148 C.3       1 <0>        -0.1138
     14 C9         -4.2073   -0.2705   -2.6597 C.3       1 <0>        -0.1189
     15 C10        -5.6571   -0.7594   -2.6562 C.3       1 <0>         0.0607
     16 O1         -6.2659   -0.4535   -3.9123 O.3       1 <0>        -0.3814
     17 C11        -7.6290   -0.8703   -4.0144 C.3       1 <0>         0.0731
     18 C12        -8.1756   -0.4938   -5.3929 C.3       1 <0>        -0.0495
     19 C13        -7.3477   -1.1873   -6.4766 C.3       1 <0>        -0.0959
     20 C14        -7.8943   -0.8108   -7.8552 C.3       1 <0>        -0.0876
     21 C15        -9.3537   -1.2571   -7.9645 C.3       1 <0>        -0.1103
     22 C16       -10.1816   -0.5635   -6.8807 C.3       1 <0>        -0.0845
     23 C17        -9.6350   -0.9400   -5.5022 C.3       1 <0>        -0.1029
     24 C18       -10.0966    0.9529   -7.0663 C.3       1 <0>        -0.1103
     25 C19        -8.6372    1.3991   -6.9570 C.3       1 <0>        -0.0876
     26 C20        -7.8094    0.7055   -8.0407 C.3       1 <0>        -0.1078
     27 C21        -8.0906    1.0226   -5.5785 C.3       1 <0>        -0.0957
     28 C22         0.4994   -1.9036    1.4106 C.3       1 <0>         0.0519
     29 O2          1.2049   -2.5289    0.3367 O.3       1 <0>        -0.5514
     30 O3          2.7164   -0.5916    0.1239 O.3       1 <0>        -0.5208
     31 O4          1.5739    2.1800    2.2337 O.3       1 <0>        -0.5536
     32 O5          2.0356    1.4143   -1.3211 O.3       1 <0>        -0.5473
     33 H5         -0.5196    1.9326    0.7907 H         1 <0>         0.1424
     34 H6         -0.5800    1.8010   -0.9829 H         1 <0>         0.1395
     35 H7         -1.4734   -1.5146    0.1870 H         1 <0>         0.1331
     36 H8         -2.0027    0.0598    0.8269 H         1 <0>         0.1286
     37 H9         -2.0861    0.9688   -1.4786 H         1 <0>         0.0867
     38 H10        -1.5568   -0.6056   -2.1185 H         1 <0>         0.0901
     39 H11        -3.5751   -1.6760   -1.1544 H         1 <0>         0.0757
     40 H12        -4.1044   -0.1016   -0.5145 H         1 <0>         0.0754
     41 H13        -4.1877    0.8074   -2.8200 H         1 <0>         0.0744
     42 H14        -3.6584   -0.7670   -3.4599 H         1 <0>         0.0754
     43 H15        -5.6767   -1.8373   -2.4958 H         1 <0>         0.0480
     44 H16        -6.2060   -0.2630   -1.8560 H         1 <0>         0.0477
     45 H17        -7.6895   -1.9506   -3.8822 H         1 <0>         0.0491
     46 H18        -8.2188   -0.3762   -3.2423 H         1 <0>         0.0489
     47 H19        -6.3080   -0.8694   -6.3988 H         1 <0>         0.0682
     48 H20        -7.4082   -2.2676   -6.3445 H         1 <0>         0.0578
     49 H21        -7.3045   -1.3049   -8.6273 H         1 <0>         0.0694
     50 H22        -9.7431   -0.9888   -8.9466 H         1 <0>         0.0633
     51 H23        -9.4142   -2.3373   -7.8323 H         1 <0>         0.0615
     52 H24       -11.2213   -0.8814   -6.9586 H         1 <0>         0.0722
     53 H25        -9.6955   -2.0203   -5.3700 H         1 <0>         0.0634
     54 H26       -10.2248   -0.4459   -4.7301 H         1 <0>         0.0633
     55 H27       -10.4860    1.2211   -8.0484 H         1 <0>         0.0633
     56 H28       -10.6864    1.4470   -6.2942 H         1 <0>         0.0614
     57 H29        -8.5767    2.4793   -7.0892 H         1 <0>         0.0692
     58 H30        -6.7696    1.0234   -7.9629 H         1 <0>         0.0605
     59 H31        -8.1987    0.9738   -9.0228 H         1 <0>         0.0619
     60 H32        -8.6805    1.5167   -4.8064 H         1 <0>         0.0576
     61 H33        -7.0509    1.3405   -5.5006 H         1 <0>         0.0681
     62 H34         0.9394   -2.2080    2.3603 H         1 <0>         0.0898
     63 H35        -0.5476   -2.2053    1.3820 H         1 <0>         0.0714
     64 H36         1.1855   -3.4954    0.3634 H         1 <0>         0.3986
     65 H37         3.6537   -0.3694    0.0397 H         1 <0>         0.3930
     66 H38         1.5929    3.1464    2.2061 H         1 <0>         0.3988
     67 H39         2.9577    1.6812   -1.4382 H         1 <0>         0.4017
     68 H40         0.4247   -0.3694   -0.7639 H         1 <0>         0.4434
@<TRIPOS>BOND
     1    1   10 1
     2    1    2 1
     3    1   33 1
     4    1   34 1
     5    2    3 1
     6    2    4 1
     7    2   32 1
     8    4    5 1
     9    4    6 1
    10    4   31 1
    11    6    7 1
    12    6    8 1
    13    6   30 1
    14    8    9 1
    15    8   10 1
    16    8   28 1
    17   10   11 1
    18   10   68 1
    19   11   12 1
    20   11   35 1
    21   11   36 1
    22   12   13 1
    23   12   37 1
    24   12   38 1
    25   13   14 1
    26   13   39 1
    27   13   40 1
    28   14   15 1
    29   14   41 1
    30   14   42 1
    31   15   16 1
    32   15   43 1
    33   15   44 1
    34   16   17 1
    35   17   18 1
    36   17   45 1
    37   17   46 1
    38   18   23 1
    39   18   27 1
    40   18   19 1
    41   19   20 1
    42   19   47 1
    43   19   48 1
    44   20   26 1
    45   20   21 1
    46   20   49 1
    47   21   22 1
    48   21   50 1
    49   21   51 1
    50   22   23 1
    51   22   24 1
    52   22   52 1
    53   23   53 1
    54   23   54 1
    55   24   25 1
    56   24   55 1
    57   24   56 1
    58   25   26 1
    59   25   27 1
    60   25   57 1
    61   26   58 1
    62   26   59 1
    63   27   60 1
    64   27   61 1
    65   28   29 1
    66   28   62 1
    67   28   63 1
    68   29   64 1
    69   30   65 1
    70   31   66 1
    71   32   67 1
@<TRIPOS>MOLECULE
ZINC13719785
   37    37     0     0     0
SMALL
USER_CHARGES

@<TRIPOS>ATOM
      1 C1         -0.5154    1.3602    0.0038 C.3       1 <0>        -0.1592
      2 C2         -0.3088   -0.1557    0.0219 C.3       1 <0>        -0.1199
      3 C3          0.4399   -0.5834   -1.2420 C.3       1 <0>        -0.1494
      4 C4          0.6464   -2.0993   -1.2240 C.3       1 <0>        -0.0156
      5 N1          1.3653   -2.5100   -2.4375 N.4       1 <0>        -0.3722
      6 C5          0.5360   -2.2269   -3.6151 C.3       1 <0>        -0.0071
      7 C6          1.3120   -2.5777   -4.8864 C.3       1 <0>         0.0607
      8 H1          2.2230   -1.9809   -4.9331 H         1 <0>         0.0939
      9 C7          1.6758   -4.0650   -4.8619 C.3       1 <0>         0.0285
     10 H2          0.7646   -4.6632   -4.8669 H         1 <0>         0.0886
     11 C8          2.4774   -4.3636   -3.5916 C.3       1 <0>         0.1047
     12 H3          2.6923   -5.4309   -3.5393 H         1 <0>         0.1087
     13 C9          1.6582   -3.9467   -2.3683 C.3       1 <0>         0.0405
     14 H4          0.7235   -4.5071   -2.3493 H         1 <0>         0.1590
     15 C10         2.4551   -4.2433   -1.0964 C.3       1 <0>         0.0543
     16 O1          3.7102   -3.5623   -1.1509 O.3       1 <0>        -0.5525
     17 O2          3.7038   -3.6306   -3.6181 O.3       1 <0>        -0.5395
     18 O3          2.4628   -4.3835   -6.0113 O.3       1 <0>        -0.5478
     19 O4          0.5021   -2.3024   -6.0311 O.3       1 <0>        -0.5451
     20 H5          0.4534    1.8585   -0.0307 H         1 <0>         0.0599
     21 H6         -1.0980    1.6371   -0.8748 H         1 <0>         0.0594
     22 H7         -1.0488    1.6649    0.9043 H         1 <0>         0.0673
     23 H8          0.2738   -0.4326    0.9005 H         1 <0>         0.0735
     24 H9         -1.2776   -0.6540    0.0564 H         1 <0>         0.0734
     25 H10        -0.1427   -0.3065   -2.1207 H         1 <0>         0.0871
     26 H11         1.4087   -0.0851   -1.2766 H         1 <0>         0.0887
     27 H12         1.2290   -2.3762   -0.3454 H         1 <0>         0.1366
     28 H13        -0.3224   -2.5976   -1.1894 H         1 <0>         0.1313
     29 H14        -0.3748   -2.8240   -3.5695 H         1 <0>         0.1377
     30 H15         0.2753   -1.1687   -3.6294 H         1 <0>         0.1458
     31 H16         1.8933   -3.9008   -0.2274 H         1 <0>         0.0752
     32 H17         2.6274   -5.3168   -1.0176 H         1 <0>         0.0930
     33 H18         4.2694   -3.7053   -0.3751 H         1 <0>         0.4011
     34 H19         4.2728   -3.8429   -4.3706 H         1 <0>         0.4048
     35 H20         2.0173   -4.2131   -6.8525 H         1 <0>         0.3955
     36 H21         0.9319   -2.5017   -6.8741 H         1 <0>         0.4006
     37 H22         2.2299   -1.9944   -2.5057 H         1 <0>         0.4384
@<TRIPOS>BOND
     1    1    2 1
     2    1   20 1
     3    1   21 1
     4    1   22 1
     5    2    3 1
     6    2   23 1
     7    2   24 1
     8    3    4 1
     9    3   25 1
    10    3   26 1
    11    4    5 1
    12    4   27 1
    13    4   28 1
    14    5   13 1
    15    5    6 1
    16    5   37 1
    17    6    7 1
    18    6   29 1
    19    6   30 1
    20    7    8 1
    21    7    9 1
    22    7   19 1
    23    9   10 1
    24    9   11 1
    25    9   18 1
    26   11   12 1
    27   11   13 1
    28   11   17 1
    29   13   14 1
    30   13   15 1
    31   15   16 1
    32   15   31 1
    33   15   32 1
    34   16   33 1
    35   17   34 1
    36   18   35 1
    37   19   36 1
@<TRIPOS>MOLECULE
ZINC03870514
   25    25     0     0     0
SMALL
USER_CHARGES

@<TRIPOS>ATOM
      1 C1         -0.0178    1.4636    0.0101 C.3       1 <0>        -0.0404
      2 C2          1.4163    1.9970   -0.0007 C.3       1 <0>         0.0563
      3 H1          1.3994    3.0868    0.0071 H         1 <0>         0.1053
      4 C3          2.1538    1.4881    1.2412 C.3       1 <0>         0.0698
      5 H2          3.1920    1.8186    1.2095 H         1 <0>         0.0988
      6 C4          2.1040   -0.0424    1.2610 C.3       1 <0>         0.1037
      7 H3          2.5785   -0.4103    2.1707 H         1 <0>         0.1111
      8 C5          0.6443   -0.5002    1.2251 C.3       1 <0>         0.0487
      9 H4          0.1192   -0.1073    2.0957 H         1 <0>         0.1594
     10 N1          0.0021   -0.0041    0.0020 N.4       1 <0>        -0.4934
     11 C6          0.5894   -2.0291    1.2443 C.3       1 <0>         0.0539
     12 O1         -0.7718   -2.4558    1.3282 O.3       1 <0>        -0.5827
     13 O2          2.7946   -0.5571    0.1208 O.3       1 <0>        -0.5455
     14 O3          1.5239    2.0035    2.4157 O.3       1 <0>        -0.5494
     15 O4          2.0871    1.5386   -1.1763 O.3       1 <0>        -0.5412
     16 H5         -0.5288    1.8147    0.9066 H         1 <0>         0.1439
     17 H6         -0.5458    1.8242   -0.8727 H         1 <0>         0.1382
     18 H7         -0.9439   -0.3520   -0.0448 H         1 <0>         0.4364
     19 H8          1.0371   -2.4202    0.3306 H         1 <0>         0.0818
     20 H9          1.1409   -2.4017    2.1075 H         1 <0>         0.0947
     21 H10        -0.8826   -3.4163    1.3447 H         1 <0>         0.4113
     22 H11         3.7266   -0.3029    0.0776 H         1 <0>         0.4092
     23 H12         1.5149    2.9692    2.4656 H         1 <0>         0.4015
     24 H13         1.6713    1.8220   -2.0021 H         1 <0>         0.3948
     25 H14         0.5177   -0.3280   -0.8025 H         1 <0>         0.4339
@<TRIPOS>BOND
     1    1   10 1
     2    1    2 1
     3    1   16 1
     4    1   17 1
     5    2    3 1
     6    2    4 1
     7    2   15 1
     8    4    5 1
     9    4    6 1
    10    4   14 1
    11    6    7 1
    12    6    8 1
    13    6   13 1
    14    8    9 1
    15    8   10 1
    16    8   11 1
    17   10   18 1
    18   10   25 1
    19   11   12 1
    20   11   19 1
    21   11   20 1
    22   12   21 1
    23   13   22 1
    24   14   23 1
    25   15   24 1
