@<TRIPOS>MOLECULE
ZINC01671919
   53    55     0     0     0
SMALL
USER_CHARGES
2-[4-(4-diethylaminophenyl)aminophenyl]-1-phenyl-ethanone
@<TRIPOS>ATOM
      1 C1         10.2476   -5.5557    6.4493 C.3       1 <0>        -0.1731
      2 C2         11.2694   -4.5373    5.9396 C.3       1 <0>         0.1200
      3 N1         11.8177   -4.9942    4.6602 N.pl3     1 <0>        -0.6306
      4 C3         13.0139   -5.8397    4.6360 C.3       1 <0>         0.1200
      5 C4         14.2612   -4.9567    4.5633 C.3       1 <0>        -0.1730
      6 C5         11.1988   -4.6228    3.4610 C.ar      1 <0>         0.1923
      7 C6         11.7186   -5.0558    2.2482 C.ar      1 <0>        -0.1663
      8 C7         11.1080   -4.6895    1.0651 C.ar      1 <0>        -0.1136
      9 C8          9.9741   -3.8879    1.0881 C.ar      1 <0>         0.1202
     10 C9          9.4577   -3.4502    2.3007 C.ar      1 <0>        -0.1092
     11 C10        10.0647   -3.8216    3.4840 C.ar      1 <0>        -0.1660
     12 N2          9.3549   -3.5165   -0.1115 N.pl3     1 <0>        -0.6892
     13 C11         7.9738   -3.3112   -0.1502 C.ar      1 <0>         0.1930
     14 C12         7.4291   -2.4089   -1.0555 C.ar      1 <0>        -0.1701
     15 C13         6.0632   -2.2088   -1.0914 C.ar      1 <0>        -0.0708
     16 C14         5.2378   -2.9053   -0.2276 C.ar      1 <0>        -0.1181
     17 C15         5.7770   -3.8002    0.6783 C.ar      1 <0>        -0.0713
     18 C16         7.1416   -4.0092    0.7161 C.ar      1 <0>        -0.1643
     19 C17         3.7477   -2.6838   -0.2694 C.3       1 <0>        -0.1110
     20 C18         3.1235   -3.6495   -1.2435 C.2       1 <0>         0.3939
     21 O1          3.8198   -4.4396   -1.8444 O.2       1 <0>        -0.4380
     22 C19         1.6687   -3.6337   -1.4653 C.ar      1 <0>        -0.1705
     23 C20         1.0856   -4.5283   -2.3684 C.ar      1 <0>        -0.0624
     24 C21        -0.2781   -4.5069   -2.5711 C.ar      1 <0>        -0.1321
     25 C22        -1.0694   -3.6029   -1.8839 C.ar      1 <0>        -0.0887
     26 C23        -0.4999   -2.7143   -0.9886 C.ar      1 <0>        -0.1328
     27 C24         0.8622   -2.7236   -0.7745 C.ar      1 <0>        -0.0749
     28 H1          9.4408   -5.6555    5.7231 H         1 <0>         0.0583
     29 H2         10.7343   -6.5212    6.5866 H         1 <0>         0.0553
     30 H3          9.8396   -5.2158    7.4012 H         1 <0>         0.0631
     31 H4         12.0762   -4.4375    6.6658 H         1 <0>         0.0717
     32 H5         10.7827   -3.5718    5.8023 H         1 <0>         0.0739
     33 H6         13.0494   -6.4449    5.5418 H         1 <0>         0.0717
     34 H7         12.9796   -6.4927    3.7639 H         1 <0>         0.0739
     35 H8         15.1512   -5.5858    4.5452 H         1 <0>         0.0630
     36 H9         14.2257   -4.3515    3.6574 H         1 <0>         0.0581
     37 H10        14.2955   -4.3037    5.4353 H         1 <0>         0.0553
     38 H11        12.6006   -5.6789    2.2303 H         1 <0>         0.1238
     39 H12        11.5121   -5.0266    0.1220 H         1 <0>         0.1214
     40 H13         8.5787   -2.8229    2.3184 H         1 <0>         0.1235
     41 H14         9.6601   -3.4855    4.4272 H         1 <0>         0.1236
     42 H15         9.8851   -3.4017   -0.9156 H         1 <0>         0.4066
     43 H16         8.0731   -1.8650   -1.7306 H         1 <0>         0.1224
     44 H17         5.6391   -1.5078   -1.7951 H         1 <0>         0.1205
     45 H18         5.1299   -4.3392    1.3545 H         1 <0>         0.1203
     46 H19         7.5616   -4.7116    1.4208 H         1 <0>         0.1251
     47 H20         3.5581   -1.7464   -0.5615 H         1 <0>         0.0960
     48 H21         3.3282   -2.8469    0.7233 H         1 <0>         0.1063
     49 H22         1.7019   -5.2338   -2.9059 H         1 <0>         0.1332
     50 H23        -0.7299   -5.1971   -3.2682 H         1 <0>         0.1294
     51 H24        -2.1364   -3.5877   -2.0506 H         1 <0>         0.1278
     52 H25        -1.1240   -2.0116   -0.4564 H         1 <0>         0.1299
     53 H26         1.3052   -2.0294   -0.0758 H         1 <0>         0.1325
@<TRIPOS>BOND
     1    1    2 1
     2    1   28 1
     3    1   29 1
     4    1   30 1
     5    2    3 1
     6    2   31 1
     7    2   32 1
     8    3    4 1
     9    3    6 1
    10    4    5 1
    11    4   33 1
    12    4   34 1
    13    5   35 1
    14    5   36 1
    15    5   37 1
    16    6   11 ar
    17    6    7 ar
    18    7    8 ar
    19    7   38 1
    20    8    9 ar
    21    8   39 1
    22    9   10 ar
    23    9   12 1
    24   10   11 ar
    25   10   40 1
    26   11   41 1
    27   12   13 1
    28   12   42 1
    29   13   18 ar
    30   13   14 ar
    31   14   15 ar
    32   14   43 1
    33   15   16 ar
    34   15   44 1
    35   16   17 ar
    36   16   19 1
    37   17   18 ar
    38   17   45 1
    39   18   46 1
    40   19   20 1
    41   19   47 1
    42   19   48 1
    43   20   21 2
    44   20   22 1
    45   22   27 ar
    46   22   23 ar
    47   23   24 ar
    48   23   49 1
    49   24   25 ar
    50   24   50 1
    51   25   26 ar
    52   25   51 1
    53   26   27 ar
    54   26   52 1
    55   27   53 1
