@<TRIPOS>MOLECULE
ZINC00001601
   25    27     0     0     0
SMALL
USER_CHARGES

@<TRIPOS>ATOM
      1 C1         -0.0162    1.3409    0.0094 C.2       1 <0>        -0.2187
      2 C2          1.3313    1.7689   -0.0012 C.2       1 <0>        -0.1781
      3 C3          2.0923    0.6599   -0.0144 C.2       1 <0>        -0.0454
      4 O1          1.2819   -0.4111   -0.0124 O.3       1 <0>        -0.1710
      5 C4          0.0021   -0.0041    0.0020 C.2       1 <0>        -0.0248
      6 C5          3.5989    0.6249   -0.0294 C.3       1 <0>         0.2119
      7 N1          4.1006    0.6065    1.3469 N.pl3     1 <0>        -0.6923
      8 C6          5.4633    0.5737    1.5862 C.ar      1 <0>         0.5081
      9 C7          5.9623    0.5497    2.8999 C.ar      1 <0>        -0.1081
     10 C8          7.3553    0.5162    3.0797 C.ar      1 <0>         0.3014
     11 N2          7.5612    0.4989    4.4360 N.pl3     1 <0>        -0.5793
     12 H1          8.4203    0.4757    4.8859 H         1 <0>         0.4322
     13 C9          6.3372    0.5213    5.0355 C.2       1 <0>         0.2541
     14 N3          5.4005    0.5510    4.1325 N.2       1 <0>        -0.4641
     15 N4          8.1447    0.5082    2.0103 N.ar      1 <0>        -0.5611
     16 C10         7.6324    0.5311    0.7982 C.ar      1 <0>         0.3672
     17 N5          6.3303    0.5585    0.5792 N.ar      1 <0>        -0.5897
     18 H2         -0.8920    1.9726    0.0252 H         1 <0>         0.1520
     19 H3          1.6822    2.7903    0.0004 H         1 <0>         0.1515
     20 H4         -0.8653   -0.6475    0.0072 H         1 <0>         0.2063
     21 H5          3.9364   -0.2706   -0.5512 H         1 <0>         0.0894
     22 H6          3.9777    1.5089   -0.5424 H         1 <0>         0.1034
     23 H7          3.4778    0.6173    2.0904 H         1 <0>         0.4210
     24 H8          6.1695    0.5152    6.1024 H         1 <0>         0.2274
     25 H9          8.3019    0.5241   -0.0493 H         1 <0>         0.2066
@<TRIPOS>BOND
     1    1    5 2
     2    1    2 1
     3    1   18 1
     4    2    3 2
     5    2   19 1
     6    3    4 1
     7    3    6 1
     8    4    5 1
     9    5   20 1
    10    6    7 1
    11    6   21 1
    12    6   22 1
    13    7    8 1
    14    7   23 1
    15    8   17 ar
    16    8    9 ar
    17    9   14 1
    18    9   10 ar
    19   10   11 1
    20   10   15 ar
    21   11   12 1
    22   11   13 1
    23   13   14 2
    24   13   24 1
    25   15   16 ar
    26   16   17 ar
    27   16   25 1
