@<TRIPOS>MOLECULE
ZINC02539418
   64    69     0     0     0
SMALL
USER_CHARGES
8-anilino-5-(4-anilino-5-sulfo-1-naphthyl)naphthalene-1-sulfonic acid
@<TRIPOS>ATOM
      1 C1         -1.8301    0.2798    5.8682 C.ar      1 <0>        -0.2070
      2 C2         -0.6981   -0.2985    5.3235 C.ar      1 <0>        -0.0843
      3 C3          0.1696    0.4608    4.5636 C.ar      1 <0>        -0.1781
      4 C4         -0.0953    1.8074    4.3470 C.ar      1 <0>         0.3025
      5 C5         -1.2305    2.3865    4.9006 C.ar      1 <0>        -0.2067
      6 C6         -2.0970    1.6199    5.6547 C.ar      1 <0>        -0.0812
      7 N1          0.7804    2.5785    3.5794 N.pl3     1 <0>        -0.6771
      8 C7          0.6384    3.9636    3.5415 C.ar      1 <0>         0.1841
      9 C8          0.5608    4.6838    4.7170 C.ar      1 <0>        -0.1585
     10 C9          0.4188    6.0638    4.6995 C.ar      1 <0>        -0.0802
     11 C10         0.3516    6.7548    3.4994 C.ar      1 <0>        -0.0609
     12 C11         0.4281    6.0425    2.2771 C.ar      1 <0>        -0.0343
     13 C12         0.5729    4.6348    2.3009 C.ar      1 <0>        -0.0023
     14 C13         0.6493    3.9300    1.0893 C.ar      1 <0>        -0.6502
     15 C14         0.5891    4.6082   -0.0903 C.ar      1 <0>        -0.0302
     16 C15         0.4422    5.9930   -0.1129 C.ar      1 <0>        -0.1395
     17 C16         0.3643    6.7077    1.0445 C.ar      1 <0>        -0.0718
     18 S1          0.8295    2.1773    1.0945 S.o2      1 <0>         2.6956
     19 O1          0.7811    1.7599   -0.2629 O.2       1 <0>        -1.0540
     20 O2         -0.0684    1.6796    2.0770 O.2       1 <0>        -1.0145
     21 O3          2.2342    1.8708    1.5940 O.3       1 <0>        -1.0554
     22 C17         0.2007    8.2245    3.4951 C.ar      1 <0>        -0.0611
     23 C18         1.2080    9.0307    4.0028 C.ar      1 <0>        -0.0801
     24 C19         1.0783   10.4120    4.0051 C.ar      1 <0>        -0.1587
     25 C20        -0.0553   11.0189    3.5021 C.ar      1 <0>         0.1843
     26 C21        -1.1009   10.2286    2.9767 C.ar      1 <0>        -0.0024
     27 C22        -0.9716    8.8193    2.9669 C.ar      1 <0>        -0.0342
     28 C23        -2.0131    8.0356    2.4502 C.ar      1 <0>        -0.0718
     29 C24        -3.1299    8.6389    1.9549 C.ar      1 <0>        -0.1394
     30 C25        -3.2554   10.0260    1.9590 C.ar      1 <0>        -0.0303
     31 C26        -2.2654   10.8168    2.4585 C.ar      1 <0>        -0.6501
     32 S2         -2.4457   12.5696    2.4549 S.o2      1 <0>         2.6959
     33 O4         -1.2037   13.1046    2.0185 O.2       1 <0>        -1.0144
     34 O5         -3.6710   12.8504    1.7924 O.2       1 <0>        -1.0539
     35 O6         -2.6234   13.0067    3.9019 O.3       1 <0>        -1.0550
     36 N2         -0.1674   12.4073    3.5134 N.pl3     1 <0>        -0.6775
     37 C27         0.8562   13.1949    2.9818 C.ar      1 <0>         0.3022
     38 C28         1.8827   12.6049    2.2546 C.ar      1 <0>        -0.2066
     39 C29         2.8903   13.3873    1.7260 C.ar      1 <0>        -0.0812
     40 C30         2.8845   14.7553    1.9290 C.ar      1 <0>        -0.2070
     41 C31         1.8675   15.3452    2.6572 C.ar      1 <0>        -0.0843
     42 C32         0.8535   14.5696    3.1838 C.ar      1 <0>        -0.1781
     43 H1         -2.5071   -0.3163    6.4621 H         1 <0>         0.1022
     44 H2         -0.4928   -1.3453    5.4922 H         1 <0>         0.1069
     45 H3          1.0535    0.0085    4.1385 H         1 <0>         0.1120
     46 H4         -1.4372    3.4340    4.7380 H         1 <0>         0.1144
     47 H5         -2.9819    2.0683    6.0816 H         1 <0>         0.1058
     48 H6          1.5823    2.0920    3.0047 H         1 <0>         0.4302
     49 H7          0.6111    4.1657    5.6632 H         1 <0>         0.1251
     50 H8          0.3602    6.6061    5.6316 H         1 <0>         0.1228
     51 H9          0.6530    4.0643   -1.0211 H         1 <0>         0.1340
     52 H10         0.3928    6.5079   -1.0610 H         1 <0>         0.1220
     53 H11         0.2536    7.7815    1.0127 H         1 <0>         0.1284
     54 H12         2.1038    8.5781    4.4016 H         1 <0>         0.1228
     55 H13         1.8750   11.0209    4.4061 H         1 <0>         0.1251
     56 H14        -1.9289    6.9590    2.4412 H         1 <0>         0.1284
     57 H15        -3.9287    8.0331    1.5533 H         1 <0>         0.1220
     58 H16        -4.1504   10.4808    1.5609 H         1 <0>         0.1340
     59 H17        -1.0621   12.8834    3.9410 H         1 <0>         0.4300
     60 H18         1.8902   11.5361    2.0994 H         1 <0>         0.1144
     61 H19         3.6861   12.9299    1.1568 H         1 <0>         0.1058
     62 H20         3.6762   15.3643    1.5183 H         1 <0>         0.1022
     63 H21         1.8660   16.4138    2.8138 H         1 <0>         0.1069
     64 H22         0.0596   15.0309    3.7524 H         1 <0>         0.1120
@<TRIPOS>BOND
     1    1    6 ar
     2    1    2 ar
     3    1   43 1
     4    2    3 ar
     5    2   44 1
     6    3    4 ar
     7    3   45 1
     8    4    5 ar
     9    4    7 1
    10    5    6 ar
    11    5   46 1
    12    6   47 1
    13    7    8 1
    14    7   48 1
    15    8   13 ar
    16    8    9 ar
    17    9   10 ar
    18    9   49 1
    19   10   11 ar
    20   10   50 1
    21   11   12 ar
    22   11   22 1
    23   12   17 ar
    24   12   13 ar
    25   13   14 ar
    26   14   15 ar
    27   14   18 1
    28   15   16 ar
    29   15   51 1
    30   16   17 ar
    31   16   52 1
    32   17   53 1
    33   18   19 2
    34   18   20 2
    35   18   21 1
    36   22   27 ar
    37   22   23 ar
    38   23   24 ar
    39   23   54 1
    40   24   25 ar
    41   24   55 1
    42   25   26 ar
    43   25   36 1
    44   26   31 ar
    45   26   27 ar
    46   27   28 ar
    47   28   29 ar
    48   28   56 1
    49   29   30 ar
    50   29   57 1
    51   30   31 ar
    52   30   58 1
    53   31   32 1
    54   32   33 2
    55   32   34 2
    56   32   35 1
    57   36   37 1
    58   36   59 1
    59   37   42 ar
    60   37   38 ar
    61   38   39 ar
    62   38   60 1
    63   39   40 ar
    64   39   61 1
    65   40   41 ar
    66   40   62 1
    67   41   42 ar
    68   41   63 1
    69   42   64 1
@<TRIPOS>MOLECULE
ZINC34801951
   68    73     0     0     0
SMALL
USER_CHARGES

@<TRIPOS>ATOM
      1 C1          1.4421    1.4789   -3.9746 C.ar      1 <0>        -0.0951
      2 C2          2.5867    2.1911   -3.7784 C.ar      1 <0>        -0.1246
      3 C3          3.8019    1.5159   -3.5816 C.ar      1 <0>         0.0823
      4 C4          5.0009    2.2267   -3.3757 C.ar      1 <0>        -0.7057
      5 C5          6.1668    1.5609   -3.1867 C.ar      1 <0>         0.0451
      6 C6          6.2055    0.1534   -3.1922 C.ar      1 <0>        -0.0711
      7 C7          5.0352   -0.5836   -3.3934 C.ar      1 <0>         0.3364
      8 C8          3.8164    0.0992   -3.5907 C.ar      1 <0>        -0.1308
      9 C9          2.6177   -0.6019   -3.7958 C.ar      1 <0>        -0.0928
     10 C10         1.4571    0.0865   -3.9835 C.ar      1 <0>        -0.1372
     11 N1          5.0714   -1.9683   -3.3987 N.pl3     1 <0>        -0.8336
     12 N2          7.3881   -0.4923   -3.0011 N.2       1 <0>        -0.1932
     13 N3          8.4701    0.1850   -2.8155 N.2       1 <0>        -0.2574
     14 C11         9.6564   -0.4627   -2.6238 C.ar      1 <0>         0.0738
     15 C12         9.7004   -1.8611   -2.6343 C.ar      1 <0>        -0.1157
     16 C13        10.8925   -2.5102   -2.4416 C.ar      1 <0>        -0.1091
     17 C14        12.0624   -1.7765   -2.2350 C.ar      1 <0>        -0.0369
     18 C15        12.0201   -0.3808   -2.2244 C.ar      1 <0>        -0.1081
     19 C16        10.8304    0.2712   -2.4225 C.ar      1 <0>        -0.0695
     20 C17        13.3492   -2.4791   -2.0266 C.ar      1 <0>        -0.0369
     21 C18        13.3923   -3.8747   -2.0425 C.ar      1 <0>        -0.1080
     22 C19        14.5829   -4.5266   -1.8501 C.ar      1 <0>        -0.0695
     23 C20        15.7551   -3.7928   -1.6377 C.ar      1 <0>         0.0738
     24 C21        15.7102   -2.3946   -1.6220 C.ar      1 <0>        -0.1157
     25 C22        14.5191   -1.7454   -1.8200 C.ar      1 <0>        -0.1091
     26 N4         16.9413   -4.4406   -1.4456 N.2       1 <0>        -0.2575
     27 N5         18.0217   -3.7634   -1.2498 N.2       1 <0>        -0.1932
     28 C23        19.2041   -4.4091   -1.0582 C.ar      1 <0>        -0.0711
     29 C24        20.3717   -3.6723   -0.8407 C.ar      1 <0>         0.3365
     30 C25        21.5905   -4.3552   -0.6436 C.ar      1 <0>        -0.1308
     31 C26        21.6079   -5.7717   -0.6698 C.ar      1 <0>         0.0823
     32 C27        20.4116   -6.4822   -0.8918 C.ar      1 <0>        -0.7057
     33 C28        19.2446   -5.8165   -1.0744 C.ar      1 <0>         0.0452
     34 S1         20.4311   -8.2438   -0.9254 S.o2      1 <0>         2.6986
     35 O1         20.3700   -8.6934    0.4567 O.2       1 <0>        -1.0620
     36 O2         19.2645   -8.6647   -1.6856 O.2       1 <0>        -1.0608
     37 O3         21.6726   -8.6403   -1.5714 O.3       1 <0>        -1.0606
     38 C29        22.8230   -6.4469   -0.4727 C.ar      1 <0>        -0.1245
     39 C30        23.9648   -5.7349   -0.2597 C.ar      1 <0>        -0.0951
     40 C31        23.9469   -4.3428   -0.2341 C.ar      1 <0>        -0.1372
     41 C32        22.7863   -3.6543   -0.4215 C.ar      1 <0>        -0.0928
     42 N6         20.3328   -2.2879   -0.8194 N.pl3     1 <0>        -0.8335
     43 S2          4.9852    3.9886   -3.3646 S.o2      1 <0>         2.6986
     44 O4          4.5839    4.3990   -2.0280 O.2       1 <0>        -1.0620
     45 O5          6.3355    4.4251   -3.6844 O.2       1 <0>        -1.0608
     46 O6          4.0251    4.4089   -4.3733 O.3       1 <0>        -1.0606
     47 H1          0.5085    2.0018   -4.1212 H         1 <0>         0.1260
     48 H2          2.5596    3.2708   -3.7745 H         1 <0>         0.1674
     49 H3          7.0787    2.1180   -3.0300 H         1 <0>         0.1511
     50 H4          2.6155   -1.6819   -3.8049 H         1 <0>         0.1184
     51 H5          0.5361   -0.4551   -4.1412 H         1 <0>         0.1214
     52 H6          5.9123   -2.4320   -3.2622 H         1 <0>         0.4127
     53 H7          4.2557   -2.4743   -3.5389 H         1 <0>         0.4017
     54 H8          8.7956   -2.4289   -2.7936 H         1 <0>         0.1314
     55 H9         10.9266   -3.5896   -2.4492 H         1 <0>         0.1275
     56 H10        12.9257    0.1854   -2.0641 H         1 <0>         0.1323
     57 H11        10.7988    1.3507   -2.4190 H         1 <0>         0.1380
     58 H12        12.4873   -4.4409   -2.2061 H         1 <0>         0.1323
     59 H13        14.6160   -5.6060   -1.8622 H         1 <0>         0.1380
     60 H14        16.6142   -1.8268   -1.4581 H         1 <0>         0.1314
     61 H15        14.4848   -0.6659   -1.8120 H         1 <0>         0.1275
     62 H16        18.3341   -6.3735   -1.2391 H         1 <0>         0.1510
     63 H17        22.8523   -7.5264   -0.4895 H         1 <0>         0.1674
     64 H18        24.8975   -6.2579   -0.1081 H         1 <0>         0.1260
     65 H19        24.8656   -3.8014   -0.0630 H         1 <0>         0.1214
     66 H20        22.7862   -2.5745   -0.3989 H         1 <0>         0.1184
     67 H21        19.4918   -1.8242   -0.9559 H         1 <0>         0.4128
     68 H22        21.1465   -1.7821   -0.6679 H         1 <0>         0.4017
@<TRIPOS>BOND
     1    1   10 ar
     2    1    2 ar
     3    1   47 1
     4    2    3 ar
     5    2   48 1
     6    3    8 ar
     7    3    4 ar
     8    4    5 ar
     9    4   43 1
    10    5    6 ar
    11    5   49 1
    12    6    7 ar
    13    6   12 1
    14    7    8 ar
    15    7   11 1
    16    8    9 ar
    17    9   10 ar
    18    9   50 1
    19   10   51 1
    20   11   52 1
    21   11   53 1
    22   12   13 2
    23   13   14 1
    24   14   19 ar
    25   14   15 ar
    26   15   16 ar
    27   15   54 1
    28   16   17 ar
    29   16   55 1
    30   17   18 ar
    31   17   20 1
    32   18   19 ar
    33   18   56 1
    34   19   57 1
    35   20   25 ar
    36   20   21 ar
    37   21   22 ar
    38   21   58 1
    39   22   23 ar
    40   22   59 1
    41   23   24 ar
    42   23   26 1
    43   24   25 ar
    44   24   60 1
    45   25   61 1
    46   26   27 2
    47   27   28 1
    48   28   33 ar
    49   28   29 ar
    50   29   30 ar
    51   29   42 1
    52   30   41 ar
    53   30   31 ar
    54   31   32 ar
    55   31   38 ar
    56   32   33 ar
    57   32   34 1
    58   33   62 1
    59   34   35 2
    60   34   36 2
    61   34   37 1
    62   38   39 ar
    63   38   63 1
    64   39   40 ar
    65   39   64 1
    66   40   41 ar
    67   40   65 1
    68   41   66 1
    69   42   67 1
    70   42   68 1
    71   43   44 2
    72   43   45 2
    73   43   46 1
