@<TRIPOS>MOLECULE
ZINC04793192
   32    33     0     0     0
SMALL
USER_CHARGES

@<TRIPOS>ATOM
      1 C1         -0.0187    1.5258    0.0104 C.3       1 <0>        -0.1731
      2 C2          0.0021   -0.0041    0.0020 C.3       1 <0>         0.0913
      3 N1         -1.3723   -0.5112    0.0124 N.pl3     1 <0>        -0.5203
      4 C3         -2.0094   -0.7513    1.2163 C.ar      1 <0>         0.1712
      5 C4         -1.4905   -0.5662    2.5094 C.ar      1 <0>        -0.1676
      6 C5         -2.2500   -0.8515    3.6236 C.ar      1 <0>         0.1693
      7 C6         -3.5487   -1.3301    3.5043 C.ar      1 <0>        -0.2138
      8 C7         -4.0819   -1.5205    2.2422 C.ar      1 <0>         0.0032
      9 C8         -3.3231   -1.2351    1.1318 C.ar      1 <0>        -0.2198
     10 S1         -3.6141   -1.3345   -0.6181 S.3       1 <0>         0.1230
     11 C9         -2.0228   -0.7401   -1.1673 C.2       1 <0>         0.2214
     12 C10        -1.5620   -0.5581   -2.4650 C.2       1 <0>        -0.3307
     13 C11        -2.3849   -0.8515   -3.5396 C.2       1 <0>         0.3841
     14 O1         -3.5126   -1.2692   -3.3468 O.2       1 <0>        -0.4977
     15 C12        -1.8850   -0.6541   -4.9475 C.3       1 <0>        -0.1881
     16 O2         -1.7188   -0.6617    4.8607 O.3       1 <0>        -0.3138
     17 C13        -2.5516   -0.9740    5.9792 C.3       1 <0>         0.0251
     18 H1          1.0039    1.9031    0.0027 H         1 <0>         0.0791
     19 H2         -0.5459    1.8868   -0.8726 H         1 <0>         0.0664
     20 H3         -0.5289    1.8773    0.9072 H         1 <0>         0.0626
     21 H4          0.5123   -0.3556   -0.8948 H         1 <0>         0.0976
     22 H5          0.5293   -0.3651    0.8851 H         1 <0>         0.0922
     23 H6         -0.4833   -0.1959    2.6315 H         1 <0>         0.1374
     24 H7         -4.1339   -1.5507    4.3848 H         1 <0>         0.1448
     25 H8         -5.0897   -1.8922    2.1295 H         1 <0>         0.1419
     26 H9         -0.5620   -0.1877   -2.6360 H         1 <0>         0.1438
     27 H10        -0.8625   -0.2773   -4.9205 H         1 <0>         0.0742
     28 H11        -1.9075   -1.6061   -5.4779 H         1 <0>         0.0860
     29 H12        -2.5233    0.0639   -5.4624 H         1 <0>         0.0859
     30 H13        -3.4490   -0.3560    5.9478 H         1 <0>         0.0600
     31 H14        -2.8334   -2.0262    5.9398 H         1 <0>         0.0600
     32 H15        -2.0077   -0.7779    6.9032 H         1 <0>         0.1044
@<TRIPOS>BOND
     1    1    2 1
     2    1   18 1
     3    1   19 1
     4    1   20 1
     5    2    3 1
     6    2   21 1
     7    2   22 1
     8    3   11 1
     9    3    4 1
    10    4    9 ar
    11    4    5 ar
    12    5    6 ar
    13    5   23 1
    14    6    7 ar
    15    6   16 1
    16    7    8 ar
    17    7   24 1
    18    8    9 ar
    19    8   25 1
    20    9   10 1
    21   10   11 1
    22   11   12 2
    23   12   13 1
    24   12   26 1
    25   13   14 2
    26   13   15 1
    27   15   27 1
    28   15   28 1
    29   15   29 1
    30   16   17 1
    31   17   30 1
    32   17   31 1
    33   17   32 1
