@<TRIPOS>MOLECULE
ZINC03786387
   36    39     0     0     0
SMALL
USER_CHARGES
6-[(4-chlorophenyl)-(1,2,4-triazol-1-yl)methyl]-1-methyl-benzotriazole
@<TRIPOS>ATOM
      1 C1          6.7189    3.7099    3.4105 C.3       1 <0>         0.0958
      2 N1          6.2576    2.3767    3.8054 N.pl3     1 <0>        -0.3922
      3 C2          5.4741    1.5244    3.0644 C.ar      1 <0>         0.0853
      4 C3          4.8905    1.5980    1.8041 C.ar      1 <0>        -0.0929
      5 C4          4.1463    0.5508    1.3378 C.ar      1 <0>        -0.0575
      6 C5          3.9621   -0.5862    2.1141 C.ar      1 <0>        -0.1198
      7 C6          4.5285   -0.6855    3.3511 C.ar      1 <0>        -0.0254
      8 C7          5.2962    0.3742    3.8526 C.ar      1 <0>        -0.0076
      9 N2          5.9594    0.5650    5.0104 N.2       1 <0>        -0.2176
     10 N3          6.5286    1.7187    5.0144 N.2       1 <0>         0.0002
     11 C8          3.5150    0.6330   -0.0281 C.3       1 <0>         0.2518
     12 H1          3.6782    1.6269   -0.4447 H         1 <0>         0.1290
     13 C9          4.1380   -0.3992   -0.9323 C.ar      1 <0>        -0.1102
     14 C10         5.3990   -0.8919   -0.6527 C.ar      1 <0>        -0.0776
     15 C11         5.9685   -1.8426   -1.4785 C.ar      1 <0>        -0.1055
     16 C12         5.2810   -2.2930   -2.5915 C.ar      1 <0>        -0.0220
     17 C13         4.0214   -1.7954   -2.8740 C.ar      1 <0>        -0.1045
     18 C14         3.4505   -0.8487   -2.0443 C.ar      1 <0>        -0.0889
     19 Cl1         5.9984   -3.4824   -3.6328 Cl        1 <0>        -0.0589
     20 N4          2.0762    0.3803    0.0829 N.pl3     1 <0>        -0.3757
     21 C15         1.4689   -0.8186    0.1152 C.2       1 <0>         0.2616
     22 N5          0.1803   -0.6182    0.2204 N.2       1 <0>        -0.5386
     23 C16        -0.0721    0.6896    0.2580 C.2       1 <0>         0.2033
     24 N6          1.0574    1.3424    0.1769 N.2       1 <0>        -0.3124
     25 H2          5.9896    4.4554    3.7275 H         1 <0>         0.0856
     26 H3          7.6791    3.9170    3.8832 H         1 <0>         0.1009
     27 H4          6.8313    3.7493    2.3270 H         1 <0>         0.0935
     28 H5          5.0247    2.4803    1.1958 H         1 <0>         0.1380
     29 H6          3.3674   -1.4028    1.7321 H         1 <0>         0.1337
     30 H7          4.3821   -1.5763    3.9440 H         1 <0>         0.1449
     31 H8          5.9373   -0.5370    0.2137 H         1 <0>         0.1381
     32 H9          6.9519   -2.2307   -1.2575 H         1 <0>         0.1404
     33 H10         3.4844   -2.1463   -3.7428 H         1 <0>         0.1401
     34 H11         2.4674   -0.4600   -2.2649 H         1 <0>         0.1322
     35 H12         1.9591   -1.7795    0.0630 H         1 <0>         0.2138
     36 H13        -1.0516    1.1376    0.3378 H         1 <0>         0.2193
@<TRIPOS>BOND
     1    1    2 1
     2    1   25 1
     3    1   26 1
     4    1   27 1
     5    2   10 1
     6    2    3 1
     7    3    8 ar
     8    3    4 ar
     9    4    5 ar
    10    4   28 1
    11    5    6 ar
    12    5   11 1
    13    6    7 ar
    14    6   29 1
    15    7    8 ar
    16    7   30 1
    17    8    9 1
    18    9   10 2
    19   11   12 1
    20   11   13 1
    21   11   20 1
    22   13   18 ar
    23   13   14 ar
    24   14   15 ar
    25   14   31 1
    26   15   16 ar
    27   15   32 1
    28   16   17 ar
    29   16   19 1
    30   17   18 ar
    31   17   33 1
    32   18   34 1
    33   20   24 1
    34   20   21 1
    35   21   22 2
    36   21   35 1
    37   22   23 1
    38   23   24 2
    39   23   36 1
@<TRIPOS>MOLECULE
ZINC03791538
   36    39     0     0     0
SMALL
USER_CHARGES
6-[(4-chlorophenyl)-(1,2,4-triazol-1-yl)methyl]-1-methyl-benzotriazole
@<TRIPOS>ATOM
      1 C1          4.2786   -1.2032   -4.8424 C.3       1 <0>         0.0958
      2 N1          4.4046    0.2346   -4.5914 N.pl3     1 <0>        -0.3922
      3 C2          4.0101    0.9099   -3.4609 C.ar      1 <0>         0.0851
      4 C3          3.4158    0.5256   -2.2636 C.ar      1 <0>        -0.0926
      5 C4          3.1388    1.4650   -1.3105 C.ar      1 <0>        -0.0576
      6 C5          3.4551    2.8010   -1.5220 C.ar      1 <0>        -0.1198
      7 C6          4.0431    3.2028   -2.6855 C.ar      1 <0>        -0.0256
      8 C7          4.3328    2.2602   -3.6812 C.ar      1 <0>        -0.0075
      9 N2          4.8953    2.3525   -4.9026 N.2       1 <0>        -0.2176
     10 N3          4.9516    1.1932   -5.4573 N.2       1 <0>         0.0003
     11 C8          2.4901    1.0470   -0.0161 C.3       1 <0>         0.2517
     12 H1          2.4011   -0.0390    0.0116 H         1 <0>         0.1290
     13 C9          1.1195    1.6659    0.0818 C.ar      1 <0>        -0.1102
     14 C10         0.5244    1.8349    1.3180 C.ar      1 <0>        -0.0890
     15 C11        -0.7350    2.3973    1.4080 C.ar      1 <0>        -0.1045
     16 C12        -1.3954    2.8012    0.2613 C.ar      1 <0>        -0.0220
     17 C13        -0.7991    2.6322   -0.9756 C.ar      1 <0>        -0.1055
     18 C14         0.4581    2.0649   -1.0647 C.ar      1 <0>        -0.0776
     19 Cl1        -2.9747    3.5131    0.3739 Cl        1 <0>        -0.0589
     20 N4          3.3113    1.4986    1.1099 N.pl3     1 <0>        -0.3757
     21 C15         3.2949    2.7147    1.6824 C.2       1 <0>         0.2617
     22 N5          4.1718    2.7182    2.6534 N.2       1 <0>        -0.5387
     23 C16         4.7650    1.5277    2.7309 C.2       1 <0>         0.2033
     24 N6          4.2679    0.7450    1.8096 N.2       1 <0>        -0.3126
     25 H2          5.1748   -1.7136   -4.4897 H         1 <0>         0.0856
     26 H3          3.4080   -1.5897   -4.3125 H         1 <0>         0.0935
     27 H4          4.1592   -1.3762   -5.9120 H         1 <0>         0.1008
     28 H5          3.1702   -0.5115   -2.0893 H         1 <0>         0.1380
     29 H6          3.2334    3.5297   -0.7564 H         1 <0>         0.1338
     30 H7          4.2842    4.2443   -2.8390 H         1 <0>         0.1449
     31 H8          1.0417    1.5233    2.2134 H         1 <0>         0.1322
     32 H9         -1.2018    2.5248    2.3735 H         1 <0>         0.1401
     33 H10        -1.3160    2.9432   -1.8714 H         1 <0>         0.1404
     34 H11         0.9237    1.9330   -2.0302 H         1 <0>         0.1382
     35 H12         2.6670    3.5440    1.3919 H         1 <0>         0.2138
     36 H13         5.5295    1.2526    3.4424 H         1 <0>         0.2193
@<TRIPOS>BOND
     1    1    2 1
     2    1   25 1
     3    1   26 1
     4    1   27 1
     5    2   10 1
     6    2    3 1
     7    3    8 ar
     8    3    4 ar
     9    4    5 ar
    10    4   28 1
    11    5    6 ar
    12    5   11 1
    13    6    7 ar
    14    6   29 1
    15    7    8 ar
    16    7   30 1
    17    8    9 1
    18    9   10 2
    19   11   12 1
    20   11   13 1
    21   11   20 1
    22   13   18 ar
    23   13   14 ar
    24   14   15 ar
    25   14   31 1
    26   15   16 ar
    27   15   32 1
    28   16   17 ar
    29   16   19 1
    30   17   18 ar
    31   17   33 1
    32   18   34 1
    33   20   24 1
    34   20   21 1
    35   21   22 2
    36   21   35 1
    37   22   23 1
    38   23   24 2
    39   23   36 1
@<TRIPOS>MOLECULE
ZINC36087977
   43    45     0     0     0
SMALL
USER_CHARGES

@<TRIPOS>ATOM
      1 C1         -0.0187    1.5258    0.0104 C.3       1 <0>        -0.1261
      2 C2          0.0021   -0.0041    0.0020 C.3       1 <0>        -0.0605
      3 C3         -1.3895   -0.7050    0.0620 C.3       1 <0>        -0.1123
      4 C4         -1.0841   -2.1388    0.5524 C.3       1 <0>        -0.1202
      5 C5          0.4633   -2.1691    0.7425 C.3       1 <0>        -0.0933
      6 H1          0.8484   -2.9565    1.3905 H         1 <0>         0.1010
      7 C6          0.7270   -0.6945    1.2108 C.3       1 <0>        -0.0626
      8 C7          2.2202   -0.3632    1.2496 C.3       1 <0>        -0.1446
      9 C8          0.0423   -0.3846    2.5435 C.3       1 <0>        -0.1370
     10 C9          1.0354   -2.1392   -0.7077 C.3       1 <0>        -0.1319
     11 C10         0.7443   -0.6691   -1.1972 C.3       1 <0>         0.0886
     12 H2          1.6654   -0.1305   -1.4198 H         1 <0>         0.0901
     13 O1         -0.1023   -0.7073   -2.3478 O.3       1 <0>        -0.3390
     14 C11         0.4970   -0.6493   -3.5475 C.2       1 <0>         0.4603
     15 O2          1.7004   -0.5689   -3.6184 O.2       1 <0>        -0.4965
     16 C12        -0.3313   -0.6846   -4.8060 C.3       1 <0>        -0.0763
     17 C13         0.5759   -0.6063   -6.0068 C.ar      1 <0>        -0.0351
     18 C14         0.9293    0.6191   -6.5505 C.ar      1 <0>        -0.1570
     19 C15         1.7634    0.6517   -7.6521 C.ar      1 <0>         0.1020
     20 N1          2.2208   -0.4644   -8.1850 N.ar      1 <0>        -0.4822
     21 C16         1.9057   -1.6472   -7.6944 C.ar      1 <0>         0.1019
     22 C17         1.0815   -1.7578   -6.5905 C.ar      1 <0>        -0.1570
     23 H3          1.0039    1.9031    0.0027 H         1 <0>         0.0597
     24 H4         -0.5459    1.8868   -0.8726 H         1 <0>         0.0600
     25 H5         -0.5289    1.8773    0.9072 H         1 <0>         0.0662
     26 H6         -2.0427   -0.1928    0.7685 H         1 <0>         0.0660
     27 H7         -1.8449   -0.7309   -0.9279 H         1 <0>         0.0755
     28 H8         -1.5872   -2.3315    1.4999 H         1 <0>         0.0660
     29 H9         -1.3893   -2.8696   -0.1965 H         1 <0>         0.0650
     30 H10         2.3508    0.7147    1.3454 H         1 <0>         0.0584
     31 H11         2.6811   -0.8622    2.1020 H         1 <0>         0.0592
     32 H12         2.6925   -0.7060    0.3290 H         1 <0>         0.0588
     33 H13        -0.9869   -0.7422    2.5150 H         1 <0>         0.0630
     34 H14         0.5778   -0.8829    3.3516 H         1 <0>         0.0573
     35 H15         0.0484    0.6921    2.7133 H         1 <0>         0.0572
     36 H16         2.1105   -2.3182   -0.6958 H         1 <0>         0.0730
     37 H17         0.5329   -2.8799   -1.3298 H         1 <0>         0.0761
     38 H18        -0.9004   -1.6136   -4.8404 H         1 <0>         0.1202
     39 H19        -1.0175    0.1623   -4.8132 H         1 <0>         0.1203
     40 H20         0.5573    1.5366   -6.1190 H         1 <0>         0.1348
     41 H21         2.0434    1.6022   -8.0816 H         1 <0>         0.1583
     42 H22         2.2995   -2.5395   -8.1581 H         1 <0>         0.1582
     43 H23         0.8310   -2.7292   -6.1903 H         1 <0>         0.1347
@<TRIPOS>BOND
     1    1    2 1
     2    1   23 1
     3    1   24 1
     4    1   25 1
     5    2    7 1
     6    2   11 1
     7    2    3 1
     8    3    4 1
     9    3   26 1
    10    3   27 1
    11    4    5 1
    12    4   28 1
    13    4   29 1
    14    5    6 1
    15    5    7 1
    16    5   10 1
    17    7    8 1
    18    7    9 1
    19    8   30 1
    20    8   31 1
    21    8   32 1
    22    9   33 1
    23    9   34 1
    24    9   35 1
    25   10   11 1
    26   10   36 1
    27   10   37 1
    28   11   12 1
    29   11   13 1
    30   13   14 1
    31   14   15 2
    32   14   16 1
    33   16   17 1
    34   16   38 1
    35   16   39 1
    36   17   22 ar
    37   17   18 ar
    38   18   19 ar
    39   18   40 1
    40   19   20 ar
    41   19   41 1
    42   20   21 ar
    43   21   22 ar
    44   21   42 1
    45   22   43 1
@<TRIPOS>MOLECULE
ZINC36087979
   43    45     0     0     0
SMALL
USER_CHARGES

@<TRIPOS>ATOM
      1 C1         -0.0187    1.5258    0.0104 C.3       1 <0>        -0.1227
      2 C2          0.0021   -0.0041    0.0020 C.3       1 <0>        -0.0578
      3 C3          0.7443   -0.6691   -1.1972 C.3       1 <0>        -0.1162
      4 C4          1.0617   -2.1027   -0.7139 C.3       1 <0>        -0.1242
      5 C5          0.4813   -2.1688    0.7318 C.3       1 <0>        -0.0939
      6 H1          0.8820   -2.9559    1.3706 H         1 <0>         0.1015
      7 C6          0.7270   -0.6945    1.2108 C.3       1 <0>        -0.0617
      8 C7          0.0314   -0.4000    2.5413 C.3       1 <0>        -0.1383
      9 C8          2.2164   -0.3480    1.2605 C.3       1 <0>        -0.1388
     10 C9         -1.0651   -2.1745    0.5318 C.3       1 <0>        -0.1323
     11 C10        -1.3895   -0.7050    0.0620 C.3       1 <0>         0.0882
     12 H2         -1.8449   -0.7309   -0.9279 H         1 <0>         0.0851
     13 O1         -2.2459   -0.0336    0.9882 O.3       1 <0>        -0.3326
     14 C11        -3.5639   -0.0707    0.7366 C.2       1 <0>         0.4583
     15 O2         -3.9767   -0.6539   -0.2377 O.2       1 <0>        -0.4964
     16 C12        -4.5287    0.6151    1.6693 C.3       1 <0>        -0.0763
     17 C13        -5.9360    0.4250    1.1650 C.ar      1 <0>        -0.0351
     18 C14        -6.5030    1.3334    0.2842 C.ar      1 <0>        -0.1570
     19 C15        -7.7963    1.1263   -0.1569 C.ar      1 <0>         0.1019
     20 N1         -8.4887    0.0807    0.2507 N.ar      1 <0>        -0.4823
     21 C16        -7.9817   -0.8033    1.0877 C.ar      1 <0>         0.1018
     22 C17        -6.6926   -0.6653    1.5663 C.ar      1 <0>        -0.1570
     23 H3          1.0039    1.9031    0.0027 H         1 <0>         0.0630
     24 H4         -0.5459    1.8868   -0.8726 H         1 <0>         0.0559
     25 H5         -0.5289    1.8773    0.9072 H         1 <0>         0.0667
     26 H6          0.0986   -0.6982   -2.0748 H         1 <0>         0.0654
     27 H7          1.6654   -0.1305   -1.4198 H         1 <0>         0.0747
     28 H8          0.5719   -2.8366   -1.3539 H         1 <0>         0.0659
     29 H9          2.1388   -2.2689   -0.6989 H         1 <0>         0.0690
     30 H10        -0.9940   -0.7680    2.5045 H         1 <0>         0.0690
     31 H11         0.5672   -0.8977    3.3495 H         1 <0>         0.0511
     32 H12         0.0252    0.6756    2.7178 H         1 <0>         0.0564
     33 H13         2.3353    0.7305    1.3637 H         1 <0>         0.0567
     34 H14         2.6774   -0.8476    2.1126 H         1 <0>         0.0557
     35 H15         2.6976   -0.6802    0.3406 H         1 <0>         0.0607
     36 H16        -1.3483   -2.9115   -0.2197 H         1 <0>         0.0770
     37 H17        -1.5696   -2.3801    1.4759 H         1 <0>         0.0724
     38 H18        -4.4387    0.1839    2.6664 H         1 <0>         0.1201
     39 H19        -4.2985    1.6797    1.7117 H         1 <0>         0.1204
     40 H20        -5.9412    2.1921   -0.0527 H         1 <0>         0.1348
     41 H21        -8.2452    1.8292   -0.8431 H         1 <0>         0.1582
     42 H22        -8.5794   -1.6471    1.3995 H         1 <0>         0.1582
     43 H23        -6.2812   -1.3953    2.2477 H         1 <0>         0.1346
@<TRIPOS>BOND
     1    1    2 1
     2    1   23 1
     3    1   24 1
     4    1   25 1
     5    2    7 1
     6    2   11 1
     7    2    3 1
     8    3    4 1
     9    3   26 1
    10    3   27 1
    11    4    5 1
    12    4   28 1
    13    4   29 1
    14    5    6 1
    15    5    7 1
    16    5   10 1
    17    7    8 1
    18    7    9 1
    19    8   30 1
    20    8   31 1
    21    8   32 1
    22    9   33 1
    23    9   34 1
    24    9   35 1
    25   10   11 1
    26   10   36 1
    27   10   37 1
    28   11   12 1
    29   11   13 1
    30   13   14 1
    31   14   15 2
    32   14   16 1
    33   16   17 1
    34   16   38 1
    35   16   39 1
    36   17   22 ar
    37   17   18 ar
    38   18   19 ar
    39   18   40 1
    40   19   20 ar
    41   19   41 1
    42   20   21 ar
    43   21   22 ar
    44   21   42 1
    45   22   43 1
@<TRIPOS>MOLECULE
ZINC05138115
   45    46     0     0     0
SMALL
USER_CHARGES
(4-tert-butylcyclohexyl) 2-(4-pyridyl)acetate
@<TRIPOS>ATOM
      1 C1         -4.3157    1.0135    2.5473 C.3       1 <0>        -0.1452
      2 C2         -2.8804    1.5431    2.5365 C.3       1 <0>        -0.0640
      3 C3         -2.1404    1.0362    3.7760 C.3       1 <0>        -0.1449
      4 C4         -2.9011    3.0729    2.5449 C.3       1 <0>        -0.1480
      5 C5         -2.1642    1.0497    1.2777 C.3       1 <0>        -0.0788
      6 C6         -0.7288    1.5792    1.2668 C.3       1 <0>        -0.1156
      7 C7         -0.0127    1.0858    0.0080 C.3       1 <0>        -0.1152
      8 C8         -0.7527    1.5927   -1.2315 C.3       1 <0>         0.0910
      9 C9         -2.1881    1.0631   -1.2207 C.3       1 <0>        -0.1344
     10 C10        -2.9042    1.5565    0.0381 C.3       1 <0>        -0.1147
     11 O1         -0.0731    1.1244   -2.4261 O.3       1 <0>        -0.3529
     12 C11        -0.1520    1.9028   -3.5168 C.2       1 <0>         0.4628
     13 O2         -0.7685    2.9410   -3.4747 O.2       1 <0>        -0.4970
     14 C12         0.5284    1.4817   -4.7939 C.3       1 <0>        -0.0768
     15 C13         0.2884    2.5220   -5.8575 C.ar      1 <0>        -0.0349
     16 C14        -0.8096    2.4357   -6.6997 C.ar      1 <0>        -0.1574
     17 C15        -0.9995    3.4105   -7.6608 C.ar      1 <0>         0.1020
     18 N1         -0.1462    4.4080   -7.7876 N.ar      1 <0>        -0.4824
     19 C16         0.9111    4.5194   -7.0074 C.ar      1 <0>         0.1020
     20 C17         1.1634    3.5850   -6.0210 C.ar      1 <0>        -0.1573
     21 H1         -4.3010   -0.0764    2.5413 H         1 <0>         0.0544
     22 H2         -4.8259    1.3650    3.4441 H         1 <0>         0.0545
     23 H3         -4.8429    1.3746    1.6643 H         1 <0>         0.0576
     24 H4         -1.1178    1.4135    3.7683 H         1 <0>         0.0578
     25 H5         -2.6506    1.3878    4.6728 H         1 <0>         0.0545
     26 H6         -2.1256   -0.0536    3.7700 H         1 <0>         0.0545
     27 H7         -3.4283    3.4340    1.6618 H         1 <0>         0.0575
     28 H8         -3.4113    3.4244    3.4417 H         1 <0>         0.0538
     29 H9         -1.8785    3.4502    2.5372 H         1 <0>         0.0574
     30 H10        -2.1494   -0.0402    1.2717 H         1 <0>         0.0733
     31 H11        -0.2017    1.2182    2.1499 H         1 <0>         0.0765
     32 H12        -0.7436    2.6691    1.2728 H         1 <0>         0.0691
     33 H13         0.0021   -0.0041    0.0020 H         1 <0>         0.0752
     34 H14         1.0099    1.4631    0.0003 H         1 <0>         0.0713
     35 H15        -0.7675    2.6825   -1.2255 H         1 <0>         0.0849
     36 H16        -2.7153    1.4241   -2.1037 H         1 <0>         0.0667
     37 H17        -2.1733   -0.0268   -1.2266 H         1 <0>         0.0728
     38 H18        -2.9190    2.6464    0.0441 H         1 <0>         0.0690
     39 H19        -3.9268    1.1792    0.0459 H         1 <0>         0.0732
     40 H20         1.5996    1.3815   -4.6189 H         1 <0>         0.1206
     41 H21         0.1230    0.5251   -5.1232 H         1 <0>         0.1206
     42 H22        -1.5095    1.6187   -6.6038 H         1 <0>         0.1349
     43 H23        -1.8541    3.3524   -8.3185 H         1 <0>         0.1583
     44 H24         1.5879    5.3504   -7.1412 H         1 <0>         0.1583
     45 H25         2.0315    3.6813   -5.3856 H         1 <0>         0.1349
@<TRIPOS>BOND
     1    1    2 1
     2    1   21 1
     3    1   22 1
     4    1   23 1
     5    2    3 1
     6    2    4 1
     7    2    5 1
     8    3   24 1
     9    3   25 1
    10    3   26 1
    11    4   27 1
    12    4   28 1
    13    4   29 1
    14    5   10 1
    15    5    6 1
    16    5   30 1
    17    6    7 1
    18    6   31 1
    19    6   32 1
    20    7    8 1
    21    7   33 1
    22    7   34 1
    23    8    9 1
    24    8   11 1
    25    8   35 1
    26    9   10 1
    27    9   36 1
    28    9   37 1
    29   10   38 1
    30   10   39 1
    31   11   12 1
    32   12   13 2
    33   12   14 1
    34   14   15 1
    35   14   40 1
    36   14   41 1
    37   15   20 ar
    38   15   16 ar
    39   16   17 ar
    40   16   42 1
    41   17   18 ar
    42   17   43 1
    43   18   19 ar
    44   19   20 ar
    45   19   44 1
    46   20   45 1
@<TRIPOS>MOLECULE
ZINC03807804
   42    45     0     0     0
SMALL
USER_CHARGES

@<TRIPOS>ATOM
      1 C1         -0.1404    1.0961   -0.4391 C.ar      1 <0>        -0.1020
      2 C2          0.9979    1.8788   -0.4898 C.ar      1 <0>        -0.1176
      3 C3          2.2443    1.2953   -0.3597 C.ar      1 <0>        -0.1015
      4 C4          2.3524   -0.0709   -0.1784 C.ar      1 <0>        -0.0957
      5 C5          1.2140   -0.8534   -0.1268 C.ar      1 <0>        -0.0879
      6 C6         -0.0323   -0.2701   -0.2583 C.ar      1 <0>        -0.1206
      7 C7          3.7112   -0.7071   -0.0376 C.3       1 <0>         0.3033
      8 C8          3.5548   -2.1991    0.1055 C.ar      1 <0>        -0.0980
      9 C9          4.1018   -3.0454   -0.8408 C.ar      1 <0>        -0.0924
     10 C10         3.9584   -4.4140   -0.7096 C.ar      1 <0>        -0.1192
     11 C11         3.2684   -4.9364    0.3683 C.ar      1 <0>        -0.1040
     12 C12         2.7222   -4.0902    1.3152 C.ar      1 <0>        -0.1220
     13 C13         2.8693   -2.7218    1.1862 C.ar      1 <0>        -0.0909
     14 C14         4.5372   -0.4037   -1.2609 C.ar      1 <0>        -0.0899
     15 C15         5.7856    0.1744   -1.1262 C.ar      1 <0>        -0.0993
     16 C16         6.5434    0.4528   -2.2482 C.ar      1 <0>        -0.1105
     17 C17         6.0533    0.1533   -3.5058 C.ar      1 <0>        -0.0985
     18 C18         4.8053   -0.4246   -3.6418 C.ar      1 <0>        -0.1111
     19 C19         4.0487   -0.7087   -2.5187 C.ar      1 <0>        -0.0192
     20 Cl1         2.4837   -1.4408   -2.6883 Cl        1 <0>        -0.0484
     21 N1          4.3811   -0.1702    1.1495 N.pl3     1 <0>        -0.4460
     22 C20         5.5751   -0.5924    1.6690 C.2       1 <0>        -0.0513
     23 C21         5.8188    0.1680    2.7534 C.2       1 <0>        -0.0258
     24 N2          4.8014    1.0309    2.8923 N.2       1 <0>        -0.4890
     25 C22         3.9390    0.8376    1.9322 C.2       1 <0>         0.1875
     26 H1         -1.1143    1.5526   -0.5363 H         1 <0>         0.1257
     27 H2          0.9135    2.9461   -0.6315 H         1 <0>         0.1275
     28 H3          3.1337    1.9067   -0.4001 H         1 <0>         0.1221
     29 H4          1.2985   -1.9209    0.0142 H         1 <0>         0.1329
     30 H5         -0.9216   -0.8816   -0.2183 H         1 <0>         0.1255
     31 H6          4.6409   -2.6372   -1.6830 H         1 <0>         0.1253
     32 H7          4.3851   -5.0750   -1.4493 H         1 <0>         0.1258
     33 H8          3.1557   -6.0056    0.4705 H         1 <0>         0.1257
     34 H9          2.1828   -4.4983    2.1571 H         1 <0>         0.1266
     35 H10         2.4458   -2.0608    1.9279 H         1 <0>         0.1217
     36 H11         6.1689    0.4089   -0.1441 H         1 <0>         0.1411
     37 H12         7.5185    0.9047   -2.1424 H         1 <0>         0.1336
     38 H13         6.6456    0.3714   -4.3821 H         1 <0>         0.1361
     39 H14         4.4225   -0.6582   -4.6243 H         1 <0>         0.1382
     40 H15         6.2011   -1.3835    1.2836 H         1 <0>         0.1702
     41 H16         6.6821    0.0956    3.3983 H         1 <0>         0.1703
     42 H17         3.0222    1.3901    1.7888 H         1 <0>         0.2017
@<TRIPOS>BOND
     1    1    6 ar
     2    1    2 ar
     3    1   26 1
     4    2    3 ar
     5    2   27 1
     6    3    4 ar
     7    3   28 1
     8    4    5 ar
     9    4    7 1
    10    5    6 ar
    11    5   29 1
    12    6   30 1
    13    7    8 1
    14    7   14 1
    15    7   21 1
    16    8   13 ar
    17    8    9 ar
    18    9   10 ar
    19    9   31 1
    20   10   11 ar
    21   10   32 1
    22   11   12 ar
    23   11   33 1
    24   12   13 ar
    25   12   34 1
    26   13   35 1
    27   14   19 ar
    28   14   15 ar
    29   15   16 ar
    30   15   36 1
    31   16   17 ar
    32   16   37 1
    33   17   18 ar
    34   17   38 1
    35   18   19 ar
    36   18   39 1
    37   19   20 1
    38   21   25 1
    39   21   22 1
    40   22   23 2
    41   22   40 1
    42   23   24 1
    43   23   41 1
    44   24   25 2
    45   25   42 1
@<TRIPOS>MOLECULE
ZINC03807804
   43    46     0     0     0
SMALL
USER_CHARGES

@<TRIPOS>ATOM
      1 C1          0.5987    1.7832    1.4981 C.ar      1 <0>        -0.0892
      2 C2          0.3739    1.0091    0.3751 C.ar      1 <0>        -0.1131
      3 C3          1.3811    0.2033   -0.1220 C.ar      1 <0>        -0.1073
      4 C4          2.6134    0.1720    0.5037 C.ar      1 <0>        -0.1169
      5 C5          2.8385    0.9468    1.6262 C.ar      1 <0>        -0.0809
      6 C6          1.8308    1.7515    2.1240 C.ar      1 <0>        -0.1100
      7 C7          3.7112   -0.7071   -0.0376 C.3       1 <0>         0.3108
      8 C8          4.1045   -0.2308   -1.4122 C.ar      1 <0>        -0.1114
      9 C9          4.1390   -1.1216   -2.4687 C.ar      1 <0>        -0.1224
     10 C10         4.4997   -0.6846   -3.7296 C.ar      1 <0>        -0.1050
     11 C11         4.8255    0.6431   -3.9340 C.ar      1 <0>        -0.0966
     12 C12         4.7901    1.5341   -2.8777 C.ar      1 <0>        -0.1040
     13 C13         4.4252    1.0980   -1.6177 C.ar      1 <0>        -0.0870
     14 C14         4.9061   -0.6400    0.8783 C.ar      1 <0>        -0.1243
     15 C15         6.0946   -0.0984    0.4255 C.ar      1 <0>        -0.0806
     16 C16         7.1906   -0.0368    1.2654 C.ar      1 <0>        -0.1064
     17 C17         7.0990   -0.5167    2.5588 C.ar      1 <0>        -0.0779
     18 C18         5.9114   -1.0584    3.0126 C.ar      1 <0>        -0.1060
     19 C19         4.8121   -1.1151    2.1740 C.ar      1 <0>        -0.0235
     20 Cl1         3.3179   -1.7894    2.7455 Cl        1 <0>        -0.0546
     21 N1          3.2345   -2.0901   -0.1178 N.pl3     1 <0>        -0.3928
     22 C20         1.9543   -2.5219    0.1018 C.2       1 <0>         0.0325
     23 C21         1.9573   -3.8567   -0.0767 C.2       1 <0>         0.0033
     24 N2          3.2053   -4.2297   -0.3965 N.pl3     1 <0>        -0.4715
     25 C22         3.9747   -3.1761   -0.4280 C.cat     1 <0>         0.2859
     26 H1         -0.1868    2.4161    1.8838 H         1 <0>         0.1340
     27 H2         -0.5889    1.0335   -0.1137 H         1 <0>         0.1343
     28 H3          1.2053   -0.4020   -0.9989 H         1 <0>         0.1246
     29 H4          3.8010    0.9218    2.1154 H         1 <0>         0.1290
     30 H5          2.0066    2.3566    3.0012 H         1 <0>         0.1338
     31 H6          3.8845   -2.1589   -2.3090 H         1 <0>         0.1110
     32 H7          4.5274   -1.3807   -4.5549 H         1 <0>         0.1325
     33 H8          5.1080    0.9843   -4.9190 H         1 <0>         0.1349
     34 H9          5.0450    2.5713   -3.0374 H         1 <0>         0.1371
     35 H10         4.3939    1.7949   -0.7931 H         1 <0>         0.1317
     36 H11         6.1669    0.2763   -0.5848 H         1 <0>         0.1476
     37 H12         8.1191    0.3861    0.9110 H         1 <0>         0.1431
     38 H13         7.9558   -0.4686    3.2145 H         1 <0>         0.1451
     39 H14         5.8400   -1.4335    4.0228 H         1 <0>         0.1446
     40 H15         1.1050   -1.9099    0.3675 H         1 <0>         0.2211
     41 H16         1.1044   -4.5120    0.0207 H         1 <0>         0.2258
     42 H17         5.0293   -3.1735   -0.6609 H         1 <0>         0.2540
     43 H18         3.4903   -5.1387   -0.5793 H         1 <0>         0.4647
@<TRIPOS>BOND
     1    1    6 ar
     2    1    2 ar
     3    1   26 1
     4    2    3 ar
     5    2   27 1
     6    3    4 ar
     7    3   28 1
     8    4    5 ar
     9    4    7 1
    10    5    6 ar
    11    5   29 1
    12    6   30 1
    13    7    8 1
    14    7   14 1
    15    7   21 1
    16    8   13 ar
    17    8    9 ar
    18    9   10 ar
    19    9   31 1
    20   10   11 ar
    21   10   32 1
    22   11   12 ar
    23   11   33 1
    24   12   13 ar
    25   12   34 1
    26   13   35 1
    27   14   19 ar
    28   14   15 ar
    29   15   16 ar
    30   15   36 1
    31   16   17 ar
    32   16   37 1
    33   17   18 ar
    34   17   38 1
    35   18   19 ar
    36   18   39 1
    37   19   20 1
    38   21   25 1
    39   21   22 1
    40   22   23 2
    41   22   40 1
    42   23   24 1
    43   23   41 1
    44   24   25 2
    45   24   43 1
    46   25   42 1
@<TRIPOS>MOLECULE
ZINC03881421
   45    48     0     0     0
SMALL
USER_CHARGES

@<TRIPOS>ATOM
      1 C1         -0.0187    1.5258    0.0104 C.3       1 <0>        -0.1436
      2 C2          0.0021   -0.0041    0.0020 C.3       1 <0>        -0.1257
      3 C3         -1.4164   -0.5342    0.0739 C.3       1 <0>        -0.0976
      4 C4         -2.0782    0.1052    1.3049 C.3       1 <0>        -0.1234
      5 C5         -1.2992   -0.1933    2.5822 C.3       1 <0>        -0.0608
      6 H1         -1.3466   -1.2623    2.7899 H         1 <0>         0.0779
      7 C6          0.1724    0.2342    2.4645 C.3       1 <0>        -0.0795
      8 H2          0.2314    1.3123    2.3149 H         1 <0>         0.0939
      9 C7          0.7521   -0.5233    1.2582 C.3       1 <0>        -0.0784
     10 H3          0.6126   -1.5982    1.3728 H         1 <0>         0.0860
     11 C8          2.2043   -0.1827    0.8989 C.3       1 <0>        -0.1120
     12 C9          2.2740   -0.5517   -0.6081 C.3       1 <0>        -0.1841
     13 C10         0.8453   -0.4915   -1.1388 C.2       1 <0>         0.3793
     14 O1          0.4696   -0.7783   -2.2501 O.2       1 <0>        -0.4373
     15 C11         0.9229   -0.1517    3.7407 C.3       1 <0>        -0.1135
     16 C12         0.3464    0.6196    4.9322 C.3       1 <0>        -0.0960
     17 C13        -1.1463    0.3542    4.9888 C.2       1 <0>        -0.0267
     18 C14        -1.6838   -0.0557    6.1292 C.2       1 <0>        -0.2263
     19 C15        -3.1240   -0.3423    6.2167 C.2       1 <0>         0.4064
     20 O2         -3.6276   -0.6837    7.2705 O.2       1 <0>        -0.4588
     21 C16        -3.9425   -0.2072    4.9999 C.2       1 <0>        -0.2185
     22 C17        -3.3858    0.2099    3.8738 C.2       1 <0>        -0.0695
     23 C18        -1.9264    0.5750    3.7495 C.3       1 <0>        -0.0136
     24 C19        -1.8471    2.0673    3.4212 C.3       1 <0>        -0.1465
     25 H4          1.0039    1.9031    0.0027 H         1 <0>         0.0631
     26 H5         -0.5459    1.8868   -0.8726 H         1 <0>         0.0609
     27 H6         -0.5289    1.8773    0.9072 H         1 <0>         0.0806
     28 H7         -1.9626   -0.2564   -0.8276 H         1 <0>         0.0732
     29 H8         -1.4024   -1.6188    0.1811 H         1 <0>         0.0677
     30 H9         -2.1268    1.1847    1.1621 H         1 <0>         0.0772
     31 H10        -3.0910   -0.2847    1.4068 H         1 <0>         0.0694
     32 H11         2.4007    0.8792    1.0469 H         1 <0>         0.0789
     33 H12         2.8991   -0.7904    1.4787 H         1 <0>         0.0784
     34 H13         2.9001    0.1652   -1.1394 H         1 <0>         0.0986
     35 H14         2.6746   -1.5583   -0.7278 H         1 <0>         0.0978
     36 H15         0.8149   -1.2223    3.9152 H         1 <0>         0.0680
     37 H16         1.9793    0.0918    3.6279 H         1 <0>         0.0758
     38 H17         0.8162    0.2773    5.8542 H         1 <0>         0.0809
     39 H18         0.5257    1.6867    4.8012 H         1 <0>         0.0859
     40 H19        -1.0590   -0.1805    7.0013 H         1 <0>         0.1364
     41 H20        -4.9949   -0.4483    5.0262 H         1 <0>         0.1384
     42 H21        -4.0130    0.2915    2.9984 H         1 <0>         0.1292
     43 H22        -2.3939    2.2661    2.4995 H         1 <0>         0.0727
     44 H23        -2.2871    2.6424    4.2360 H         1 <0>         0.0621
     45 H24        -0.8039    2.3565    3.2944 H         1 <0>         0.0731
@<TRIPOS>BOND
     1    1    2 1
     2    1   25 1
     3    1   26 1
     4    1   27 1
     5    2    9 1
     6    2   13 1
     7    2    3 1
     8    3    4 1
     9    3   28 1
    10    3   29 1
    11    4    5 1
    12    4   30 1
    13    4   31 1
    14    5    6 1
    15    5   23 1
    16    5    7 1
    17    7    8 1
    18    7    9 1
    19    7   15 1
    20    9   10 1
    21    9   11 1
    22   11   12 1
    23   11   32 1
    24   11   33 1
    25   12   13 1
    26   12   34 1
    27   12   35 1
    28   13   14 2
    29   15   16 1
    30   15   36 1
    31   15   37 1
    32   16   17 1
    33   16   38 1
    34   16   39 1
    35   17   23 1
    36   17   18 2
    37   18   19 1
    38   18   40 1
    39   19   20 2
    40   19   21 1
    41   21   22 2
    42   21   41 1
    43   22   23 1
    44   22   42 1
    45   23   24 1
    46   24   43 1
    47   24   44 1
    48   24   45 1
@<TRIPOS>MOLECULE
ZINC00598425
   34    36     0     0     0
SMALL
USER_CHARGES
4-[(4-bromophenyl)methyl-(1,2,4-triazol-4-yl)amino]benzonitrile
@<TRIPOS>ATOM
      1 C1         -2.5252    1.5152   -1.4764 C.ar      1 <0>        -0.0905
      2 C2         -3.4275    2.2176   -2.2530 C.ar      1 <0>        -0.0898
      3 C3         -3.1572    3.5249   -2.6152 C.ar      1 <0>        -0.0786
      4 C4         -1.9865    4.1304   -2.1957 C.ar      1 <0>        -0.0902
      5 C5         -1.0873    3.4291   -1.4147 C.ar      1 <0>        -0.0912
      6 C6         -1.3578    2.1225   -1.0529 C.ar      1 <0>        -0.1118
      7 C7         -0.3768    1.3581   -0.2018 C.3       1 <0>         0.1668
      8 N1         -0.6984    1.5583    1.2133 N.pl3     1 <0>        -0.4198
      9 C8         -0.1260    2.6158    1.9142 C.ar      1 <0>         0.2318
     10 C9          0.8266    3.4222    1.2983 C.ar      1 <0>        -0.1787
     11 C10         1.3905    4.4724    1.9867 C.ar      1 <0>        -0.0187
     12 C11         1.0138    4.7215    3.3098 C.ar      1 <0>        -0.0686
     13 C12         0.0608    3.9060    3.9273 C.ar      1 <0>        -0.0176
     14 C13        -0.5034    2.8610    3.2312 C.ar      1 <0>        -0.1817
     15 C14         1.6031    5.8092    4.0311 C.1       1 <0>         0.2523
     16 N2          2.0705    6.6721    4.6033 N.1       1 <0>        -0.4152
     17 N3         -1.5821    0.6853    1.8612 N.pl3     1 <0>        -0.2733
     18 C15        -1.3691   -0.6201    2.1553 C.2       1 <0>         0.1621
     19 N4         -2.4386   -1.0616    2.7592 N.2       1 <0>        -0.2789
     20 N5         -3.3051   -0.1159    2.8518 N.2       1 <0>        -0.2791
     21 C16        -2.8257    0.9733    2.3156 C.2       1 <0>         0.1632
     22 Br1        -4.3881    4.4842   -3.6832 Br        1 <0>        -0.0413
     23 H1         -2.7343    0.4932   -1.1969 H         1 <0>         0.1279
     24 H2         -4.3416    1.7445   -2.5800 H         1 <0>         0.1362
     25 H3         -1.7752    5.1513   -2.4780 H         1 <0>         0.1375
     26 H4         -0.1733    3.9019   -1.0868 H         1 <0>         0.1359
     27 H5         -0.4379    0.2965   -0.4417 H         1 <0>         0.1002
     28 H6          0.6330    1.7177   -0.3994 H         1 <0>         0.1177
     29 H7          1.1207    3.2262    0.2778 H         1 <0>         0.1406
     30 H8          2.1265    5.1004    1.5068 H         1 <0>         0.1419
     31 H9         -0.2328    4.0959    4.9492 H         1 <0>         0.1386
     32 H10        -1.2399    2.2308    3.7075 H         1 <0>         0.1310
     33 H11        -0.4785   -1.1892    1.9331 H         1 <0>         0.2225
     34 H12        -3.3274    1.9272    2.2466 H         1 <0>         0.2189
@<TRIPOS>BOND
     1    1    6 ar
     2    1    2 ar
     3    1   23 1
     4    2    3 ar
     5    2   24 1
     6    3    4 ar
     7    3   22 1
     8    4    5 ar
     9    4   25 1
    10    5    6 ar
    11    5   26 1
    12    6    7 1
    13    7    8 1
    14    7   27 1
    15    7   28 1
    16    8    9 1
    17    8   17 1
    18    9   14 ar
    19    9   10 ar
    20   10   11 ar
    21   10   29 1
    22   11   12 ar
    23   11   30 1
    24   12   13 ar
    25   12   15 1
    26   13   14 ar
    27   13   31 1
    28   14   32 1
    29   15   16 3
    30   17   21 1
    31   17   18 1
    32   18   19 2
    33   18   33 1
    34   19   20 1
    35   20   21 2
    36   21   34 1
@<TRIPOS>MOLECULE
ZINC03879102
   42    45     0     0     0
SMALL
USER_CHARGES

@<TRIPOS>ATOM
      1 C1         -0.0167    1.3776    0.0096 C.ar      1 <0>        -0.1730
      2 C2          1.1849    2.0698    0.0019 C.ar      1 <0>        -0.0562
      3 C3          2.3651    1.3426   -0.0133 C.ar      1 <0>        -0.1636
      4 C4          2.3054   -0.0383   -0.0202 C.ar      1 <0>         0.1188
      5 N1          1.1443   -0.6632   -0.0129 N.ar      1 <0>        -0.4841
      6 C5          0.0021   -0.0041    0.0020 C.ar      1 <0>         0.1065
      7 C6          3.6964    2.0488   -0.0227 C.3       1 <0>         0.1652
      8 N2          4.1412    2.2707    1.3554 N.am      1 <0>        -0.7276
      9 C7          5.3142    2.8904    1.5933 C.2       1 <0>         0.5238
     10 O1          6.0014    3.2644    0.6666 O.2       1 <0>        -0.5341
     11 C8          5.7718    3.1186    3.0109 C.3       1 <0>        -0.0686
     12 C9          4.7430    3.9796    3.7466 C.3       1 <0>        -0.0994
     13 C10         5.2075    4.2113    5.1858 C.3       1 <0>        -0.0842
     14 C11         6.5591    4.9282    5.1763 C.3       1 <0>        -0.1105
     15 C12         7.5879    4.0673    4.4406 C.3       1 <0>        -0.0871
     16 C13         7.1234    3.8356    3.0014 C.3       1 <0>        -0.0875
     17 C14         7.7298    2.7211    5.1537 C.3       1 <0>        -0.1105
     18 C15         6.3782    2.0041    5.1633 C.3       1 <0>        -0.0843
     19 C16         5.3494    2.8651    5.8989 C.3       1 <0>        -0.1100
     20 C17         5.9136    1.7724    3.7240 C.3       1 <0>        -0.0999
     21 H1         -0.9552    1.9117    0.0259 H         1 <0>         0.1388
     22 H2          1.2009    3.1496    0.0072 H         1 <0>         0.1366
     23 H3          3.2203   -0.6121   -0.0320 H         1 <0>         0.1569
     24 H4         -0.9294   -0.5505    0.0083 H         1 <0>         0.1588
     25 H5          4.4293    1.4355   -0.5468 H         1 <0>         0.0809
     26 H6          3.5953    3.0079   -0.5308 H         1 <0>         0.0791
     27 H7          3.5916    1.9716    2.0965 H         1 <0>         0.4008
     28 H8          4.6419    4.9386    3.2386 H         1 <0>         0.0681
     29 H9          3.7801    3.4688    3.7534 H         1 <0>         0.0645
     30 H10         4.4746    4.8246    5.7099 H         1 <0>         0.0744
     31 H11         6.4581    5.8873    4.6682 H         1 <0>         0.0633
     32 H12         6.8901    5.0933    6.2016 H         1 <0>         0.0648
     33 H13         8.5508    4.5781    4.4338 H         1 <0>         0.0748
     34 H14         7.8563    3.2222    2.4773 H         1 <0>         0.0698
     35 H15         7.0223    4.7946    2.4933 H         1 <0>         0.0695
     36 H16         8.4627    2.1078    4.6296 H         1 <0>         0.0636
     37 H17         8.0608    2.8862    6.1790 H         1 <0>         0.0648
     38 H18         6.4793    1.0451    5.6713 H         1 <0>         0.0748
     39 H19         5.6804    3.0301    6.9243 H         1 <0>         0.0658
     40 H20         4.3865    2.3543    5.9057 H         1 <0>         0.0626
     41 H21         4.9507    1.2616    3.7309 H         1 <0>         0.0650
     42 H22         6.6466    1.1591    3.1999 H         1 <0>         0.0688
@<TRIPOS>BOND
     1    1    6 ar
     2    1    2 ar
     3    1   21 1
     4    2    3 ar
     5    2   22 1
     6    3    4 ar
     7    3    7 1
     8    4    5 ar
     9    4   23 1
    10    5    6 ar
    11    6   24 1
    12    7    8 1
    13    7   25 1
    14    7   26 1
    15    8    9 am
    16    8   27 1
    17    9   10 2
    18    9   11 1
    19   11   16 1
    20   11   20 1
    21   11   12 1
    22   12   13 1
    23   12   28 1
    24   12   29 1
    25   13   19 1
    26   13   14 1
    27   13   30 1
    28   14   15 1
    29   14   31 1
    30   14   32 1
    31   15   16 1
    32   15   17 1
    33   15   33 1
    34   16   34 1
    35   16   35 1
    36   17   18 1
    37   17   36 1
    38   17   37 1
    39   18   19 1
    40   18   20 1
    41   18   38 1
    42   19   39 1
    43   19   40 1
    44   20   41 1
    45   20   42 1
@<TRIPOS>MOLECULE
ZINC03936088
   40    42     0     0     0
SMALL
USER_CHARGES
hydroxy-trimethyl-BLAHone
@<TRIPOS>ATOM
      1 C1          2.2208    1.5999   -1.0441 C.3       1 <0>        -0.1358
      2 C2          1.2187    2.0896    0.0016 C.3       1 <0>        -0.1516
      3 H1          1.6732    2.1225    0.9885 H         1 <0>         0.1178
      4 C3          0.6562    3.4713   -0.3903 C.3       1 <0>        -0.1134
      5 H2          0.6416    3.6034   -1.4704 H         1 <0>         0.0984
      6 C4          1.3823    4.5986    0.2953 C.3       1 <0>        -0.1047
      7 C5          0.7597    5.9633   -0.0254 C.3       1 <0>        -0.1483
      8 C6         -0.5368    6.1894    0.7437 C.3       1 <0>         0.1438
      9 C7         -1.7581    5.6886   -0.0155 C.3       1 <0>        -0.0682
     10 H3         -2.0330    6.4080   -0.8033 H         1 <0>         0.0966
     11 C8         -2.9502    5.5124    0.9617 C.3       1 <0>        -0.0923
     12 C9         -3.7979    4.4462    0.2969 C.2       1 <0>        -0.1721
     13 C10        -3.1014    3.7976   -0.6007 C.2       1 <0>        -0.1246
     14 C11        -1.6690    4.2932   -0.6106 C.3       1 <0>        -0.0477
     15 H4         -1.3179    4.3528   -1.6420 H         1 <0>         0.0802
     16 C12        -0.7784    3.3678    0.1884 C.3       1 <0>         0.0968
     17 H5         -0.7922    3.6120    1.2498 H         1 <0>         0.1225
     18 O1         -1.1212    1.9648    0.0038 O.3       1 <0>        -0.3351
     19 C13        -0.0143    1.2039    0.0087 C.2       1 <0>         0.4821
     20 O2          0.0021   -0.0041    0.0020 O.2       1 <0>        -0.4562
     21 C14        -3.6509    2.7285   -1.5055 C.3       1 <0>        -0.1024
     22 C15        -0.6916    7.7081    0.9560 C.3       1 <0>        -0.1835
     23 O3         -0.4466    5.5821    2.0314 O.3       1 <0>        -0.5547
     24 H6          1.7504    1.6026   -2.0273 H         1 <0>         0.0606
     25 H7          3.0875    2.2608   -1.0541 H         1 <0>         0.0702
     26 H8          2.5389    0.5872   -0.7963 H         1 <0>         0.0702
     27 H9          1.3763    4.4336    1.3698 H         1 <0>         0.0781
     28 H10         2.4218    4.6039   -0.0449 H         1 <0>         0.0698
     29 H11         1.4704    6.7502    0.2356 H         1 <0>         0.0743
     30 H12         0.5538    6.0193   -1.0963 H         1 <0>         0.0746
     31 H13        -2.6176    5.1696    1.9360 H         1 <0>         0.0937
     32 H14        -3.5139    6.4402    1.0448 H         1 <0>         0.0690
     33 H15        -4.8365    4.2668    0.5189 H         1 <0>         0.1243
     34 H16        -3.5311    1.7544   -1.0313 H         1 <0>         0.0731
     35 H17        -4.7090    2.9159   -1.6885 H         1 <0>         0.0628
     36 H18        -3.1107    2.7407   -2.4521 H         1 <0>         0.0602
     37 H19        -0.7310    8.2081   -0.0117 H         1 <0>         0.0651
     38 H20        -1.6121    7.9062    1.5051 H         1 <0>         0.0665
     39 H21         0.1588    8.0839    1.5248 H         1 <0>         0.0610
     40 H22         0.2711    5.9275    2.5797 H         1 <0>         0.3786
@<TRIPOS>BOND
     1    1    2 1
     2    1   24 1
     3    1   25 1
     4    1   26 1
     5    2    3 1
     6    2   19 1
     7    2    4 1
     8    4    5 1
     9    4   16 1
    10    4    6 1
    11    6    7 1
    12    6   27 1
    13    6   28 1
    14    7    8 1
    15    7   29 1
    16    7   30 1
    17    8    9 1
    18    8   22 1
    19    8   23 1
    20    9   10 1
    21    9   14 1
    22    9   11 1
    23   11   12 1
    24   11   31 1
    25   11   32 1
    26   12   13 2
    27   12   33 1
    28   13   14 1
    29   13   21 1
    30   14   15 1
    31   14   16 1
    32   16   17 1
    33   16   18 1
    34   18   19 1
    35   19   20 2
    36   21   34 1
    37   21   35 1
    38   21   36 1
    39   22   37 1
    40   22   38 1
    41   22   39 1
    42   23   40 1
@<TRIPOS>MOLECULE
ZINC04025449
   28    29     0     0     0
SMALL
USER_CHARGES

@<TRIPOS>ATOM
      1 C1         -0.0167    1.3781    0.0096 C.ar      1 <0>        -0.1090
      2 C2          1.1709    2.0855    0.0021 C.ar      1 <0>        -0.0499
      3 C3          2.3773    1.4107   -0.0130 C.ar      1 <0>        -0.0371
      4 C4          2.3961    0.0285   -0.0201 C.ar      1 <0>        -0.0494
      5 C5          1.2084   -0.6789   -0.0117 C.ar      1 <0>        -0.1081
      6 C6          0.0021   -0.0041    0.0020 C.ar      1 <0>        -0.0553
      7 C7         -1.2926   -0.7753    0.0102 C.3       1 <0>        -0.1017
      8 C8         -1.7445   -1.0285   -1.4295 C.3       1 <0>         0.0952
      9 N1         -3.0031   -1.7782   -1.4215 N.pl3     1 <0>        -0.4104
     10 C9         -3.1371   -3.1404   -1.4216 C.2       1 <0>         0.0249
     11 C10        -4.4581   -3.4020   -1.4120 C.2       1 <0>         0.0062
     12 N2         -5.1129   -2.2314   -1.4063 N.pl3     1 <0>        -0.4752
     13 C11        -4.2477   -1.2544   -1.4069 C.cat     1 <0>         0.2891
     14 N3          3.6490    2.1682   -0.0221 N.pl3     1 <0>         0.0241
     15 O1          3.6326    3.3771   -0.0163 O.2       1 <0>        -0.1454
     16 O2          4.7040    1.5780   -0.0353 O.3       1 <0>        -0.1448
     17 H1         -0.9591    1.9053    0.0259 H         1 <0>         0.1492
     18 H2          1.1563    3.1654    0.0076 H         1 <0>         0.1602
     19 H3          3.3385   -0.4987   -0.0326 H         1 <0>         0.1604
     20 H4          1.2231   -1.7588   -0.0179 H         1 <0>         0.1497
     21 H5         -1.1445   -1.7285    0.5175 H         1 <0>         0.0994
     22 H6         -2.0553   -0.1993    0.5344 H         1 <0>         0.0974
     23 H7         -1.8926   -0.0752   -1.9368 H         1 <0>         0.1260
     24 H8         -0.9819   -1.6044   -1.9537 H         1 <0>         0.1287
     25 H9         -2.3372   -3.8660   -1.4283 H         1 <0>         0.2238
     26 H10        -4.9109   -4.3825   -1.4094 H         1 <0>         0.2249
     27 H11        -4.4875   -0.2013   -1.3995 H         1 <0>         0.2606
     28 H12        -6.0773   -2.1275   -1.3992 H         1 <0>         0.4665
@<TRIPOS>BOND
     1    1    6 ar
     2    1    2 ar
     3    1   17 1
     4    2    3 ar
     5    2   18 1
     6    3    4 ar
     7    3   14 1
     8    4    5 ar
     9    4   19 1
    10    5    6 ar
    11    5   20 1
    12    6    7 1
    13    7    8 1
    14    7   21 1
    15    7   22 1
    16    8    9 1
    17    8   23 1
    18    8   24 1
    19    9   13 1
    20    9   10 1
    21   10   11 2
    22   10   25 1
    23   11   12 1
    24   11   26 1
    25   12   13 2
    26   12   28 1
    27   13   27 1
    28   14   15 2
    29   14   16 1
@<TRIPOS>MOLECULE
ZINC04025449
   27    28     0     0     0
SMALL
USER_CHARGES

@<TRIPOS>ATOM
      1 C1         -0.0167    1.3781    0.0096 C.ar      1 <0>        -0.1123
      2 C2          1.1709    2.0855    0.0021 C.ar      1 <0>        -0.0504
      3 C3          2.3773    1.4107   -0.0130 C.ar      1 <0>        -0.0494
      4 C4          2.3961    0.0285   -0.0201 C.ar      1 <0>        -0.0505
      5 C5          1.2084   -0.6789   -0.0117 C.ar      1 <0>        -0.1125
      6 C6          0.0021   -0.0041    0.0020 C.ar      1 <0>        -0.0351
      7 C7         -1.2926   -0.7753    0.0102 C.3       1 <0>        -0.1036
      8 C8         -1.7445   -1.0285   -1.4295 C.3       1 <0>         0.1107
      9 N1         -3.0031   -1.7782   -1.4215 N.pl3     1 <0>        -0.4629
     10 C9         -3.1371   -3.1404   -1.4220 C.2       1 <0>        -0.0579
     11 C10        -4.4581   -3.4020   -1.4123 C.2       1 <0>        -0.0263
     12 N2         -5.1129   -2.2314   -1.4060 N.2       1 <0>        -0.4931
     13 C11        -4.2477   -1.2544   -1.4064 C.2       1 <0>         0.1821
     14 N3          3.6490    2.1682   -0.0221 N.pl3     1 <0>         0.0307
     15 O1          3.6326    3.3771   -0.0163 O.2       1 <0>        -0.1548
     16 O2          4.7040    1.5780   -0.0353 O.3       1 <0>        -0.1549
     17 H1         -0.9591    1.9053    0.0259 H         1 <0>         0.1494
     18 H2          1.1563    3.1654    0.0076 H         1 <0>         0.1564
     19 H3          3.3385   -0.4987   -0.0326 H         1 <0>         0.1562
     20 H4          1.2231   -1.7588   -0.0179 H         1 <0>         0.1485
     21 H5         -1.1445   -1.7285    0.5175 H         1 <0>         0.0916
     22 H6         -2.0553   -0.1993    0.5344 H         1 <0>         0.0923
     23 H7         -1.8926   -0.0752   -1.9368 H         1 <0>         0.0991
     24 H8         -0.9819   -1.6044   -1.9537 H         1 <0>         0.0967
     25 H9         -2.3372   -3.8660   -1.4292 H         1 <0>         0.1746
     26 H10        -4.9109   -4.3825   -1.4100 H         1 <0>         0.1707
     27 H11        -4.4874   -0.2014   -1.3986 H         1 <0>         0.2045
@<TRIPOS>BOND
     1    1    6 ar
     2    1    2 ar
     3    1   17 1
     4    2    3 ar
     5    2   18 1
     6    3    4 ar
     7    3   14 1
     8    4    5 ar
     9    4   19 1
    10    5    6 ar
    11    5   20 1
    12    6    7 1
    13    7    8 1
    14    7   21 1
    15    7   22 1
    16    8    9 1
    17    8   23 1
    18    8   24 1
    19    9   13 1
    20    9   10 1
    21   10   11 2
    22   10   25 1
    23   11   12 1
    24   11   26 1
    25   12   13 2
    26   13   27 1
    27   14   15 2
    28   14   16 1
@<TRIPOS>MOLECULE
ZINC04058072
   42    45     0     0     0
SMALL
USER_CHARGES

@<TRIPOS>ATOM
      1 C1         -0.0167    1.3823    0.0096 C.ar      1 <0>        -0.1554
      2 C2          1.1808    2.0721    0.0019 C.ar      1 <0>         0.1001
      3 N1          2.3308    1.4269   -0.0130 N.ar      1 <0>        -0.4794
      4 C3          2.3867    0.1094   -0.0206 C.ar      1 <0>         0.1001
      5 C4          1.2303   -0.6473   -0.0132 C.ar      1 <0>        -0.1554
      6 C5          0.0021   -0.0041    0.0020 C.ar      1 <0>        -0.0649
      7 C6         -1.2819   -0.7930    0.0105 C.3       1 <0>         0.1587
      8 N2         -1.7116   -1.0413   -1.3678 N.am      1 <0>        -0.7267
      9 C7         -2.8430   -1.7337   -1.6066 C.2       1 <0>         0.5243
     10 O1         -3.5054   -2.1512   -0.6804 O.2       1 <0>        -0.5335
     11 C8         -3.2851   -1.9890   -3.0245 C.3       1 <0>        -0.0682
     12 C9         -3.5117   -0.6538   -3.7364 C.3       1 <0>        -0.0997
     13 C10        -3.9605   -0.9131   -5.1759 C.3       1 <0>        -0.0843
     14 C11        -5.2641   -1.7141   -5.1673 C.3       1 <0>        -0.1106
     15 C12        -5.0375   -3.0493   -4.4554 C.3       1 <0>        -0.0871
     16 C13        -4.5887   -2.7900   -3.0159 C.3       1 <0>        -0.0876
     17 C14        -3.9562   -3.8428   -5.1917 C.3       1 <0>        -0.1106
     18 C15        -2.6527   -3.0418   -5.2003 C.3       1 <0>        -0.0843
     19 C16        -2.8792   -1.7065   -5.9122 C.3       1 <0>        -0.1101
     20 C17        -2.2038   -2.7825   -3.7608 C.3       1 <0>        -0.0997
     21 H1         -0.9553    1.9163    0.0259 H         1 <0>         0.1375
     22 H2          1.1748    3.1521    0.0078 H         1 <0>         0.1591
     23 H3          3.3473   -0.3840   -0.0331 H         1 <0>         0.1591
     24 H4          1.2825   -1.7260   -0.0195 H         1 <0>         0.1375
     25 H5         -1.1205   -1.7443    0.5177 H         1 <0>         0.0816
     26 H6         -2.0522   -0.2277    0.5351 H         1 <0>         0.0816
     27 H7         -1.1819   -0.7073   -2.1086 H         1 <0>         0.4015
     28 H8         -4.2820   -0.0885   -3.2118 H         1 <0>         0.0684
     29 H9         -2.5830   -0.0832   -3.7425 H         1 <0>         0.0648
     30 H10        -4.1220    0.0382   -5.6831 H         1 <0>         0.0748
     31 H11        -6.0344   -1.1488   -4.6427 H         1 <0>         0.0635
     32 H12        -5.5838   -1.8988   -6.1928 H         1 <0>         0.0650
     33 H13        -5.9662   -3.6199   -4.4492 H         1 <0>         0.0750
     34 H14        -4.4272   -3.7413   -2.5087 H         1 <0>         0.0697
     35 H15        -5.3590   -2.2247   -2.4913 H         1 <0>         0.0697
     36 H16        -3.7948   -4.7940   -4.6845 H         1 <0>         0.0635
     37 H17        -4.2760   -4.0275   -6.2172 H         1 <0>         0.0650
     38 H18        -1.8823   -3.6070   -5.7249 H         1 <0>         0.0748
     39 H19        -3.1990   -1.8913   -6.9377 H         1 <0>         0.0660
     40 H20        -1.9506   -1.1359   -5.9183 H         1 <0>         0.0628
     41 H21        -1.2752   -2.2119   -3.7669 H         1 <0>         0.0648
     42 H22        -2.0424   -3.7337   -3.2536 H         1 <0>         0.0684
@<TRIPOS>BOND
     1    1    6 ar
     2    1    2 ar
     3    1   21 1
     4    2    3 ar
     5    2   22 1
     6    3    4 ar
     7    4    5 ar
     8    4   23 1
     9    5    6 ar
    10    5   24 1
    11    6    7 1
    12    7    8 1
    13    7   25 1
    14    7   26 1
    15    8    9 am
    16    8   27 1
    17    9   10 2
    18    9   11 1
    19   11   16 1
    20   11   20 1
    21   11   12 1
    22   12   13 1
    23   12   28 1
    24   12   29 1
    25   13   19 1
    26   13   14 1
    27   13   30 1
    28   14   15 1
    29   14   31 1
    30   14   32 1
    31   15   16 1
    32   15   17 1
    33   15   33 1
    34   16   34 1
    35   16   35 1
    36   17   18 1
    37   17   36 1
    38   17   37 1
    39   18   19 1
    40   18   20 1
    41   18   38 1
    42   19   39 1
    43   19   40 1
    44   20   41 1
    45   20   42 1
@<TRIPOS>MOLECULE
ZINC03872070
   29    31     0     0     0
SMALL
USER_CHARGES

@<TRIPOS>ATOM
      1 C1         -0.0167    1.3795    0.0096 C.ar      1 <0>        -0.0927
      2 C2          1.1683    2.0940    0.0021 C.ar      1 <0>        -0.1229
      3 C3          2.3774    1.4303   -0.0130 C.ar      1 <0>        -0.0794
      4 C4          2.4038    0.0341   -0.0208 C.ar      1 <0>        -0.0750
      5 C5          1.2040   -0.6806   -0.0131 C.ar      1 <0>        -0.0800
      6 C6          0.0021   -0.0041    0.0020 C.ar      1 <0>        -0.1206
      7 C7          3.6945   -0.6834   -0.0374 C.2       1 <0>         0.2076
      8 C8          3.6865   -2.0422   -0.0503 C.2       1 <0>        -0.3115
      9 C9          4.9147   -2.7475   -0.0669 C.2       1 <0>         0.4227
     10 O1          4.9453   -3.9673   -0.0791 O.2       1 <0>        -0.4538
     11 C10         6.1531   -1.9509   -0.0693 C.ar      1 <0>        -0.2663
     12 C11         7.4124   -2.5640   -0.0858 C.ar      1 <0>         0.2193
     13 C12         8.5511   -1.7802   -0.0879 C.ar      1 <0>        -0.2051
     14 C13         8.4449   -0.3935   -0.0739 C.ar      1 <0>         0.1922
     15 C14         7.2019    0.2199   -0.0571 C.ar      1 <0>        -0.1832
     16 C15         6.0486   -0.5493   -0.0551 C.ar      1 <0>         0.1831
     17 O2          4.8303    0.0319   -0.0449 O.3       1 <0>        -0.2180
     18 O3          9.5695    0.3668   -0.0761 O.3       1 <0>        -0.4872
     19 O4          7.5139   -3.9173   -0.0990 O.3       1 <0>        -0.4722
     20 H1         -0.9606    1.9042    0.0260 H         1 <0>         0.1309
     21 H2          1.1464    3.1738    0.0078 H         1 <0>         0.1326
     22 H3          3.3016    1.9892   -0.0192 H         1 <0>         0.1349
     23 H4          1.2173   -1.7605   -0.0194 H         1 <0>         0.1361
     24 H5         -0.9265   -0.5555    0.0079 H         1 <0>         0.1347
     25 H6          2.7503   -2.5805   -0.0475 H         1 <0>         0.1636
     26 H7          9.5256   -2.2457   -0.1002 H         1 <0>         0.1502
     27 H8          7.1320    1.2975   -0.0459 H         1 <0>         0.1533
     28 H9          9.8879    0.5955   -0.9601 H         1 <0>         0.4037
     29 H10         7.5357   -4.3014   -0.9862 H         1 <0>         0.4030
@<TRIPOS>BOND
     1    1    6 ar
     2    1    2 ar
     3    1   20 1
     4    2    3 ar
     5    2   21 1
     6    3    4 ar
     7    3   22 1
     8    4    5 ar
     9    4    7 1
    10    5    6 ar
    11    5   23 1
    12    6   24 1
    13    7   17 1
    14    7    8 2
    15    8    9 1
    16    8   25 1
    17    9   10 2
    18    9   11 1
    19   11   16 ar
    20   11   12 ar
    21   12   13 ar
    22   12   19 1
    23   13   14 ar
    24   13   26 1
    25   14   15 ar
    26   14   18 1
    27   15   16 ar
    28   15   27 1
    29   16   17 1
    30   18   28 1
    31   19   29 1
@<TRIPOS>MOLECULE
ZINC03872070
   28    30     0     0     0
SMALL
USER_CHARGES

@<TRIPOS>ATOM
      1 C1         -0.0167    1.3797    0.0096 C.ar      1 <0>        -0.1070
      2 C2          1.1682    2.0946    0.0022 C.ar      1 <0>        -0.1239
      3 C3          2.3774    1.4315   -0.0129 C.ar      1 <0>        -0.0844
      4 C4          2.4042    0.0344   -0.0206 C.ar      1 <0>        -0.0523
      5 C5          1.2037   -0.6807   -0.0130 C.ar      1 <0>        -0.0872
      6 C6          0.0021   -0.0041    0.0020 C.ar      1 <0>        -0.1230
      7 C7          3.6938   -0.6822   -0.0372 C.2       1 <0>         0.1725
      8 C8          3.6987   -2.0599   -0.0503 C.2       1 <0>        -0.2684
      9 C9          4.9147   -2.7500   -0.0661 C.2       1 <0>         0.3652
     10 C10         6.1116   -2.0009   -0.0682 C.2       1 <0>        -0.3412
     11 C11         7.3668   -2.6443   -0.0844 C.2       1 <0>         0.2654
     12 C12         8.5111   -1.9002   -0.0865 C.2       1 <0>        -0.3783
     13 C13         8.4435   -0.4975   -0.0722 C.2       1 <0>         0.3617
     14 O1          9.5678    0.2204   -0.0740 O.2       1 <0>        -0.6670
     15 C14         7.2040    0.1518   -0.0566 C.2       1 <0>        -0.3151
     16 C15         6.0392   -0.5896   -0.0543 C.2       1 <0>         0.2114
     17 O2          4.8365    0.0229   -0.0448 O.3       1 <0>        -0.2195
     18 O3          7.4365   -3.9993   -0.0974 O.3       1 <0>        -0.4477
     19 O4          4.9436   -4.1007   -0.0786 O.3       1 <0>        -0.5790
     20 H1         -0.9606    1.9042    0.0260 H         1 <0>         0.1247
     21 H2          1.1460    3.1743    0.0078 H         1 <0>         0.1280
     22 H3          3.3014    1.9906   -0.0191 H         1 <0>         0.1359
     23 H4          1.2169   -1.7606   -0.0192 H         1 <0>         0.1351
     24 H5         -0.9266   -0.5554    0.0079 H         1 <0>         0.1291
     25 H6          2.7663   -2.6050   -0.0479 H         1 <0>         0.1462
     26 H7          9.4725   -2.3921   -0.0990 H         1 <0>         0.1160
     27 H8          7.1585    1.2308   -0.0456 H         1 <0>         0.1202
     28 H9          8.3389   -4.3466   -0.1079 H         1 <0>         0.3827
@<TRIPOS>BOND
     1    1    6 ar
     2    1    2 ar
     3    1   20 1
     4    2    3 ar
     5    2   21 1
     6    3    4 ar
     7    3   22 1
     8    4    5 ar
     9    4    7 1
    10    5    6 ar
    11    5   23 1
    12    6   24 1
    13    7   17 1
    14    7    8 2
    15    8    9 1
    16    8   25 1
    17    9   10 2
    18    9   19 1
    19   10   16 1
    20   10   11 1
    21   11   12 2
    22   11   18 1
    23   12   13 1
    24   12   26 1
    25   13   14 2
    26   13   15 1
    27   15   16 2
    28   15   27 1
    29   16   17 1
    30   18   28 1
@<TRIPOS>MOLECULE
ZINC05161777
   30    31     0     0     0
SMALL
USER_CHARGES
3-[2-(4-aminophenyl)vinyl]aniline
@<TRIPOS>ATOM
      1 C1         -1.2204    1.7479    0.0174 C.ar      1 <0>        -0.0694
      2 C2         -1.2480    3.1275    0.0308 C.ar      1 <0>        -0.1744
      3 C3         -0.0517    3.8501    0.0232 C.ar      1 <0>        -0.0027
      4 C4          1.1682    3.1706    0.0079 C.ar      1 <0>        -0.1913
      5 C5          1.1837    1.7848    0.0003 C.ar      1 <0>         0.2161
      6 C6         -0.0126    1.0758    0.0080 C.ar      1 <0>        -0.2013
      7 N1          2.4013    1.1000   -0.0145 N.pl3     1 <0>        -0.8807
      8 C7         -0.0775    5.3237    0.0319 C.2       1 <0>        -0.1299
      9 C8         -1.2521    5.9745    0.0466 C.2       1 <0>        -0.0832
     10 C9         -1.2780    7.4474    0.0552 C.ar      1 <0>        -0.1222
     11 C10        -0.0807    8.1694    0.0540 C.ar      1 <0>        -0.0589
     12 C11        -0.1090    9.5465    0.0572 C.ar      1 <0>        -0.1995
     13 C12        -1.3266   10.2188    0.0725 C.ar      1 <0>         0.2208
     14 C13        -2.5199    9.5040    0.0791 C.ar      1 <0>        -0.1999
     15 C14        -2.4998    8.1269    0.0705 C.ar      1 <0>        -0.0537
     16 N2         -1.3511   11.6134    0.0816 N.pl3     1 <0>        -0.8761
     17 H1         -2.1459    1.1913    0.0187 H         1 <0>         0.1216
     18 H2         -2.1938    3.6487    0.0426 H         1 <0>         0.1209
     19 H3          2.0963    3.7230    0.0017 H         1 <0>         0.1200
     20 H4          0.0021   -0.0041    0.0020 H         1 <0>         0.1180
     21 H5          2.4122    0.1301   -0.0195 H         1 <0>         0.3980
     22 H6          3.2358    1.5945   -0.0198 H         1 <0>         0.3977
     23 H7          0.8481    5.8800    0.0264 H         1 <0>         0.1192
     24 H8         -2.1778    5.4182    0.0521 H         1 <0>         0.1214
     25 H9          0.8651    7.6481    0.0467 H         1 <0>         0.1245
     26 H10         0.8154   10.1049    0.0525 H         1 <0>         0.1210
     27 H11        -3.4633   10.0296    0.0905 H         1 <0>         0.1215
     28 H12        -3.4267    7.5726    0.0760 H         1 <0>         0.1244
     29 H13        -2.1995   12.0836    0.0925 H         1 <0>         0.3990
     30 H14        -0.5197   12.1131    0.0770 H         1 <0>         0.3989
@<TRIPOS>BOND
     1    1    6 ar
     2    1    2 ar
     3    1   17 1
     4    2    3 ar
     5    2   18 1
     6    3    4 ar
     7    3    8 1
     8    4    5 ar
     9    4   19 1
    10    5    6 ar
    11    5    7 1
    12    6   20 1
    13    7   21 1
    14    7   22 1
    15    8    9 2
    16    8   23 1
    17    9   10 1
    18    9   24 1
    19   10   15 ar
    20   10   11 ar
    21   11   12 ar
    22   11   25 1
    23   12   13 ar
    24   12   26 1
    25   13   14 ar
    26   13   16 1
    27   14   15 ar
    28   14   27 1
    29   15   28 1
    30   16   29 1
    31   16   30 1
@<TRIPOS>MOLECULE
ZINC34258590
   38    39     0     0     0
SMALL
USER_CHARGES

@<TRIPOS>ATOM
      1 C1         -0.0173    1.4248    0.0099 C.3       1 <0>         0.0263
      2 O1          0.0021   -0.0041    0.0020 O.3       1 <0>        -0.3079
      3 C2         -1.2011   -0.6379    0.0101 C.ar      1 <0>         0.0935
      4 C3         -2.3743    0.0994    0.0195 C.ar      1 <0>        -0.1697
      5 C4         -3.5965   -0.5465    0.0272 C.ar      1 <0>        -0.1136
      6 C5         -3.6519   -1.9279    0.0261 C.ar      1 <0>        -0.0779
      7 C6         -2.4852   -2.6694    0.0172 C.ar      1 <0>        -0.1695
      8 C7         -1.2569   -2.0283    0.0032 C.ar      1 <0>         0.1013
      9 O2         -0.1083   -2.7563   -0.0116 O.3       1 <0>        -0.3071
     10 C8         -0.2420   -4.1790   -0.0180 C.3       1 <0>         0.0260
     11 C9         -4.9869   -2.6268    0.0350 C.3       1 <0>        -0.0712
     12 C10        -5.4493   -2.8618   -1.4044 C.3       1 <0>        -0.0658
     13 C11        -6.7843   -3.5607   -1.3955 C.ar      1 <0>        -0.1421
     14 C12        -6.8396   -4.9425   -1.3909 C.ar      1 <0>        -0.0671
     15 C13        -8.0614   -5.5862   -1.3827 C.ar      1 <0>        -0.1971
     16 C14        -9.2357   -4.8441   -1.3790 C.ar      1 <0>         0.2117
     17 C15        -9.1765   -3.4562   -1.3836 C.ar      1 <0>        -0.1970
     18 C16        -7.9513   -2.8189   -1.3861 C.ar      1 <0>        -0.0666
     19 N1        -10.4731   -5.4919   -1.3712 N.pl3     1 <0>        -0.8804
     20 H1          1.0053    1.8021    0.0021 H         1 <0>         0.1005
     21 H2         -0.5445    1.7859   -0.8732 H         1 <0>         0.0546
     22 H3         -0.5275    1.7763    0.9067 H         1 <0>         0.0546
     23 H4         -2.3338    1.1787    0.0211 H         1 <0>         0.1349
     24 H5         -4.5102    0.0294    0.0345 H         1 <0>         0.1267
     25 H6         -2.5312   -3.7485    0.0167 H         1 <0>         0.1346
     26 H7          0.7471   -4.6369   -0.0298 H         1 <0>         0.1007
     27 H8         -0.7791   -4.4975    0.8754 H         1 <0>         0.0547
     28 H9         -0.7960   -4.4879   -0.9044 H         1 <0>         0.0549
     29 H10        -4.8923   -3.5844    0.5471 H         1 <0>         0.0720
     30 H11        -5.7178   -2.0075    0.5549 H         1 <0>         0.0744
     31 H12        -5.5439   -1.9042   -1.9165 H         1 <0>         0.0705
     32 H13        -4.7184   -3.4811   -1.9243 H         1 <0>         0.0690
     33 H14        -5.9263   -5.5188   -1.3941 H         1 <0>         0.1194
     34 H15        -8.1039   -6.6654   -1.3795 H         1 <0>         0.1183
     35 H16       -10.0876   -2.8763   -1.3812 H         1 <0>         0.1185
     36 H17        -7.9046   -1.7399   -1.3853 H         1 <0>         0.1202
     37 H18       -10.5131   -6.4611   -1.3683 H         1 <0>         0.3978
     38 H19       -11.2924   -4.9726   -1.3686 H         1 <0>         0.3979
@<TRIPOS>BOND
     1    1    2 1
     2    1   20 1
     3    1   21 1
     4    1   22 1
     5    2    3 1
     6    3    8 ar
     7    3    4 ar
     8    4    5 ar
     9    4   23 1
    10    5    6 ar
    11    5   24 1
    12    6    7 ar
    13    6   11 1
    14    7    8 ar
    15    7   25 1
    16    8    9 1
    17    9   10 1
    18   10   26 1
    19   10   27 1
    20   10   28 1
    21   11   12 1
    22   11   29 1
    23   11   30 1
    24   12   13 1
    25   12   31 1
    26   12   32 1
    27   13   18 ar
    28   13   14 ar
    29   14   15 ar
    30   14   33 1
    31   15   16 ar
    32   15   34 1
    33   16   17 ar
    34   16   19 1
    35   17   18 ar
    36   17   35 1
    37   18   36 1
    38   19   37 1
    39   19   38 1
@<TRIPOS>MOLECULE
ZINC06092536
   30    31     0     0     0
SMALL
USER_CHARGES

@<TRIPOS>ATOM
      1 C1         -0.0167    1.3794    0.0096 C.ar      1 <0>        -0.1115
      2 C2          1.1664    2.0886    0.0021 C.ar      1 <0>        -0.0620
      3 C3          2.3856    1.4065   -0.0131 C.ar      1 <0>        -0.0596
      4 C4          2.3967    0.0090   -0.0207 C.ar      1 <0>        -0.0419
      5 C5          1.2060   -0.6865   -0.0130 C.ar      1 <0>        -0.0449
      6 C6          0.0021   -0.0041    0.0020 C.ar      1 <0>        -0.0514
      7 N1          1.2156   -2.1667   -0.0215 N.pl3     1 <0>         0.0304
      8 O1          2.2664   -2.7643   -0.0351 O.2       1 <0>        -0.1535
      9 O2          0.1725   -2.7780   -0.0149 O.3       1 <0>        -0.1517
     10 C7          3.6541    2.1571   -0.0217 C.2       1 <0>        -0.0842
     11 C8          3.6397    3.4995   -0.0148 C.2       1 <0>        -0.1114
     12 C9          4.9081    4.2501   -0.0234 C.ar      1 <0>        -0.0050
     13 C10         6.1274    3.5680   -0.0444 C.ar      1 <0>        -0.1155
     14 C11         7.3104    4.2771   -0.0523 C.ar      1 <0>        -0.0490
     15 C12         7.2917    5.6607   -0.0394 C.ar      1 <0>        -0.0507
     16 C13         6.0880    6.3430   -0.0181 C.ar      1 <0>        -0.0508
     17 C14         4.8970    5.6474   -0.0163 C.ar      1 <0>        -0.1067
     18 N2          8.5656    6.4146   -0.0480 N.pl3     1 <0>         0.0315
     19 O3          9.6189    5.8214   -0.0662 O.2       1 <0>        -0.1560
     20 O4          8.5527    7.6234   -0.0367 O.3       1 <0>        -0.1561
     21 H1         -0.9599    1.9052    0.0260 H         1 <0>         0.1527
     22 H2          1.1503    3.1685    0.0077 H         1 <0>         0.1467
     23 H3          3.3355   -0.5248   -0.0328 H         1 <0>         0.1577
     24 H4         -0.9273   -0.5541    0.0083 H         1 <0>         0.1569
     25 H5          4.5951    1.6273   -0.0335 H         1 <0>         0.1358
     26 H6          2.6987    4.0294   -0.0030 H         1 <0>         0.1355
     27 H7          6.1435    2.4881   -0.0542 H         1 <0>         0.1498
     28 H8          8.2536    3.7512   -0.0682 H         1 <0>         0.1570
     29 H9          6.0811    7.4229   -0.0078 H         1 <0>         0.1570
     30 H10         3.9583    6.1813   -0.0049 H         1 <0>         0.1511
@<TRIPOS>BOND
     1    1    6 ar
     2    1    2 ar
     3    1   21 1
     4    2    3 ar
     5    2   22 1
     6    3    4 ar
     7    3   10 1
     8    4    5 ar
     9    4   23 1
    10    5    6 ar
    11    5    7 1
    12    6   24 1
    13    7    8 2
    14    7    9 1
    15   10   11 2
    16   10   25 1
    17   11   12 1
    18   11   26 1
    19   12   17 ar
    20   12   13 ar
    21   13   14 ar
    22   13   27 1
    23   14   15 ar
    24   14   28 1
    25   15   16 ar
    26   15   18 1
    27   16   17 ar
    28   16   29 1
    29   17   30 1
    30   18   19 2
    31   18   20 1
@<TRIPOS>MOLECULE
ZINC02567976
   36    37     0     0     0
SMALL
USER_CHARGES
4-[2-(2,5-dimethoxyphenyl)vinyl]aniline
@<TRIPOS>ATOM
      1 C1         -0.0127    1.0858    0.0080 C.3       1 <0>         0.0274
      2 O1         -0.6816    1.5467    1.1837 O.3       1 <0>        -0.3177
      3 C2         -0.1485    1.1819    2.3803 C.ar      1 <0>         0.0963
      4 C3          0.9926    0.3912    2.4180 C.ar      1 <0>        -0.1706
      5 C4          1.5450    0.0201    3.6295 C.ar      1 <0>        -0.1668
      6 C5          0.9568    0.4256    4.8156 C.ar      1 <0>         0.1006
      7 C6         -0.1983    1.2190    4.7855 C.ar      1 <0>        -0.0379
      8 C7         -0.7474    1.5947    3.5571 C.ar      1 <0>        -0.1139
      9 C8         -0.8298    1.6548    6.0428 C.2       1 <0>        -0.1160
     10 C9         -1.9365    2.4155    6.0101 C.2       1 <0>        -0.0894
     11 C10        -2.5681    2.8515    7.2676 C.ar      1 <0>        -0.1195
     12 C11        -2.0204    2.4697    8.4961 C.ar      1 <0>        -0.0584
     13 C12        -2.6106    2.8842    9.6697 C.ar      1 <0>        -0.1990
     14 C13        -3.7564    3.6718    9.6337 C.ar      1 <0>         0.2199
     15 C14        -4.3075    4.0488    8.4137 C.ar      1 <0>        -0.2000
     16 C15        -3.7199    3.6432    7.2357 C.ar      1 <0>        -0.0545
     17 N1         -4.3548    4.0843   10.8247 N.pl3     1 <0>        -0.8767
     18 O2          1.4983    0.0556    6.0060 O.3       1 <0>        -0.3121
     19 C16         2.6755   -0.7532    5.9597 C.3       1 <0>         0.0264
     20 H1          0.0021   -0.0041    0.0020 H         1 <0>         0.0546
     21 H2          1.0099    1.4631    0.0003 H         1 <0>         0.0546
     22 H3         -0.5399    1.4469   -0.8751 H         1 <0>         0.1006
     23 H4          1.4530    0.0680    1.4961 H         1 <0>         0.1308
     24 H5          2.4348   -0.5915    3.6511 H         1 <0>         0.1322
     25 H6         -1.6371    2.2062    3.5262 H         1 <0>         0.1407
     26 H7         -0.4030    1.3628    6.9910 H         1 <0>         0.1280
     27 H8         -2.3632    2.7076    5.0620 H         1 <0>         0.1201
     28 H9         -1.1335    1.8542    8.5248 H         1 <0>         0.1258
     29 H10        -2.1854    2.5937   10.6190 H         1 <0>         0.1209
     30 H11        -5.1971    4.6608    8.3898 H         1 <0>         0.1211
     31 H12        -4.1487    3.9361    6.2887 H         1 <0>         0.1243
     32 H13        -5.1541    4.6333   10.8011 H         1 <0>         0.3987
     33 H14        -3.9715    3.8221   11.6763 H         1 <0>         0.3987
     34 H15         3.0030   -0.9765    6.9751 H         1 <0>         0.1010
     35 H16         2.4568   -1.6835    5.4356 H         1 <0>         0.0548
     36 H17         3.4647   -0.2164    5.4332 H         1 <0>         0.0548
@<TRIPOS>BOND
     1    1    2 1
     2    1   20 1
     3    1   21 1
     4    1   22 1
     5    2    3 1
     6    3    8 ar
     7    3    4 ar
     8    4    5 ar
     9    4   23 1
    10    5    6 ar
    11    5   24 1
    12    6    7 ar
    13    6   18 1
    14    7    8 ar
    15    7    9 1
    16    8   25 1
    17    9   10 2
    18    9   26 1
    19   10   11 1
    20   10   27 1
    21   11   16 ar
    22   11   12 ar
    23   12   13 ar
    24   12   28 1
    25   13   14 ar
    26   13   29 1
    27   14   15 ar
    28   14   17 1
    29   15   16 ar
    30   15   30 1
    31   16   31 1
    32   17   32 1
    33   17   33 1
    34   18   19 1
    35   19   34 1
    36   19   35 1
    37   19   36 1
@<TRIPOS>MOLECULE
ZINC04385852
   42    43     0     0     0
SMALL
USER_CHARGES

@<TRIPOS>ATOM
      1 C1         -0.0534    1.7831    1.0836 C.3       1 <0>        -0.1278
      2 C2         -0.0791    0.3106    0.7637 C.ar      1 <0>        -0.0236
      3 C3         -1.1775   -0.4534    1.1119 C.ar      1 <0>        -0.1410
      4 C4         -1.2010   -1.8038    0.8185 C.ar      1 <0>         0.0198
      5 C5         -0.1263   -2.3905    0.1765 C.ar      1 <0>        -0.6839
      6 C6          0.9714   -1.6266   -0.1724 C.ar      1 <0>        -0.0150
      7 C7          0.9931   -0.2749    0.1172 C.ar      1 <0>        -0.1133
      8 C8          2.1877    0.5592   -0.2679 C.3       1 <0>        -0.1189
      9 S1         -0.1558   -4.1124   -0.1965 S.o2      1 <0>         2.6986
     10 O1          1.0400   -4.3938   -0.9106 O.2       1 <0>        -0.9568
     11 O2         -0.4995   -4.7830    1.0082 O.2       1 <0>        -0.9531
     12 N1         -1.4073   -4.3634   -1.2516 N.pl3     1 <0>        -1.1170
     13 C9         -1.3529   -3.7956   -2.6010 C.3       1 <0>         0.1200
     14 C10        -2.4302   -4.4454   -3.4716 C.3       1 <0>        -0.1435
     15 C11        -2.3733   -3.8524   -4.8808 C.3       1 <0>         0.1052
     16 N2         -3.4049   -4.4747   -5.7145 N.pl3     1 <0>        -0.4608
     17 C12        -3.2635   -5.6054   -6.4728 C.2       1 <0>        -0.0563
     18 C13        -4.4494   -5.8229   -7.0729 C.2       1 <0>        -0.0286
     19 N3         -5.2918   -4.8515   -6.6913 N.2       1 <0>        -0.4947
     20 C14        -4.6746   -4.0431   -5.8736 C.2       1 <0>         0.1806
     21 C15        -2.3979   -2.6368    1.1990 C.3       1 <0>        -0.1704
     22 H1         -0.4828    2.3429    0.2528 H         1 <0>         0.0800
     23 H2         -0.6353    1.9690    1.9864 H         1 <0>         0.0733
     24 H3          0.9765    2.1023    1.2431 H         1 <0>         0.0762
     25 H4         -2.0170    0.0050    1.6135 H         1 <0>         0.1322
     26 H5          1.8110   -2.0850   -0.6737 H         1 <0>         0.1434
     27 H6          2.9114    0.5555    0.5472 H         1 <0>         0.0745
     28 H7          2.6477    0.1429   -1.1641 H         1 <0>         0.0712
     29 H8          1.8680    1.5824   -0.4653 H         1 <0>         0.0721
     30 H9         -2.1764   -4.8864   -0.9761 H         1 <0>         0.4206
     31 H10        -1.5263   -2.7207   -2.5501 H         1 <0>         0.0708
     32 H11        -0.3714   -3.9851   -3.0356 H         1 <0>         0.0860
     33 H12        -2.2567   -5.5203   -3.5224 H         1 <0>         0.0832
     34 H13        -3.4117   -4.2559   -3.0370 H         1 <0>         0.0814
     35 H14        -2.5468   -2.7775   -4.8300 H         1 <0>         0.0988
     36 H15        -1.3918   -4.0419   -5.3154 H         1 <0>         0.0981
     37 H16        -2.3722   -6.2072   -6.5713 H         1 <0>         0.1745
     38 H17        -4.6813   -6.6369   -7.7437 H         1 <0>         0.1697
     39 H18        -5.1068   -3.1718   -5.4041 H         1 <0>         0.2034
     40 H19        -3.0668   -2.7240    0.3428 H         1 <0>         0.0849
     41 H20        -2.0674   -3.6295    1.5044 H         1 <0>         0.1011
     42 H21        -2.9252   -2.1593    2.0248 H         1 <0>         0.0850
@<TRIPOS>BOND
     1    1    2 1
     2    1   22 1
     3    1   23 1
     4    1   24 1
     5    2    7 ar
     6    2    3 ar
     7    3    4 ar
     8    3   25 1
     9    4    5 ar
    10    4   21 1
    11    5    6 ar
    12    5    9 1
    13    6    7 ar
    14    6   26 1
    15    7    8 1
    16    8   27 1
    17    8   28 1
    18    8   29 1
    19    9   10 2
    20    9   11 2
    21    9   12 1
    22   12   13 1
    23   12   30 1
    24   13   14 1
    25   13   31 1
    26   13   32 1
    27   14   15 1
    28   14   33 1
    29   14   34 1
    30   15   16 1
    31   15   35 1
    32   15   36 1
    33   16   20 1
    34   16   17 1
    35   17   18 2
    36   17   37 1
    37   18   19 1
    38   18   38 1
    39   19   20 2
    40   20   39 1
    41   21   40 1
    42   21   41 1
    43   21   42 1
@<TRIPOS>MOLECULE
ZINC04385852
   43    44     0     0     0
SMALL
USER_CHARGES

@<TRIPOS>ATOM
      1 C1         -0.0534    1.7831    1.0836 C.3       1 <0>        -0.1305
      2 C2         -0.0791    0.3106    0.7637 C.ar      1 <0>        -0.0199
      3 C3         -1.1775   -0.4534    1.1119 C.ar      1 <0>        -0.1402
      4 C4         -1.2010   -1.8038    0.8185 C.ar      1 <0>         0.0169
      5 C5         -0.1263   -2.3905    0.1765 C.ar      1 <0>        -0.6863
      6 C6          0.9714   -1.6266   -0.1724 C.ar      1 <0>        -0.0160
      7 C7          0.9931   -0.2749    0.1172 C.ar      1 <0>        -0.1103
      8 C8          2.1877    0.5592   -0.2679 C.3       1 <0>        -0.1213
      9 S1         -0.1558   -4.1124   -0.1965 S.o2      1 <0>         2.6978
     10 O1          1.0400   -4.3938   -0.9106 O.2       1 <0>        -0.9535
     11 O2         -0.4995   -4.7830    1.0082 O.2       1 <0>        -0.9464
     12 N1         -1.4073   -4.3634   -1.2516 N.pl3     1 <0>        -1.1198
     13 C9         -1.3529   -3.7956   -2.6010 C.3       1 <0>         0.1197
     14 C10        -2.4302   -4.4454   -3.4716 C.3       1 <0>        -0.1498
     15 C11        -2.3733   -3.8524   -4.8808 C.3       1 <0>         0.0915
     16 N2         -3.4049   -4.4747   -5.7145 N.pl3     1 <0>        -0.4083
     17 C12        -3.2637   -5.6057   -6.4725 C.2       1 <0>         0.0266
     18 C13        -4.4495   -5.8231   -7.0726 C.2       1 <0>         0.0044
     19 N3         -5.2918   -4.8513   -6.6915 N.pl3     1 <0>        -0.4759
     20 C14        -4.6745   -4.0429   -5.8740 C.cat     1 <0>         0.2876
     21 C15        -2.3979   -2.6368    1.1990 C.3       1 <0>        -0.1688
     22 H1         -0.4828    2.3429    0.2528 H         1 <0>         0.0809
     23 H2         -0.6353    1.9690    1.9864 H         1 <0>         0.0752
     24 H3          0.9765    2.1023    1.2431 H         1 <0>         0.0783
     25 H4         -2.0170    0.0050    1.6135 H         1 <0>         0.1332
     26 H5          1.8110   -2.0850   -0.6737 H         1 <0>         0.1439
     27 H6          2.9114    0.5555    0.5472 H         1 <0>         0.0772
     28 H7          2.6477    0.1429   -1.1641 H         1 <0>         0.0715
     29 H8          1.8680    1.5824   -0.4653 H         1 <0>         0.0735
     30 H9         -2.1764   -4.8864   -0.9761 H         1 <0>         0.4208
     31 H10        -1.5263   -2.7207   -2.5501 H         1 <0>         0.0758
     32 H11        -0.3714   -3.9851   -3.0356 H         1 <0>         0.0915
     33 H12        -2.2567   -5.5203   -3.5224 H         1 <0>         0.0929
     34 H13        -3.4117   -4.2559   -3.0370 H         1 <0>         0.0884
     35 H14        -2.5468   -2.7775   -4.8300 H         1 <0>         0.1265
     36 H15        -1.3918   -4.0419   -5.3154 H         1 <0>         0.1308
     37 H16        -2.3724   -6.2077   -6.5706 H         1 <0>         0.2240
     38 H17        -4.6815   -6.6372   -7.7433 H         1 <0>         0.2243
     39 H18        -5.1066   -3.1713   -5.4048 H         1 <0>         0.2598
     40 H19        -3.0668   -2.7240    0.3428 H         1 <0>         0.0807
     41 H20        -2.0674   -3.6295    1.5044 H         1 <0>         0.1008
     42 H21        -2.9252   -2.1593    2.0248 H         1 <0>         0.0867
     43 H22        -6.2152   -4.7652   -6.9757 H         1 <0>         0.4657
@<TRIPOS>BOND
     1    1    2 1
     2    1   22 1
     3    1   23 1
     4    1   24 1
     5    2    7 ar
     6    2    3 ar
     7    3    4 ar
     8    3   25 1
     9    4    5 ar
    10    4   21 1
    11    5    6 ar
    12    5    9 1
    13    6    7 ar
    14    6   26 1
    15    7    8 1
    16    8   27 1
    17    8   28 1
    18    8   29 1
    19    9   10 2
    20    9   11 2
    21    9   12 1
    22   12   13 1
    23   12   30 1
    24   13   14 1
    25   13   31 1
    26   13   32 1
    27   14   15 1
    28   14   33 1
    29   14   34 1
    30   15   16 1
    31   15   35 1
    32   15   36 1
    33   16   20 1
    34   16   17 1
    35   17   18 2
    36   17   37 1
    37   18   19 1
    38   18   38 1
    39   19   20 2
    40   19   43 1
    41   20   39 1
    42   21   40 1
    43   21   41 1
    44   21   42 1
@<TRIPOS>MOLECULE
ZINC18847037
   33    35     0     0     0
SMALL
USER_CHARGES

@<TRIPOS>ATOM
      1 C1         -0.0173    1.4248    0.0099 C.3       1 <0>         0.0257
      2 O1          0.0021   -0.0041    0.0020 O.3       1 <0>        -0.3163
      3 C2          0.6259   -0.6184    1.0416 C.ar      1 <0>         0.1346
      4 C3          1.2017    0.1413    2.0505 C.ar      1 <0>        -0.2081
      5 C4          1.8351   -0.4792    3.1070 C.ar      1 <0>        -0.0652
      6 C5          1.8965   -1.8707    3.1609 C.ar      1 <0>        -0.0695
      7 C6          1.3173   -2.6308    2.1463 C.ar      1 <0>        -0.0470
      8 C7          0.6807   -2.0044    1.0951 C.ar      1 <0>        -0.1503
      9 C8          2.5773   -2.5411    4.2955 C.2       1 <0>        -0.2301
     10 C9          2.0898   -2.4416    5.5593 C.2       1 <0>         0.1222
     11 O2          2.6644   -3.0420    6.6041 O.3       1 <0>        -0.2153
     12 C10         3.9203   -3.5262    6.5411 C.ar      1 <0>         0.1758
     13 C11         4.6109   -3.8503    7.7004 C.ar      1 <0>        -0.1825
     14 C12         5.8988   -4.3556    7.6239 C.ar      1 <0>         0.1909
     15 C13         6.5160   -4.5473    6.3921 C.ar      1 <0>        -0.2036
     16 C14         5.8471   -4.2284    5.2249 C.ar      1 <0>         0.2177
     17 C15         4.5483   -3.7100    5.2959 C.ar      1 <0>        -0.2618
     18 C16         3.7998   -3.3401    4.0813 C.2       1 <0>         0.4315
     19 O3          4.1694   -3.6700    2.9673 O.2       1 <0>        -0.4364
     20 O4          6.4443   -4.4158    4.0209 O.3       1 <0>        -0.4758
     21 O5          6.5661   -4.6669    8.7643 O.3       1 <0>        -0.4882
     22 H1          1.0053    1.8021    0.0021 H         1 <0>         0.0568
     23 H2         -0.5445    1.7859   -0.8732 H         1 <0>         0.1019
     24 H3         -0.5275    1.7763    0.9067 H         1 <0>         0.0568
     25 H4          1.1541    1.2194    2.0079 H         1 <0>         0.1317
     26 H5          2.2833    0.1125    3.8915 H         1 <0>         0.1264
     27 H6          1.3632   -3.7091    2.1852 H         1 <0>         0.1304
     28 H7          0.2278   -2.5928    0.3108 H         1 <0>         0.1347
     29 H8          1.2005   -1.8518    5.7260 H         1 <0>         0.2010
     30 H9          4.1439   -3.7080    8.6637 H         1 <0>         0.1535
     31 H10         7.5190   -4.9453    6.3475 H         1 <0>         0.1500
     32 H11         6.2888   -5.2893    3.6365 H         1 <0>         0.4049
     33 H12         6.4352   -5.5781    9.0604 H         1 <0>         0.4038
@<TRIPOS>BOND
     1    1    2 1
     2    1   22 1
     3    1   23 1
     4    1   24 1
     5    2    3 1
     6    3    8 ar
     7    3    4 ar
     8    4    5 ar
     9    4   25 1
    10    5    6 ar
    11    5   26 1
    12    6    7 ar
    13    6    9 1
    14    7    8 ar
    15    7   27 1
    16    8   28 1
    17    9   18 1
    18    9   10 2
    19   10   11 1
    20   10   29 1
    21   11   12 1
    22   12   17 ar
    23   12   13 ar
    24   13   14 ar
    25   13   30 1
    26   14   15 ar
    27   14   21 1
    28   15   16 ar
    29   15   31 1
    30   16   17 ar
    31   16   20 1
    32   17   18 1
    33   18   19 2
    34   20   32 1
    35   21   33 1
@<TRIPOS>MOLECULE
ZINC03919580
   48    51     0     0     0
SMALL
USER_CHARGES

@<TRIPOS>ATOM
      1 C1         -0.0087    1.5258    0.0167 C.3       1 <0>        -0.1562
      2 C2          0.0131   -0.0040    0.0089 C.3       1 <0>        -0.0084
      3 C3         -1.4230   -0.4593   -0.0764 C.3       1 <0>        -0.1148
      4 C4         -1.6456   -1.8122    0.5985 C.3       1 <0>        -0.1585
      5 C5         -1.1516   -1.6984    2.0283 C.2       1 <0>         0.3718
      6 O1         -1.8435   -2.0129    2.9738 O.2       1 <0>        -0.4478
      7 C6          0.2187   -1.1836    2.2012 C.2       1 <0>        -0.0029
      8 C7          0.7515   -0.4297    1.2394 C.2       1 <0>        -0.0923
      9 C8          2.1986    0.0132    1.3752 C.3       1 <0>        -0.0804
     10 C9          2.9358   -0.4085    0.0990 C.3       1 <0>        -0.1098
     11 C10         2.2242    0.1636   -1.1272 C.3       1 <0>        -0.0787
     12 H1          2.1677    1.2490   -1.0451 H         1 <0>         0.0903
     13 C11         0.8058   -0.4222   -1.2304 C.3       1 <0>        -0.0653
     14 H2          0.8679   -1.5098   -1.2670 H         1 <0>         0.0729
     15 C12         0.0875    0.0667   -2.4846 C.3       1 <0>        -0.1245
     16 C13         0.9090   -0.2126   -3.7533 C.3       1 <0>        -0.0967
     17 C14         2.2527    0.4666   -3.5776 C.3       1 <0>        -0.1250
     18 C15         2.9798   -0.2147   -2.3885 C.3       1 <0>        -0.0788
     19 H3          2.9829   -1.2965   -2.5216 H         1 <0>         0.0822
     20 C16         4.3934    0.3675   -2.5145 C.3       1 <0>        -0.1117
     21 C17         4.6260    0.3572   -4.0500 C.3       1 <0>        -0.1813
     22 C18         3.2316    0.3351   -4.7066 C.2       1 <0>         0.3783
     23 O2          2.9773    0.2598   -5.8847 O.2       1 <0>        -0.4375
     24 C19         2.0429    1.9457   -3.2472 C.3       1 <0>        -0.1446
     25 O3          0.9339   -1.4865    3.3177 O.3       1 <0>        -0.4674
     26 H4          1.0137    1.9037    0.0058 H         1 <0>         0.0680
     27 H5         -0.5387    1.8861   -0.8649 H         1 <0>         0.0667
     28 H6         -0.5164    1.8773    0.9149 H         1 <0>         0.0562
     29 H7         -2.0583    0.2842    0.4050 H         1 <0>         0.0731
     30 H8         -1.7069   -0.5373   -1.1259 H         1 <0>         0.0927
     31 H9         -2.7075   -2.0582    0.5926 H         1 <0>         0.0975
     32 H10        -1.0835   -2.5844    0.0733 H         1 <0>         0.1039
     33 H11         2.2445    1.0964    1.4878 H         1 <0>         0.0756
     34 H12         2.6529   -0.4688    2.2409 H         1 <0>         0.0823
     35 H13         3.9589   -0.0338    0.1314 H         1 <0>         0.0701
     36 H14         2.9522   -1.4964    0.0332 H         1 <0>         0.0640
     37 H15        -0.8740   -0.4407   -2.5644 H         1 <0>         0.0708
     38 H16        -0.0840    1.1398   -2.4009 H         1 <0>         0.0757
     39 H17         1.0493   -1.2866   -3.8754 H         1 <0>         0.0668
     40 H18         0.3973    0.1970   -4.6242 H         1 <0>         0.0718
     41 H19         4.4292    1.3847   -2.1244 H         1 <0>         0.0786
     42 H20         5.1203   -0.2680   -2.0086 H         1 <0>         0.0782
     43 H21         5.1853    1.2438   -4.3488 H         1 <0>         0.0986
     44 H22         5.1693   -0.5424   -4.3392 H         1 <0>         0.0942
     45 H23         1.3931    2.0349   -2.3767 H         1 <0>         0.0818
     46 H24         3.0052    2.4098   -3.0314 H         1 <0>         0.0633
     47 H25         1.5809    2.4461   -4.0983 H         1 <0>         0.0590
     48 H26         0.4612   -2.0480    3.9473 H         1 <0>         0.3983
@<TRIPOS>BOND
     1    1    2 1
     2    1   26 1
     3    1   27 1
     4    1   28 1
     5    2    8 1
     6    2   13 1
     7    2    3 1
     8    3    4 1
     9    3   29 1
    10    3   30 1
    11    4    5 1
    12    4   31 1
    13    4   32 1
    14    5    6 2
    15    5    7 1
    16    7    8 2
    17    7   25 1
    18    8    9 1
    19    9   10 1
    20    9   33 1
    21    9   34 1
    22   10   11 1
    23   10   35 1
    24   10   36 1
    25   11   12 1
    26   11   18 1
    27   11   13 1
    28   13   14 1
    29   13   15 1
    30   15   16 1
    31   15   37 1
    32   15   38 1
    33   16   17 1
    34   16   39 1
    35   16   40 1
    36   17   22 1
    37   17   18 1
    38   17   24 1
    39   18   19 1
    40   18   20 1
    41   20   21 1
    42   20   41 1
    43   20   42 1
    44   21   22 1
    45   21   43 1
    46   21   44 1
    47   22   23 2
    48   24   45 1
    49   24   46 1
    50   24   47 1
    51   25   48 1
@<TRIPOS>MOLECULE
ZINC04937432
   37    38     0     0     0
SMALL
USER_CHARGES

@<TRIPOS>ATOM
      1 C1         -0.0173    1.4248    0.0099 C.3       1 <0>         0.0165
      2 O1          0.0021   -0.0041    0.0020 O.3       1 <0>        -0.2897
      3 C2         -1.2005   -0.6376    0.0101 C.ar      1 <0>         0.2069
      4 C3         -2.3744    0.1008    0.0195 C.ar      1 <0>        -0.2086
      5 C4         -3.5965   -0.5459    0.0272 C.ar      1 <0>         0.0900
      6 C5         -3.6487   -1.9288    0.0256 C.ar      1 <0>        -0.7018
      7 C6         -2.4799   -2.6668    0.0162 C.ar      1 <0>         0.0389
      8 C7         -1.2556   -2.0246    0.0032 C.ar      1 <0>        -0.0880
      9 Cl1         0.2117   -2.9522   -0.0153 Cl        1 <0>        -0.0288
     10 S1         -5.2076   -2.7502    0.0360 S.o2      1 <0>         2.6982
     11 O2         -5.9921   -2.1454   -0.9828 O.2       1 <0>        -0.9343
     12 O3         -4.9320   -4.1440    0.0590 O.2       1 <0>        -0.9472
     13 N1         -5.9416   -2.3890    1.4758 N.pl3     1 <0>        -1.1102
     14 C8         -6.3327   -1.0087    1.7727 C.3       1 <0>         0.1093
     15 C9         -7.3014   -0.9966    2.9569 C.3       1 <0>        -0.1471
     16 C10        -7.7099    0.4449    3.2669 C.3       1 <0>         0.1054
     17 N2         -8.6374    0.4566    4.4008 N.pl3     1 <0>        -0.4607
     18 C11       -10.0017    0.3659    4.3352 C.2       1 <0>        -0.0564
     19 C12       -10.4568    0.4150    5.6017 C.2       1 <0>        -0.0282
     20 N3         -9.3993    0.5323    6.4184 N.2       1 <0>        -0.4943
     21 C13        -8.3058    0.5528    5.7064 C.2       1 <0>         0.1809
     22 Cl2        -5.0664    0.3776    0.0395 Cl        1 <0>        -0.0261
     23 H1          1.0053    1.8021    0.0021 H         1 <0>         0.1143
     24 H2         -0.5445    1.7859   -0.8732 H         1 <0>         0.0662
     25 H3         -0.5275    1.7763    0.9067 H         1 <0>         0.0656
     26 H4         -2.3341    1.1801    0.0211 H         1 <0>         0.1598
     27 H5         -2.5232   -3.7460    0.0150 H         1 <0>         0.1716
     28 H6         -6.1127   -3.0913    2.1226 H         1 <0>         0.4238
     29 H7         -5.4463   -0.4256    2.0224 H         1 <0>         0.0759
     30 H8         -6.8200   -0.5735    0.9002 H         1 <0>         0.0880
     31 H9         -8.1879   -1.5797    2.7072 H         1 <0>         0.0842
     32 H10        -6.8141   -1.4318    3.8294 H         1 <0>         0.0830
     33 H11        -6.8235    1.0280    3.5166 H         1 <0>         0.0986
     34 H12        -8.1972    0.8801    2.3944 H         1 <0>         0.0964
     35 H13       -10.5984    0.2733    3.4398 H         1 <0>         0.1744
     36 H14       -11.4919    0.3680    5.9064 H         1 <0>         0.1699
     37 H15        -7.3022    0.6356    6.0965 H         1 <0>         0.2036
@<TRIPOS>BOND
     1    1    2 1
     2    1   23 1
     3    1   24 1
     4    1   25 1
     5    2    3 1
     6    3    8 ar
     7    3    4 ar
     8    4    5 ar
     9    4   26 1
    10    5    6 ar
    11    5   22 1
    12    6    7 ar
    13    6   10 1
    14    7    8 ar
    15    7   27 1
    16    8    9 1
    17   10   11 2
    18   10   12 2
    19   10   13 1
    20   13   14 1
    21   13   28 1
    22   14   15 1
    23   14   29 1
    24   14   30 1
    25   15   16 1
    26   15   31 1
    27   15   32 1
    28   16   17 1
    29   16   33 1
    30   16   34 1
    31   17   21 1
    32   17   18 1
    33   18   19 2
    34   18   35 1
    35   19   20 1
    36   19   36 1
    37   20   21 2
    38   21   37 1
@<TRIPOS>MOLECULE
ZINC04937432
   38    39     0     0     0
SMALL
USER_CHARGES

@<TRIPOS>ATOM
      1 C1         -0.0173    1.4248    0.0099 C.3       1 <0>         0.0162
      2 O1          0.0021   -0.0041    0.0020 O.3       1 <0>        -0.2872
      3 C2          0.6259   -0.6185    1.0417 C.ar      1 <0>         0.2099
      4 C3          1.2022    0.1381    2.0511 C.ar      1 <0>        -0.2079
      5 C4          1.8358   -0.4892    3.1078 C.ar      1 <0>         0.0891
      6 C5          1.8952   -1.8709    3.1587 C.ar      1 <0>        -0.7038
      7 C6          1.3216   -2.6270    2.1538 C.ar      1 <0>         0.0393
      8 C7          0.6823   -2.0044    1.0977 C.ar      1 <0>        -0.0868
      9 Cl1        -0.0436   -2.9549   -0.1606 Cl        1 <0>        -0.0220
     10 S1          2.7038   -2.6675    4.5064 S.o2      1 <0>         2.6978
     11 O2          2.1986   -2.0710    5.6931 O.2       1 <0>        -0.9307
     12 O3          2.6211   -4.0647    4.2612 O.2       1 <0>        -0.9402
     13 N1          4.3082   -2.2662    4.4210 N.pl3     1 <0>        -1.1130
     14 C8          4.7260   -0.8743    4.6065 C.3       1 <0>         0.1084
     15 C9          6.2351   -0.8234    4.8533 C.3       1 <0>        -0.1538
     16 C10         6.6715    0.6302    5.0470 C.3       1 <0>         0.0909
     17 N2          8.1165    0.6789    5.2834 N.pl3     1 <0>        -0.4081
     18 C11         8.7437    0.6078    6.4980 C.2       1 <0>         0.0262
     19 C12        10.0664    0.6894    6.2588 C.2       1 <0>         0.0050
     20 N3         10.2421    0.8071    4.9343 N.pl3     1 <0>        -0.4757
     21 C13         9.0787    0.7965    4.3432 C.cat     1 <0>         0.2877
     22 Cl2         2.5578    0.4572    4.3715 Cl        1 <0>        -0.0356
     23 H1          1.0053    1.8021    0.0021 H         1 <0>         0.0649
     24 H2         -0.5445    1.7859   -0.8732 H         1 <0>         0.1167
     25 H3         -0.5275    1.7763    0.9067 H         1 <0>         0.0674
     26 H4          1.1563    1.2165    2.0116 H         1 <0>         0.1604
     27 H5          1.3692   -3.7052    2.1956 H         1 <0>         0.1727
     28 H6          4.9713   -2.9527    4.2483 H         1 <0>         0.4240
     29 H7          4.4846   -0.3002    3.7120 H         1 <0>         0.0809
     30 H8          4.2032   -0.4491    5.4632 H         1 <0>         0.0935
     31 H9          6.4765   -1.3975    5.7479 H         1 <0>         0.0940
     32 H10         6.7580   -1.2486    3.9966 H         1 <0>         0.0900
     33 H11         6.4301    1.2043    4.1525 H         1 <0>         0.1264
     34 H12         6.1486    1.0554    5.9037 H         1 <0>         0.1292
     35 H13         8.2690    0.5062    7.4627 H         1 <0>         0.2240
     36 H14        10.8487    0.6644    7.0030 H         1 <0>         0.2245
     37 H15         8.9128    0.8719    3.2787 H         1 <0>         0.2600
     38 H16        11.0989    0.8842    4.4862 H         1 <0>         0.4658
@<TRIPOS>BOND
     1    1    2 1
     2    1   23 1
     3    1   24 1
     4    1   25 1
     5    2    3 1
     6    3    8 ar
     7    3    4 ar
     8    4    5 ar
     9    4   26 1
    10    5    6 ar
    11    5   22 1
    12    6    7 ar
    13    6   10 1
    14    7    8 ar
    15    7   27 1
    16    8    9 1
    17   10   11 2
    18   10   12 2
    19   10   13 1
    20   13   14 1
    21   13   28 1
    22   14   15 1
    23   14   29 1
    24   14   30 1
    25   15   16 1
    26   15   31 1
    27   15   32 1
    28   16   17 1
    29   16   33 1
    30   16   34 1
    31   17   21 1
    32   17   18 1
    33   18   19 2
    34   18   35 1
    35   19   20 1
    36   19   36 1
    37   20   21 2
    38   20   38 1
    39   21   37 1
@<TRIPOS>MOLECULE
ZINC01027711
   24    25     0     0     0
SMALL
USER_CHARGES
1-[(4-nitrophenyl)methyl]imidazole
@<TRIPOS>ATOM
      1 C1          1.1709    2.0855    0.0021 C.ar      1 <0>        -0.0970
      2 C2          2.3773    1.4107   -0.0150 C.ar      1 <0>        -0.0536
      3 C3          2.3960    0.0285   -0.0212 C.ar      1 <0>        -0.0347
      4 C4          1.2084   -0.6789   -0.0132 C.ar      1 <0>        -0.0531
      5 C5          0.0021   -0.0041    0.0020 C.ar      1 <0>        -0.0977
      6 C6         -0.0167    1.3781    0.0096 C.ar      1 <0>        -0.0672
      7 C7         -1.3319    2.1138    0.0199 C.3       1 <0>         0.1418
      8 N1         -1.7515    2.3447    1.4044 N.pl3     1 <0>        -0.4610
      9 C8         -1.4462    3.4343    2.1746 C.2       1 <0>        -0.0563
     10 C9         -2.0300    3.2404    3.3726 C.2       1 <0>        -0.0244
     11 N2         -2.6741    2.0645    3.3349 N.2       1 <0>        -0.4908
     12 C10        -2.5165    1.5251    2.1571 C.2       1 <0>         0.1846
     13 N3          3.6878   -0.6940   -0.0370 N.pl3     1 <0>         0.0235
     14 O1          3.7043   -1.9119   -0.0429 O.2       1 <0>        -0.1525
     15 O2          4.7342   -0.0707   -0.0441 O.3       1 <0>        -0.1529
     16 H1          1.1563    3.1654    0.0077 H         1 <0>         0.1491
     17 H2          3.3051    1.9634   -0.0213 H         1 <0>         0.1582
     18 H3          1.2231   -1.7588   -0.0184 H         1 <0>         0.1586
     19 H4         -0.9258   -0.5567    0.0083 H         1 <0>         0.1503
     20 H5         -1.2169    3.0707   -0.4893 H         1 <0>         0.1108
     21 H6         -2.0859    1.5173   -0.4937 H         1 <0>         0.1132
     22 H7         -0.8520    4.2860    1.8783 H         1 <0>         0.1751
     23 H8         -1.9870    3.9137    4.2160 H         1 <0>         0.1713
     24 H9         -2.9276    0.5787    1.8380 H         1 <0>         0.2047
@<TRIPOS>BOND
     1    1    6 ar
     2    1    2 ar
     3    1   16 1
     4    2    3 ar
     5    2   17 1
     6    3    4 ar
     7    3   13 1
     8    4    5 ar
     9    4   18 1
    10    5    6 ar
    11    5   19 1
    12    6    7 1
    13    7    8 1
    14    7   20 1
    15    7   21 1
    16    8   12 1
    17    8    9 1
    18    9   10 2
    19    9   22 1
    20   10   11 1
    21   10   23 1
    22   11   12 2
    23   12   24 1
    24   13   14 2
    25   13   15 1
@<TRIPOS>MOLECULE
ZINC01027711
   25    26     0     0     0
SMALL
USER_CHARGES
1-[(4-nitrophenyl)methyl]imidazole
@<TRIPOS>ATOM
      1 C1          1.1709    2.0855    0.0021 C.ar      1 <0>        -0.0894
      2 C2          2.3773    1.4107   -0.0150 C.ar      1 <0>        -0.0519
      3 C3          2.3960    0.0285   -0.0212 C.ar      1 <0>        -0.0170
      4 C4          1.2084   -0.6789   -0.0132 C.ar      1 <0>        -0.0529
      5 C5          0.0021   -0.0041    0.0020 C.ar      1 <0>        -0.0944
      6 C6         -0.0167    1.3781    0.0096 C.ar      1 <0>        -0.1006
      7 C7         -1.3319    2.1138    0.0199 C.3       1 <0>         0.1379
      8 N1         -1.7515    2.3447    1.4044 N.pl3     1 <0>        -0.4113
      9 C8         -1.4462    3.4343    2.1746 C.2       1 <0>         0.0241
     10 C9         -2.0300    3.2404    3.3726 C.2       1 <0>         0.0080
     11 C10        -2.5165    1.5251    2.1571 C.cat     1 <0>         0.2896
     12 N2          3.6878   -0.6940   -0.0370 N.pl3     1 <0>         0.0140
     13 O1          3.7043   -1.9119   -0.0429 O.2       1 <0>        -0.1393
     14 O2          4.7342   -0.0707   -0.0441 O.3       1 <0>        -0.1384
     15 H1          1.1563    3.1654    0.0077 H         1 <0>         0.1537
     16 H2          3.3051    1.9634   -0.0213 H         1 <0>         0.1650
     17 H3          1.2231   -1.7588   -0.0184 H         1 <0>         0.1647
     18 H4         -0.9258   -0.5567    0.0083 H         1 <0>         0.1528
     19 H5         -1.2169    3.0707   -0.4893 H         1 <0>         0.1400
     20 H6         -2.0859    1.5173   -0.4937 H         1 <0>         0.1377
     21 H7         -0.8520    4.2860    1.8783 H         1 <0>         0.2227
     22 H8         -1.9870    3.9137    4.2160 H         1 <0>         0.2244
     23 H9         -2.9276    0.5787    1.8380 H         1 <0>         0.2592
     24 N3         -2.6734    2.0651    3.3339 N.pl3     1 <0>        -0.4816
     25 H10        -3.2063    1.6541    4.1093 H         1 <0>         0.4830
@<TRIPOS>BOND
     1    1    6 ar
     2    1    2 ar
     3    1   15 1
     4    2    3 ar
     5    2   16 1
     6    3    4 ar
     7    3   12 1
     8    4    5 ar
     9    4   17 1
    10    5    6 ar
    11    5   18 1
    12    6    7 1
    13    7    8 1
    14    7   19 1
    15    7   20 1
    16    8   11 1
    17    8    9 1
    18    9   10 2
    19    9   21 1
    20   10   22 1
    21   10   24 1
    22   11   23 1
    23   11   24 2
    24   12   13 2
    25   12   14 1
    26   24   25 1
@<TRIPOS>MOLECULE
ZINC00000941
   41    42     0     0     0
SMALL
USER_CHARGES

@<TRIPOS>ATOM
      1 C1         -0.0187    1.5258    0.0104 C.3       1 <0>        -0.1476
      2 C2          0.0021   -0.0041    0.0020 C.3       1 <0>         0.0809
      3 C3          0.7421   -0.5109    1.2415 C.3       1 <0>        -0.1411
      4 C4         -1.3789   -0.5136    0.0125 C.1       1 <0>         0.2083
      5 N1         -2.4446   -0.9068    0.0205 N.1       1 <0>        -0.4190
      6 C5          0.7074   -0.4901   -1.2379 C.ar      1 <0>        -0.0802
      7 C6          1.2168    0.4202   -2.1450 C.ar      1 <0>        -0.0640
      8 C7          1.8638   -0.0256   -3.2823 C.ar      1 <0>        -0.1085
      9 C8          2.0019   -1.3817   -3.5123 C.ar      1 <0>        -0.0810
     10 C9          1.4933   -2.2919   -2.6047 C.ar      1 <0>        -0.0814
     11 C10         0.8501   -1.8461   -1.4653 C.ar      1 <0>        -0.0810
     12 C11         1.6434   -3.7703   -2.8558 C.3       1 <0>         0.0809
     13 C12         2.3899   -3.9908   -4.1730 C.3       1 <0>        -0.1470
     14 C13         2.4335   -4.4046   -1.7094 C.3       1 <0>        -0.1414
     15 C14         0.3115   -4.3919   -2.9366 C.1       1 <0>         0.2078
     16 N2         -0.7163   -4.8716   -2.9989 N.1       1 <0>        -0.4177
     17 C15         2.4183    0.9668   -4.2717 C.3       1 <0>         0.1716
     18 N3          3.7997    1.2957   -3.9115 N.pl3     1 <0>        -0.3775
     19 C16         4.8829    1.2004   -4.7018 C.2       1 <0>         0.2539
     20 N4          5.9246    1.5872   -4.0113 N.2       1 <0>        -0.5453
     21 C17         5.5478    1.9352   -2.7815 C.2       1 <0>         0.1983
     22 N5          4.2546    1.7790   -2.6737 N.2       1 <0>        -0.3105
     23 H1          1.0039    1.9031    0.0027 H         1 <0>         0.0861
     24 H2         -0.5459    1.8868   -0.8726 H         1 <0>         0.0686
     25 H3         -0.5289    1.8773    0.9072 H         1 <0>         0.0725
     26 H4          0.2319   -0.1594    2.1383 H         1 <0>         0.0721
     27 H5          0.7568   -1.6008    1.2356 H         1 <0>         0.0659
     28 H6          1.7647   -0.1336    1.2338 H         1 <0>         0.0836
     29 H7          1.1090    1.4797   -1.9653 H         1 <0>         0.1384
     30 H8          2.5068   -1.7300   -4.4012 H         1 <0>         0.1354
     31 H9          0.4560   -2.5573   -0.7544 H         1 <0>         0.1241
     32 H10         3.3761   -3.5305   -4.1131 H         1 <0>         0.0827
     33 H11         2.4984   -5.0600   -4.3545 H         1 <0>         0.0733
     34 H12         1.8269   -3.5389   -4.9897 H         1 <0>         0.0696
     35 H13         1.9017   -4.2476   -0.7710 H         1 <0>         0.0669
     36 H14         2.5421   -5.4739   -1.8909 H         1 <0>         0.0724
     37 H15         3.4198   -3.9443   -1.6496 H         1 <0>         0.0822
     38 H16         2.3969    0.5335   -5.2716 H         1 <0>         0.1132
     39 H17         1.8129    1.8730   -4.2553 H         1 <0>         0.1007
     40 H18         4.8918    0.8629   -5.7277 H         1 <0>         0.2179
     41 H19         6.2040    2.2926   -2.0017 H         1 <0>         0.2158
@<TRIPOS>BOND
     1    1    2 1
     2    1   23 1
     3    1   24 1
     4    1   25 1
     5    2    3 1
     6    2    4 1
     7    2    6 1
     8    3   26 1
     9    3   27 1
    10    3   28 1
    11    4    5 3
    12    6   11 ar
    13    6    7 ar
    14    7    8 ar
    15    7   29 1
    16    8    9 ar
    17    8   17 1
    18    9   10 ar
    19    9   30 1
    20   10   11 ar
    21   10   12 1
    22   11   31 1
    23   12   13 1
    24   12   14 1
    25   12   15 1
    26   13   32 1
    27   13   33 1
    28   13   34 1
    29   14   35 1
    30   14   36 1
    31   14   37 1
    32   15   16 3
    33   17   18 1
    34   17   38 1
    35   17   39 1
    36   18   22 1
    37   18   19 1
    38   19   20 2
    39   19   40 1
    40   20   21 1
    41   21   22 2
    42   21   41 1
@<TRIPOS>MOLECULE
ZINC00169811
   22    23     0     0     0
SMALL
USER_CHARGES

@<TRIPOS>ATOM
      1 C1         -0.0167    1.3781    0.0096 C.ar      1 <0>        -0.1087
      2 C2          1.1709    2.0855    0.0021 C.ar      1 <0>        -0.1202
      3 C3          2.3773    1.4107   -0.0130 C.ar      1 <0>        -0.0987
      4 C4          2.3960    0.0285   -0.0201 C.ar      1 <0>        -0.1196
      5 C5          1.2084   -0.6789   -0.0117 C.ar      1 <0>        -0.0994
      6 C6          0.0021   -0.0041    0.0020 C.ar      1 <0>        -0.1197
      7 C7          3.7112   -0.7071   -0.0376 C.3       1 <0>         0.1466
      8 N1          4.1518   -0.9524    1.3379 N.pl3     1 <0>        -0.4554
      9 C8          4.9294   -0.1243    2.1015 C.2       1 <0>        -0.0551
     10 C9          5.0919   -0.7312    3.2927 C.2       1 <0>        -0.0296
     11 N2          4.4316   -1.8981    3.2573 N.2       1 <0>        -0.4951
     12 C10         3.8618   -2.0350    2.0912 C.2       1 <0>         0.1828
     13 H1         -0.9591    1.9053    0.0259 H         1 <0>         0.1255
     14 H2          1.1563    3.1654    0.0076 H         1 <0>         0.1260
     15 H3          3.3051    1.9634   -0.0196 H         1 <0>         0.1225
     16 H4          1.2231   -1.7588   -0.0176 H         1 <0>         0.1239
     17 H5         -0.9258   -0.5567    0.0082 H         1 <0>         0.1265
     18 H6          3.5884   -1.6586   -0.5549 H         1 <0>         0.1035
     19 H7          4.4573   -0.1052   -0.5563 H         1 <0>         0.1011
     20 H8          5.3350    0.8319    1.8056 H         1 <0>         0.1721
     21 H9          5.6553   -0.3459    4.1297 H         1 <0>         0.1691
     22 H10         3.2602   -2.8760    1.7794 H         1 <0>         0.2020
@<TRIPOS>BOND
     1    1    6 ar
     2    1    2 ar
     3    1   13 1
     4    2    3 ar
     5    2   14 1
     6    3    4 ar
     7    3   15 1
     8    4    5 ar
     9    4    7 1
    10    5    6 ar
    11    5   16 1
    12    6   17 1
    13    7    8 1
    14    7   18 1
    15    7   19 1
    16    8   12 1
    17    8    9 1
    18    9   10 2
    19    9   20 1
    20   10   11 1
    21   10   21 1
    22   11   12 2
    23   12   22 1
@<TRIPOS>MOLECULE
ZINC00169811
   23    24     0     0     0
SMALL
USER_CHARGES

@<TRIPOS>ATOM
      1 C1         -0.0167    1.3781    0.0096 C.ar      1 <0>        -0.0899
      2 C2          1.1709    2.0855    0.0021 C.ar      1 <0>        -0.1158
      3 C3          2.3773    1.4107   -0.0130 C.ar      1 <0>        -0.0920
      4 C4          2.3960    0.0285   -0.0201 C.ar      1 <0>        -0.1504
      5 C5          1.2084   -0.6789   -0.0117 C.ar      1 <0>        -0.0970
      6 C6          0.0021   -0.0041    0.0020 C.ar      1 <0>        -0.1165
      7 C7          3.7112   -0.7071   -0.0376 C.3       1 <0>         0.1408
      8 N1          4.1518   -0.9524    1.3379 N.pl3     1 <0>        -0.4034
      9 C8          4.9291   -0.1241    2.1017 C.2       1 <0>         0.0268
     10 C9          5.0917   -0.7311    3.2928 C.2       1 <0>         0.0027
     11 N2          4.4318   -1.8983    3.2572 N.pl3     1 <0>        -0.4766
     12 C10         3.8622   -2.0352    2.0911 C.cat     1 <0>         0.2878
     13 H1         -0.9591    1.9053    0.0259 H         1 <0>         0.1337
     14 H2          1.1563    3.1654    0.0076 H         1 <0>         0.1339
     15 H3          3.3051    1.9634   -0.0196 H         1 <0>         0.1279
     16 H4          1.2231   -1.7588   -0.0176 H         1 <0>         0.1270
     17 H5         -0.9258   -0.5567    0.0082 H         1 <0>         0.1336
     18 H6          3.5884   -1.6586   -0.5549 H         1 <0>         0.1289
     19 H7          4.4573   -0.1052   -0.5563 H         1 <0>         0.1315
     20 H8          5.3343    0.8323    1.8059 H         1 <0>         0.2212
     21 H9          5.6548   -0.3457    4.1299 H         1 <0>         0.2234
     22 H10         3.2610   -2.8764    1.7791 H         1 <0>         0.2578
     23 H11         4.3826   -2.5379    3.9847 H         1 <0>         0.4647
@<TRIPOS>BOND
     1    1    6 ar
     2    1    2 ar
     3    1   13 1
     4    2    3 ar
     5    2   14 1
     6    3    4 ar
     7    3   15 1
     8    4    5 ar
     9    4    7 1
    10    5    6 ar
    11    5   16 1
    12    6   17 1
    13    7    8 1
    14    7   18 1
    15    7   19 1
    16    8   12 1
    17    8    9 1
    18    9   10 2
    19    9   20 1
    20   10   11 1
    21   10   21 1
    22   11   12 2
    23   11   23 1
    24   12   22 1
@<TRIPOS>MOLECULE
ZINC03778874
   33    35     0     0     0
SMALL
USER_CHARGES

@<TRIPOS>ATOM
      1 C1         -0.0735    1.7256   -0.0870 C.ar      1 <0>        -0.0671
      2 C2          1.1714    2.3190   -0.0530 C.ar      1 <0>        -0.0940
      3 C3          2.3138    1.5384   -0.0590 C.ar      1 <0>        -0.0836
      4 C4          2.2165    0.1588   -0.0986 C.ar      1 <0>        -0.0986
      5 C5          0.9780   -0.4478   -0.1324 C.ar      1 <0>        -0.0668
      6 C6         -0.1790    0.3339   -0.1271 C.ar      1 <0>        -0.0119
      7 C7         -1.4680   -0.2890   -0.1621 C.1       1 <0>         0.2452
      8 N1         -2.4905   -0.7831   -0.1898 N.1       1 <0>        -0.4020
      9 C8          3.6703    2.1939   -0.0227 C.3       1 <0>         0.2438
     10 C9          4.3645    1.8408    1.2675 C.ar      1 <0>        -0.0858
     11 C10         5.7439    1.9113    1.3489 C.ar      1 <0>        -0.1031
     12 C11         6.3858    1.5899    2.5269 C.ar      1 <0>        -0.0643
     13 C12         5.6401    1.1927    3.6386 C.ar      1 <0>        -0.0106
     14 C13         4.2484    1.1238    3.5494 C.ar      1 <0>        -0.0652
     15 C14         3.6191    1.4531    2.3668 C.ar      1 <0>        -0.0924
     16 C15         6.2998    0.8572    4.8645 C.1       1 <0>         0.2446
     17 N2          6.8231    0.5910    5.8370 N.1       1 <0>        -0.4009
     18 N3          4.4718    1.7206   -1.1539 N.pl3     1 <0>        -0.3768
     19 C16         5.1989    0.5913   -1.2096 C.2       1 <0>         0.2591
     20 N4          5.7642    0.5302   -2.3879 N.2       1 <0>        -0.5387
     21 C17         5.4232    1.5976   -3.1088 C.2       1 <0>         0.2034
     22 N5          4.6283    2.3535   -2.3979 N.2       1 <0>        -0.3103
     23 H1         -0.9644    2.3360   -0.0782 H         1 <0>         0.1403
     24 H2          1.2545    3.3954   -0.0220 H         1 <0>         0.1416
     25 H3          3.1123   -0.4445   -0.1034 H         1 <0>         0.1318
     26 H4          0.9035   -1.5248   -0.1637 H         1 <0>         0.1390
     27 H5          3.5530    3.2756   -0.0879 H         1 <0>         0.1332
     28 H6          6.3194    2.2183    0.4881 H         1 <0>         0.1339
     29 H7          7.4626    1.6450    2.5890 H         1 <0>         0.1398
     30 H8          3.6656    0.8174    4.4055 H         1 <0>         0.1408
     31 H9          2.5424    1.4041    2.2976 H         1 <0>         0.1422
     32 H10         5.2993   -0.1380   -0.4194 H         1 <0>         0.2141
     33 H11         5.7475    1.8028   -4.1183 H         1 <0>         0.2192
@<TRIPOS>BOND
     1    1    6 ar
     2    1    2 ar
     3    1   23 1
     4    2    3 ar
     5    2   24 1
     6    3    4 ar
     7    3    9 1
     8    4    5 ar
     9    4   25 1
    10    5    6 ar
    11    5   26 1
    12    6    7 1
    13    7    8 3
    14    9   10 1
    15    9   18 1
    16    9   27 1
    17   10   15 ar
    18   10   11 ar
    19   11   12 ar
    20   11   28 1
    21   12   13 ar
    22   12   29 1
    23   13   14 ar
    24   13   16 1
    25   14   15 ar
    26   14   30 1
    27   15   31 1
    28   16   17 3
    29   18   22 1
    30   18   19 1
    31   19   20 2
    32   19   32 1
    33   20   21 1
    34   21   22 2
    35   21   33 1
@<TRIPOS>MOLECULE
ZINC00915585
   46    48     0     0     0
SMALL
USER_CHARGES

@<TRIPOS>ATOM
      1 C1         -0.0173    1.4248    0.0099 C.3       1 <0>         0.0223
      2 O1          0.0021   -0.0041    0.0020 O.3       1 <0>        -0.3103
      3 C2          0.6049   -0.6062   -1.0541 C.ar      1 <0>         0.1683
      4 C3          1.1722    0.1661   -2.0612 C.ar      1 <0>        -0.2218
      5 C4          1.7848   -0.4408   -3.1345 C.ar      1 <0>        -0.0038
      6 C5          1.8358   -1.8357   -3.2107 C.ar      1 <0>        -0.1682
      7 C6          1.2640   -2.6086   -2.1958 C.ar      1 <0>        -0.0214
      8 C7          0.6584   -1.9936   -1.1231 C.ar      1 <0>        -0.1666
      9 C8          2.4904   -2.4901   -4.3586 C.2       1 <0>         0.5083
     10 O2          2.9865   -1.8166   -5.2400 O.2       1 <0>        -0.4873
     11 O3          2.5385   -3.8348   -4.4302 O.3       1 <0>        -0.3358
     12 C9          3.1881   -4.4010   -5.5701 C.3       1 <0>         0.0811
     13 H1          3.0768   -3.7303   -6.4221 H         1 <0>         0.1115
     14 C10         4.6747   -4.5960   -5.2654 C.3       1 <0>         0.0883
     15 N1          5.3081   -3.2899   -5.0674 N.pl3     1 <0>        -0.4572
     16 C11         5.8820   -2.5105   -6.0352 C.2       1 <0>        -0.0444
     17 C12         6.3386   -1.4016   -5.4224 C.2       1 <0>        -0.0236
     18 N2          6.0513   -1.5013   -4.1160 N.2       1 <0>        -0.4859
     19 C13         5.4295   -2.6275   -3.8968 C.2       1 <0>         0.1809
     20 C14         2.5533   -5.7535   -5.8994 C.3       1 <0>         0.0659
     21 O4          2.8004   -6.6687   -4.8301 O.3       1 <0>        -0.3067
     22 C15         2.3002   -7.9250   -4.9652 C.ar      1 <0>         0.1273
     23 C16         1.5910   -8.2716   -6.1061 C.ar      1 <0>        -0.2101
     24 C17         1.0839   -9.5495   -6.2413 C.ar      1 <0>        -0.0797
     25 C18         1.2823  -10.4826   -5.2405 C.ar      1 <0>        -0.1561
     26 C19         1.9883  -10.1396   -4.1022 C.ar      1 <0>        -0.0797
     27 C20         2.5027   -8.8648   -3.9650 C.ar      1 <0>        -0.1492
     28 H2          1.0053    1.8021    0.0021 H         1 <0>         0.0611
     29 H3         -0.5445    1.7859   -0.8732 H         1 <0>         0.0601
     30 H4         -0.5275    1.7763    0.9067 H         1 <0>         0.1054
     31 H5          1.1320    1.2437   -2.0017 H         1 <0>         0.1393
     32 H6          2.2249    0.1600   -3.9166 H         1 <0>         0.1400
     33 H7          1.3013   -3.6865   -2.2508 H         1 <0>         0.1450
     34 H8          0.2206   -2.5899   -0.3363 H         1 <0>         0.1412
     35 H9          4.7848   -5.1941   -4.3608 H         1 <0>         0.1133
     36 H10         5.1526   -5.1087   -6.1003 H         1 <0>         0.1090
     37 H11         5.9550   -2.7406   -7.0878 H         1 <0>         0.1699
     38 H12         6.8470   -0.5766   -5.8992 H         1 <0>         0.1660
     39 H13         5.0735   -2.9736   -2.9378 H         1 <0>         0.1942
     40 H14         1.4783   -5.6283   -6.0294 H         1 <0>         0.0818
     41 H15         2.9874   -6.1443   -6.8197 H         1 <0>         0.0891
     42 H16         1.4352   -7.5428   -6.8878 H         1 <0>         0.1263
     43 H17         0.5318   -9.8197   -7.1292 H         1 <0>         0.1254
     44 H18         0.8847  -11.4810   -5.3478 H         1 <0>         0.1248
     45 H19         2.1416  -10.8702   -3.3217 H         1 <0>         0.1305
     46 H20         3.0579   -8.5987   -3.0777 H         1 <0>         0.1314
@<TRIPOS>BOND
     1    1    2 1
     2    1   28 1
     3    1   29 1
     4    1   30 1
     5    2    3 1
     6    3    8 ar
     7    3    4 ar
     8    4    5 ar
     9    4   31 1
    10    5    6 ar
    11    5   32 1
    12    6    7 ar
    13    6    9 1
    14    7    8 ar
    15    7   33 1
    16    8   34 1
    17    9   10 2
    18    9   11 1
    19   11   12 1
    20   12   13 1
    21   12   14 1
    22   12   20 1
    23   14   15 1
    24   14   35 1
    25   14   36 1
    26   15   19 1
    27   15   16 1
    28   16   17 2
    29   16   37 1
    30   17   18 1
    31   17   38 1
    32   18   19 2
    33   19   39 1
    34   20   21 1
    35   20   40 1
    36   20   41 1
    37   21   22 1
    38   22   27 ar
    39   22   23 ar
    40   23   24 ar
    41   23   42 1
    42   24   25 ar
    43   24   43 1
    44   25   26 ar
    45   25   44 1
    46   26   27 ar
    47   26   45 1
    48   27   46 1
@<TRIPOS>MOLECULE
ZINC00915585
   47    49     0     0     0
SMALL
USER_CHARGES

@<TRIPOS>ATOM
      1 C1         -0.0173    1.4248    0.0099 C.3       1 <0>         0.0200
      2 O1          0.0021   -0.0041    0.0020 O.3       1 <0>        -0.3042
      3 C2          0.6049   -0.6062   -1.0541 C.ar      1 <0>         0.1838
      4 C3          1.1722    0.1661   -2.0612 C.ar      1 <0>        -0.2241
      5 C4          1.7848   -0.4408   -3.1345 C.ar      1 <0>        -0.0073
      6 C5          1.8358   -1.8357   -3.2107 C.ar      1 <0>        -0.1937
      7 C6          1.2640   -2.6086   -2.1958 C.ar      1 <0>        -0.0156
      8 C7          0.6584   -1.9936   -1.1231 C.ar      1 <0>        -0.1648
      9 C8          2.4904   -2.4901   -4.3586 C.2       1 <0>         0.5093
     10 O2          2.9865   -1.8166   -5.2400 O.2       1 <0>        -0.5110
     11 O3          2.5385   -3.8348   -4.4302 O.3       1 <0>        -0.3294
     12 C9          3.1881   -4.4010   -5.5701 C.3       1 <0>         0.0796
     13 H1          3.0768   -3.7303   -6.4221 H         1 <0>         0.1217
     14 C10         4.6747   -4.5960   -5.2654 C.3       1 <0>         0.0749
     15 N1          5.3081   -3.2899   -5.0674 N.pl3     1 <0>        -0.4050
     16 C11         5.8816   -2.5102   -6.0352 C.2       1 <0>         0.0378
     17 C12         6.3384   -1.4015   -5.4224 C.2       1 <0>         0.0100
     18 N2          6.0516   -1.5014   -4.1160 N.pl3     1 <0>        -0.4687
     19 C13         5.4300   -2.6277   -3.8968 C.cat     1 <0>         0.2809
     20 C14         2.5533   -5.7535   -5.8994 C.3       1 <0>         0.0625
     21 O4          2.8004   -6.6687   -4.8301 O.3       1 <0>        -0.3137
     22 C15         2.3002   -7.9250   -4.9652 C.ar      1 <0>         0.1188
     23 C16         1.5910   -8.2716   -6.1061 C.ar      1 <0>        -0.2073
     24 C17         1.0839   -9.5495   -6.2413 C.ar      1 <0>        -0.0783
     25 C18         1.2823  -10.4826   -5.2405 C.ar      1 <0>        -0.1477
     26 C19         1.9883  -10.1396   -4.1022 C.ar      1 <0>        -0.0784
     27 C20         2.5027   -8.8648   -3.9650 C.ar      1 <0>        -0.1462
     28 H2          1.0053    1.8021    0.0021 H         1 <0>         0.0624
     29 H3         -0.5445    1.7859   -0.8732 H         1 <0>         0.0638
     30 H4         -0.5275    1.7763    0.9067 H         1 <0>         0.1115
     31 H5          1.1320    1.2437   -2.0017 H         1 <0>         0.1435
     32 H6          2.2249    0.1600   -3.9166 H         1 <0>         0.1388
     33 H7          1.3013   -3.6865   -2.2508 H         1 <0>         0.1482
     34 H8          0.2206   -2.5899   -0.3363 H         1 <0>         0.1470
     35 H9          4.7848   -5.1941   -4.3608 H         1 <0>         0.1411
     36 H10         5.1526   -5.1087   -6.1003 H         1 <0>         0.1432
     37 H11         5.9542   -2.7402   -7.0880 H         1 <0>         0.2219
     38 H12         6.8465   -0.5764   -5.8993 H         1 <0>         0.2232
     39 H13         5.0743   -2.9740   -2.9376 H         1 <0>         0.2527
     40 H14         1.4783   -5.6283   -6.0294 H         1 <0>         0.0908
     41 H15         2.9874   -6.1443   -6.8197 H         1 <0>         0.0963
     42 H16         1.4352   -7.5428   -6.8878 H         1 <0>         0.1261
     43 H17         0.5318   -9.8197   -7.1292 H         1 <0>         0.1287
     44 H18         0.8847  -11.4810   -5.3478 H         1 <0>         0.1286
     45 H19         2.1416  -10.8702   -3.3217 H         1 <0>         0.1336
     46 H20         3.0579   -8.5987   -3.0777 H         1 <0>         0.1310
     47 H21         6.2686   -0.8392   -3.4412 H         1 <0>         0.4636
@<TRIPOS>BOND
     1    1    2 1
     2    1   28 1
     3    1   29 1
     4    1   30 1
     5    2    3 1
     6    3    8 ar
     7    3    4 ar
     8    4    5 ar
     9    4   31 1
    10    5    6 ar
    11    5   32 1
    12    6    7 ar
    13    6    9 1
    14    7    8 ar
    15    7   33 1
    16    8   34 1
    17    9   10 2
    18    9   11 1
    19   11   12 1
    20   12   13 1
    21   12   14 1
    22   12   20 1
    23   14   15 1
    24   14   35 1
    25   14   36 1
    26   15   19 1
    27   15   16 1
    28   16   17 2
    29   16   37 1
    30   17   18 1
    31   17   38 1
    32   18   19 2
    33   18   47 1
    34   19   39 1
    35   20   21 1
    36   20   40 1
    37   20   41 1
    38   21   22 1
    39   22   27 ar
    40   22   23 ar
    41   23   24 ar
    42   23   42 1
    43   24   25 ar
    44   24   43 1
    45   25   26 ar
    46   25   44 1
    47   26   27 ar
    48   26   45 1
    49   27   46 1
@<TRIPOS>MOLECULE
ZINC00915588
   46    48     0     0     0
SMALL
USER_CHARGES

@<TRIPOS>ATOM
      1 C1         -0.0173    1.4248    0.0099 C.3       1 <0>         0.0224
      2 O1          0.0021   -0.0041    0.0020 O.3       1 <0>        -0.3103
      3 C2          0.6049   -0.6062   -1.0541 C.ar      1 <0>         0.1677
      4 C3          1.1722    0.1661   -2.0612 C.ar      1 <0>        -0.2221
      5 C4          1.7848   -0.4408   -3.1345 C.ar      1 <0>        -0.0063
      6 C5          1.8358   -1.8357   -3.2107 C.ar      1 <0>        -0.1671
      7 C6          1.2640   -2.6086   -2.1958 C.ar      1 <0>        -0.0215
      8 C7          0.6584   -1.9936   -1.1231 C.ar      1 <0>        -0.1664
      9 C8          2.4904   -2.4901   -4.3586 C.2       1 <0>         0.5096
     10 O2          2.9865   -1.8166   -5.2400 O.2       1 <0>        -0.4873
     11 O3          2.5385   -3.8348   -4.4302 O.3       1 <0>        -0.3355
     12 C9          3.1881   -4.4010   -5.5701 C.3       1 <0>         0.0810
     13 H1          3.9708   -3.7253   -5.9152 H         1 <0>         0.1118
     14 C10         2.1652   -4.6101   -6.6885 C.3       1 <0>         0.0884
     15 N1          1.6591   -3.3103   -7.1367 N.pl3     1 <0>        -0.4574
     16 C11         0.5751   -2.6433   -6.6331 C.2       1 <0>        -0.0575
     17 C12         0.4663   -1.4954   -7.3287 C.2       1 <0>        -0.0191
     18 N2          1.4569   -1.4623   -8.2324 N.2       1 <0>        -0.4894
     19 C13         2.1784   -2.5439   -8.1198 C.2       1 <0>         0.1943
     20 C14         3.8081   -5.7465   -5.1879 C.3       1 <0>         0.0655
     21 O4          2.7713   -6.6689   -4.8467 O.3       1 <0>        -0.3069
     22 C15         3.1546   -7.9203   -4.4807 C.ar      1 <0>         0.1272
     23 C16         4.5013   -8.2519   -4.4450 C.ar      1 <0>        -0.2099
     24 C17         4.8884   -9.5245   -4.0722 C.ar      1 <0>        -0.0797
     25 C18         3.9350  -10.4675   -3.7352 C.ar      1 <0>        -0.1561
     26 C19         2.5923  -10.1396   -3.7703 C.ar      1 <0>        -0.0798
     27 C20         2.2003   -8.8665   -4.1365 C.ar      1 <0>        -0.1494
     28 H2          1.0053    1.8021    0.0021 H         1 <0>         0.0603
     29 H3         -0.5445    1.7859   -0.8732 H         1 <0>         0.0609
     30 H4         -0.5275    1.7763    0.9067 H         1 <0>         0.1055
     31 H5          1.1320    1.2437   -2.0017 H         1 <0>         0.1394
     32 H6          2.2249    0.1600   -3.9166 H         1 <0>         0.1406
     33 H7          1.3013   -3.6865   -2.2508 H         1 <0>         0.1446
     34 H8          0.2206   -2.5899   -0.3363 H         1 <0>         0.1411
     35 H9          2.6408   -5.1227   -7.5247 H         1 <0>         0.1109
     36 H10         1.3375   -5.2134   -6.3157 H         1 <0>         0.1114
     37 H11        -0.0694   -2.9743   -5.8321 H         1 <0>         0.1657
     38 H12        -0.2866   -0.7347   -7.1843 H         1 <0>         0.1643
     39 H13         3.0456   -2.7869   -8.7158 H         1 <0>         0.1993
     40 H14         4.3783   -6.1365   -6.0310 H         1 <0>         0.0898
     41 H15         4.4703   -5.6116   -4.3327 H         1 <0>         0.0816
     42 H16         5.2463   -7.5159   -4.7089 H         1 <0>         0.1265
     43 H17         5.9366   -9.7831   -4.0443 H         1 <0>         0.1256
     44 H18         4.2397  -11.4620   -3.4443 H         1 <0>         0.1248
     45 H19         1.8495  -10.8780   -3.5070 H         1 <0>         0.1304
     46 H20         1.1515   -8.6096   -4.1596 H         1 <0>         0.1311
@<TRIPOS>BOND
     1    1    2 1
     2    1   28 1
     3    1   29 1
     4    1   30 1
     5    2    3 1
     6    3    8 ar
     7    3    4 ar
     8    4    5 ar
     9    4   31 1
    10    5    6 ar
    11    5   32 1
    12    6    7 ar
    13    6    9 1
    14    7    8 ar
    15    7   33 1
    16    8   34 1
    17    9   10 2
    18    9   11 1
    19   11   12 1
    20   12   13 1
    21   12   14 1
    22   12   20 1
    23   14   15 1
    24   14   35 1
    25   14   36 1
    26   15   19 1
    27   15   16 1
    28   16   17 2
    29   16   37 1
    30   17   18 1
    31   17   38 1
    32   18   19 2
    33   19   39 1
    34   20   21 1
    35   20   40 1
    36   20   41 1
    37   21   22 1
    38   22   27 ar
    39   22   23 ar
    40   23   24 ar
    41   23   42 1
    42   24   25 ar
    43   24   43 1
    44   25   26 ar
    45   25   44 1
    46   26   27 ar
    47   26   45 1
    48   27   46 1
@<TRIPOS>MOLECULE
ZINC00915588
   47    49     0     0     0
SMALL
USER_CHARGES

@<TRIPOS>ATOM
      1 C1         -0.0173    1.4248    0.0099 C.3       1 <0>         0.0203
      2 O1          0.0021   -0.0041    0.0020 O.3       1 <0>        -0.3048
      3 C2          0.6049   -0.6062   -1.0541 C.ar      1 <0>         0.1827
      4 C3          1.1722    0.1661   -2.0612 C.ar      1 <0>        -0.2242
      5 C4          1.7848   -0.4408   -3.1345 C.ar      1 <0>        -0.0048
      6 C5          1.8358   -1.8357   -3.2107 C.ar      1 <0>        -0.1895
      7 C6          1.2640   -2.6086   -2.1958 C.ar      1 <0>        -0.0157
      8 C7          0.6584   -1.9936   -1.1231 C.ar      1 <0>        -0.1650
      9 C8          2.4904   -2.4901   -4.3586 C.2       1 <0>         0.5188
     10 O2          2.9865   -1.8166   -5.2400 O.2       1 <0>        -0.5189
     11 O3          2.5385   -3.8348   -4.4302 O.3       1 <0>        -0.3279
     12 C9          3.1881   -4.4010   -5.5701 C.3       1 <0>         0.0800
     13 H1          3.9708   -3.7253   -5.9152 H         1 <0>         0.1190
     14 C10         2.1652   -4.6101   -6.6885 C.3       1 <0>         0.0746
     15 N1          1.6591   -3.3103   -7.1367 N.pl3     1 <0>        -0.4079
     16 C11         0.5753   -2.6431   -6.6328 C.2       1 <0>         0.0213
     17 C12         0.4665   -1.4952   -7.3285 C.2       1 <0>         0.0122
     18 N2          1.4567   -1.4624   -8.2326 N.pl3     1 <0>        -0.4714
     19 C13         2.1782   -2.5441   -8.1201 C.cat     1 <0>         0.3015
     20 C14         3.8081   -5.7465   -5.1879 C.3       1 <0>         0.0621
     21 O4          2.7713   -6.6689   -4.8467 O.3       1 <0>        -0.3129
     22 C15         3.1546   -7.9203   -4.4807 C.ar      1 <0>         0.1188
     23 C16         4.5013   -8.2519   -4.4450 C.ar      1 <0>        -0.2075
     24 C17         4.8884   -9.5245   -4.0722 C.ar      1 <0>        -0.0786
     25 C18         3.9350  -10.4675   -3.7352 C.ar      1 <0>        -0.1478
     26 C19         2.5923  -10.1396   -3.7703 C.ar      1 <0>        -0.0782
     27 C20         2.2003   -8.8665   -4.1365 C.ar      1 <0>        -0.1460
     28 H2          1.0053    1.8021    0.0021 H         1 <0>         0.0632
     29 H3         -0.5445    1.7859   -0.8732 H         1 <0>         0.0624
     30 H4         -0.5275    1.7763    0.9067 H         1 <0>         0.1108
     31 H5          1.1320    1.2437   -2.0017 H         1 <0>         0.1429
     32 H6          2.2249    0.1600   -3.9166 H         1 <0>         0.1383
     33 H7          1.3013   -3.6865   -2.2508 H         1 <0>         0.1470
     34 H8          0.2206   -2.5899   -0.3363 H         1 <0>         0.1462
     35 H9          2.6408   -5.1227   -7.5247 H         1 <0>         0.1398
     36 H10         1.3375   -5.2134   -6.3157 H         1 <0>         0.1437
     37 H11        -0.0689   -2.9739   -5.8315 H         1 <0>         0.2171
     38 H12        -0.2863   -0.7344   -7.1839 H         1 <0>         0.2217
     39 H13         3.0451   -2.7873   -8.7164 H         1 <0>         0.2581
     40 H14         4.3783   -6.1365   -6.0310 H         1 <0>         0.0956
     41 H15         4.4703   -5.6116   -4.3327 H         1 <0>         0.0906
     42 H16         5.2463   -7.5159   -4.7089 H         1 <0>         0.1259
     43 H17         5.9366   -9.7831   -4.0443 H         1 <0>         0.1285
     44 H18         4.2397  -11.4620   -3.4443 H         1 <0>         0.1286
     45 H19         1.8495  -10.8780   -3.5070 H         1 <0>         0.1336
     46 H20         1.1515   -8.6096   -4.1596 H         1 <0>         0.1313
     47 H21         1.6141   -0.7460   -8.8673 H         1 <0>         0.4643
@<TRIPOS>BOND
     1    1    2 1
     2    1   28 1
     3    1   29 1
     4    1   30 1
     5    2    3 1
     6    3    8 ar
     7    3    4 ar
     8    4    5 ar
     9    4   31 1
    10    5    6 ar
    11    5   32 1
    12    6    7 ar
    13    6    9 1
    14    7    8 ar
    15    7   33 1
    16    8   34 1
    17    9   10 2
    18    9   11 1
    19   11   12 1
    20   12   13 1
    21   12   14 1
    22   12   20 1
    23   14   15 1
    24   14   35 1
    25   14   36 1
    26   15   19 1
    27   15   16 1
    28   16   17 2
    29   16   37 1
    30   17   18 1
    31   17   38 1
    32   18   19 2
    33   18   47 1
    34   19   39 1
    35   20   21 1
    36   20   40 1
    37   20   41 1
    38   21   22 1
    39   22   27 ar
    40   22   23 ar
    41   23   24 ar
    42   23   42 1
    43   24   25 ar
    44   24   43 1
    45   25   26 ar
    46   25   44 1
    47   26   27 ar
    48   26   45 1
    49   27   46 1
@<TRIPOS>MOLECULE
ZINC36088168
   29    30     0     0     0
SMALL
USER_CHARGES

@<TRIPOS>ATOM
      1 C1         -0.0187    1.5258    0.0104 C.3       1 <0>        -0.1512
      2 C2          0.0021   -0.0041    0.0020 C.3       1 <0>        -0.1224
      3 C3         -1.4333   -0.5336    0.0129 C.3       1 <0>        -0.1188
      4 C4         -1.4126   -2.0635    0.0045 C.3       1 <0>         0.0590
      5 O1         -2.7532   -2.5581    0.0146 O.3       1 <0>        -0.3202
      6 C5         -2.9129   -3.9069    0.0089 C.ar      1 <0>         0.1080
      7 C6         -1.7989   -4.7363   -0.0004 C.ar      1 <0>        -0.2075
      8 C7         -1.9572   -6.1055   -0.0058 C.ar      1 <0>        -0.0658
      9 C8         -3.2385   -6.6581   -0.0019 C.ar      1 <0>         0.0113
     10 C9         -4.3555   -5.8216    0.0075 C.ar      1 <0>        -0.0659
     11 C10        -4.1897   -4.4534    0.0181 C.ar      1 <0>        -0.1513
     12 C11        -3.4125   -8.1272   -0.0081 C.2       1 <0>         0.0808
     13 N1         -4.5680   -8.7945   -0.0054 N.2       1 <0>        -0.3710
     14 N2         -4.2884  -10.0530   -0.0129 N.2       1 <0>        -0.1925
     15 N3         -3.0104  -10.2043   -0.0202 N.2       1 <0>        -0.1928
     16 N4         -2.4447   -9.0458   -0.0233 N.2       1 <0>        -0.3721
     17 H1          1.0039    1.9031    0.0027 H         1 <0>         0.0552
     18 H2         -0.5459    1.8868   -0.8726 H         1 <0>         0.0550
     19 H3         -0.5289    1.8773    0.9072 H         1 <0>         0.0550
     20 H4          0.5123   -0.3556   -0.8948 H         1 <0>         0.0646
     21 H5          0.5293   -0.3651    0.8851 H         1 <0>         0.0646
     22 H6         -1.9435   -0.1821    0.9097 H         1 <0>         0.0720
     23 H7         -1.9605   -0.1726   -0.8702 H         1 <0>         0.0720
     24 H8         -0.9024   -2.4150   -0.8923 H         1 <0>         0.0595
     25 H9         -0.8854   -2.4246    0.8875 H         1 <0>         0.0595
     26 H10        -0.8075   -4.3080   -0.0038 H         1 <0>         0.1227
     27 H11        -1.0905   -6.7499   -0.0134 H         1 <0>         0.1305
     28 H12        -5.3487   -6.2459    0.0105 H         1 <0>         0.1354
     29 H13        -5.0536   -3.8054    0.0295 H         1 <0>         0.1264
@<TRIPOS>BOND
     1    1    2 1
     2    1   17 1
     3    1   18 1
     4    1   19 1
     5    2    3 1
     6    2   20 1
     7    2   21 1
     8    3    4 1
     9    3   22 1
    10    3   23 1
    11    4    5 1
    12    4   24 1
    13    4   25 1
    14    5    6 1
    15    6   11 ar
    16    6    7 ar
    17    7    8 ar
    18    7   26 1
    19    8    9 ar
    20    8   27 1
    21    9   10 ar
    22    9   12 1
    23   10   11 ar
    24   10   28 1
    25   11   29 1
    26   12   13 1
    27   12   16 2
    28   13   14 1
    29   14   15 2
    30   15   16 1
@<TRIPOS>MOLECULE
ZINC01794259
   38    39     0     0     0
SMALL
USER_CHARGES

@<TRIPOS>ATOM
      1 C1         -0.5378    1.4472    0.0889 C.3       1 <0>        -0.1367
      2 C2         -0.2469   -0.0307    0.0397 C.ar      1 <0>         0.0104
      3 C3         -0.3500   -0.7134   -1.1596 C.ar      1 <0>        -0.1223
      4 C4         -0.0855   -2.0662   -1.2114 C.ar      1 <0>        -0.0394
      5 C5          0.2871   -2.7464   -0.0507 C.ar      1 <0>        -0.1451
      6 C6          0.3896   -2.0518    1.1553 C.ar      1 <0>         0.0051
      7 C7          0.1274   -0.6976    1.1924 C.ar      1 <0>        -0.0502
      8 N1          0.2414    0.0419    2.4694 N.pl3     1 <0>         0.0254
      9 O1          0.6755    1.1703    2.4779 O.2       1 <0>        -0.1355
     10 O2         -0.0996   -0.4823    3.5041 O.3       1 <0>        -0.1430
     11 C8          0.5715   -4.1964   -0.0989 C.2       1 <0>         0.5683
     12 O3          0.8958   -4.7861    0.9134 O.2       1 <0>        -0.5144
     13 N2          0.4712   -4.8645   -1.2651 N.am      1 <0>        -0.7303
     14 C9          0.7531   -6.3014   -1.3128 C.3       1 <0>         0.1215
     15 C10         0.5670   -6.8104   -2.7436 C.3       1 <0>        -0.1550
     16 C11         0.8614   -8.3110   -2.7934 C.3       1 <0>         0.0952
     17 N3          0.6832   -8.7983   -4.1634 N.pl3     1 <0>        -0.4092
     18 C12        -0.4762   -9.2779   -4.7105 C.2       1 <0>         0.0254
     19 C13        -0.1963   -9.6135   -5.9843 C.2       1 <0>         0.0051
     20 N4          1.0988   -9.3462   -6.2088 N.pl3     1 <0>        -0.4758
     21 C14         1.6307   -8.8530   -5.1240 C.cat     1 <0>         0.2891
     22 H1          0.3945    2.0042   -0.0040 H         1 <0>         0.1042
     23 H2         -1.2038    1.7139   -0.7317 H         1 <0>         0.0864
     24 H3         -1.0145    1.6922    1.0380 H         1 <0>         0.0806
     25 H4         -0.6384   -0.1860   -2.0568 H         1 <0>         0.1569
     26 H5         -0.1670   -2.5981   -2.1478 H         1 <0>         0.1423
     27 H6          0.6771   -2.5722    2.0569 H         1 <0>         0.1629
     28 H7          0.2125   -4.3940   -2.0729 H         1 <0>         0.4024
     29 H8          1.7798   -6.4810   -0.9938 H         1 <0>         0.0821
     30 H9          0.0686   -6.8281   -0.6478 H         1 <0>         0.0825
     31 H10        -0.4597   -6.6307   -3.0625 H         1 <0>         0.0900
     32 H11         1.2515   -6.2836   -3.4085 H         1 <0>         0.0878
     33 H12         1.8881   -8.4906   -2.4744 H         1 <0>         0.1278
     34 H13         0.1769   -8.8377   -2.1284 H         1 <0>         0.1306
     35 H14        -1.4318   -9.3698   -4.2157 H         1 <0>         0.2236
     36 H15        -0.8925  -10.0257   -6.6997 H         1 <0>         0.2245
     37 H16         2.6591   -8.5424   -5.0123 H         1 <0>         0.2604
     38 H17         1.5654   -9.4929   -7.0465 H         1 <0>         0.4662
@<TRIPOS>BOND
     1    1    2 1
     2    1   22 1
     3    1   23 1
     4    1   24 1
     5    2    7 ar
     6    2    3 ar
     7    3    4 ar
     8    3   25 1
     9    4    5 ar
    10    4   26 1
    11    5    6 ar
    12    5   11 1
    13    6    7 ar
    14    6   27 1
    15    7    8 1
    16    8    9 2
    17    8   10 1
    18   11   12 2
    19   11   13 am
    20   13   14 1
    21   13   28 1
    22   14   15 1
    23   14   29 1
    24   14   30 1
    25   15   16 1
    26   15   31 1
    27   15   32 1
    28   16   17 1
    29   16   33 1
    30   16   34 1
    31   17   21 1
    32   17   18 1
    33   18   19 2
    34   18   35 1
    35   19   20 1
    36   19   36 1
    37   20   21 2
    38   20   38 1
    39   21   37 1
@<TRIPOS>MOLECULE
ZINC01794259
   37    38     0     0     0
SMALL
USER_CHARGES

@<TRIPOS>ATOM
      1 C1         -0.5378    1.4472    0.0889 C.3       1 <0>        -0.1335
      2 C2         -0.2469   -0.0307    0.0397 C.ar      1 <0>         0.0048
      3 C3         -0.3500   -0.7134   -1.1596 C.ar      1 <0>        -0.1219
      4 C4         -0.0855   -2.0662   -1.2114 C.ar      1 <0>        -0.0380
      5 C5          0.2871   -2.7464   -0.0507 C.ar      1 <0>        -0.1386
      6 C6          0.3896   -2.0518    1.1553 C.ar      1 <0>         0.0031
      7 C7          0.1274   -0.6976    1.1924 C.ar      1 <0>        -0.0521
      8 N1          0.2414    0.0419    2.4694 N.pl3     1 <0>         0.0282
      9 O1          0.6755    1.1703    2.4779 O.2       1 <0>        -0.1403
     10 O2         -0.0996   -0.4823    3.5041 O.3       1 <0>        -0.1466
     11 C8          0.5715   -4.1964   -0.0989 C.2       1 <0>         0.5638
     12 O3          0.8958   -4.7861    0.9134 O.2       1 <0>        -0.5208
     13 N2          0.4712   -4.8645   -1.2651 N.am      1 <0>        -0.7244
     14 C9          0.7531   -6.3014   -1.3128 C.3       1 <0>         0.1216
     15 C10         0.5670   -6.8104   -2.7436 C.3       1 <0>        -0.1494
     16 C11         0.8614   -8.3110   -2.7934 C.3       1 <0>         0.1085
     17 N3          0.6832   -8.7983   -4.1634 N.pl3     1 <0>        -0.4615
     18 C12        -0.4761   -9.2783   -4.7104 C.2       1 <0>        -0.0575
     19 C13        -0.1962   -9.6138   -5.9843 C.2       1 <0>        -0.0278
     20 N4          1.0987   -9.3459   -6.2089 N.2       1 <0>        -0.4941
     21 C14         1.6306   -8.8525   -5.1242 C.2       1 <0>         0.1816
     22 H1          0.3945    2.0042   -0.0040 H         1 <0>         0.1019
     23 H2         -1.2038    1.7139   -0.7317 H         1 <0>         0.0850
     24 H3         -1.0145    1.6922    1.0380 H         1 <0>         0.0783
     25 H4         -0.6384   -0.1860   -2.0568 H         1 <0>         0.1564
     26 H5         -0.1670   -2.5981   -2.1478 H         1 <0>         0.1454
     27 H6          0.6771   -2.5722    2.0569 H         1 <0>         0.1622
     28 H7          0.2125   -4.3940   -2.0729 H         1 <0>         0.4020
     29 H8          1.7798   -6.4810   -0.9938 H         1 <0>         0.0781
     30 H9          0.0686   -6.8281   -0.6478 H         1 <0>         0.0778
     31 H10        -0.4597   -6.6307   -3.0625 H         1 <0>         0.0803
     32 H11         1.2515   -6.2836   -3.4085 H         1 <0>         0.0810
     33 H12         1.8881   -8.4906   -2.4744 H         1 <0>         0.1004
     34 H13         0.1769   -8.8377   -2.1284 H         1 <0>         0.0980
     35 H14        -1.4316   -9.3706   -4.2154 H         1 <0>         0.1741
     36 H15        -0.8924  -10.0262   -6.6996 H         1 <0>         0.1701
     37 H16         2.6588   -8.5415   -5.0125 H         1 <0>         0.2041
@<TRIPOS>BOND
     1    1    2 1
     2    1   22 1
     3    1   23 1
     4    1   24 1
     5    2    7 ar
     6    2    3 ar
     7    3    4 ar
     8    3   25 1
     9    4    5 ar
    10    4   26 1
    11    5    6 ar
    12    5   11 1
    13    6    7 ar
    14    6   27 1
    15    7    8 1
    16    8    9 2
    17    8   10 1
    18   11   12 2
    19   11   13 am
    20   13   14 1
    21   13   28 1
    22   14   15 1
    23   14   29 1
    24   14   30 1
    25   15   16 1
    26   15   31 1
    27   15   32 1
    28   16   17 1
    29   16   33 1
    30   16   34 1
    31   17   21 1
    32   17   18 1
    33   18   19 2
    34   18   35 1
    35   19   20 1
    36   19   36 1
    37   20   21 2
    38   21   37 1
@<TRIPOS>MOLECULE
ZINC04386695
   48    49     0     0     0
SMALL
USER_CHARGES

@<TRIPOS>ATOM
      1 C1         -0.6797   -1.2703    0.7491 C.3       1 <0>        -0.6726
      2 S1          0.8606   -1.6146   -0.1451 S.o2      1 <0>         2.5956
      3 O1          1.9779   -1.4168    0.7104 O.2       1 <0>        -0.9378
      4 O2          0.7304   -2.8102   -0.9019 O.2       1 <0>        -0.9383
      5 N1          0.9752   -0.4095   -1.2751 N.pl3     1 <0>        -0.9501
      6 C2          1.5583    0.8840   -0.9101 C.3       1 <0>         0.1460
      7 C3          3.0206    0.8964   -1.2738 C.2       1 <0>        -0.1781
      8 C4          3.4956    1.8423   -2.0457 C.2       1 <0>        -0.1712
      9 C5          0.5180   -0.6252   -2.5704 C.ar      1 <0>         0.1934
     10 C6         -0.8168   -0.9541   -2.7901 C.ar      1 <0>        -0.1434
     11 C7         -1.2723   -1.1682   -4.0709 C.ar      1 <0>        -0.0308
     12 C8         -0.3932   -1.0553   -5.1519 C.ar      1 <0>        -0.1508
     13 C9          0.9466   -0.7250   -4.9279 C.ar      1 <0>        -0.0674
     14 C10         1.3947   -0.5064   -3.6453 C.ar      1 <0>        -0.1262
     15 C11        -0.8781   -1.2847   -6.5261 C.2       1 <0>         0.5669
     16 O3         -2.0436   -1.5723   -6.7194 O.2       1 <0>        -0.5258
     17 N2         -0.0293   -1.1754   -7.5673 N.am      1 <0>        -0.7342
     18 C12        -0.5109   -1.4033   -8.9320 C.3       1 <0>         0.1224
     19 C13         0.6442   -1.2180   -9.9180 C.3       1 <0>        -0.1550
     20 C14         0.1412   -1.4560  -11.3433 C.3       1 <0>         0.0951
     21 N3          1.2473   -1.2786  -12.2874 N.pl3     1 <0>        -0.4086
     22 C15         1.6153   -0.1096  -12.8970 C.2       1 <0>         0.0255
     23 C16         2.6742   -0.3944  -13.6788 C.2       1 <0>         0.0043
     24 N4          2.9453   -1.7016  -13.5501 N.pl3     1 <0>        -0.4761
     25 C17         2.0978   -2.2367  -12.7144 C.cat     1 <0>         0.2891
     26 H1         -0.6746   -0.2373    1.0971 H         1 <0>         0.1323
     27 H2         -1.5287   -1.4252    0.0833 H         1 <0>         0.1307
     28 H3         -0.7612   -1.9414    1.6041 H         1 <0>         0.1365
     29 H4          1.0432    1.6796   -1.4484 H         1 <0>         0.0919
     30 H5          1.4494    1.0417    0.1630 H         1 <0>         0.0999
     31 H6          3.6771    0.1255   -0.8981 H         1 <0>         0.1206
     32 H7          4.5437    1.8512   -2.3063 H         1 <0>         0.1035
     33 H8          2.8392    2.6132   -2.4213 H         1 <0>         0.0992
     34 H9         -1.4955   -1.0415   -1.9545 H         1 <0>         0.1326
     35 H10        -2.3079   -1.4236   -4.2407 H         1 <0>         0.1454
     36 H11         1.6283   -0.6373   -5.7610 H         1 <0>         0.1275
     37 H12         2.4286   -0.2465   -3.4720 H         1 <0>         0.1392
     38 H13         0.9004   -0.9460   -7.4130 H         1 <0>         0.4020
     39 H14        -0.9005   -2.4179   -9.0151 H         1 <0>         0.0795
     40 H15        -1.3026   -0.6901   -9.1617 H         1 <0>         0.0795
     41 H16         1.0338   -0.2034   -9.8348 H         1 <0>         0.0892
     42 H17         1.4359   -1.9312   -9.6883 H         1 <0>         0.0874
     43 H18        -0.2484   -2.4706  -11.4264 H         1 <0>         0.1275
     44 H19        -0.6505   -0.7428  -11.5730 H         1 <0>         0.1300
     45 H20         1.1463    0.8556  -12.7748 H         1 <0>         0.2234
     46 H21         3.2109    0.3069  -14.3005 H         1 <0>         0.2241
     47 H22         2.0782   -3.2744  -12.4157 H         1 <0>         0.2604
     48 H23         3.6608   -2.1740  -14.0038 H         1 <0>         0.4659
@<TRIPOS>BOND
     1    1    2 1
     2    1   26 1
     3    1   27 1
     4    1   28 1
     5    2    3 2
     6    2    4 2
     7    2    5 1
     8    5    6 1
     9    5    9 1
    10    6    7 1
    11    6   29 1
    12    6   30 1
    13    7    8 2
    14    7   31 1
    15    8   32 1
    16    8   33 1
    17    9   14 ar
    18    9   10 ar
    19   10   11 ar
    20   10   34 1
    21   11   12 ar
    22   11   35 1
    23   12   13 ar
    24   12   15 1
    25   13   14 ar
    26   13   36 1
    27   14   37 1
    28   15   16 2
    29   15   17 am
    30   17   18 1
    31   17   38 1
    32   18   19 1
    33   18   39 1
    34   18   40 1
    35   19   20 1
    36   19   41 1
    37   19   42 1
    38   20   21 1
    39   20   43 1
    40   20   44 1
    41   21   25 1
    42   21   22 1
    43   22   23 2
    44   22   45 1
    45   23   24 1
    46   23   46 1
    47   24   25 2
    48   24   48 1
    49   25   47 1
@<TRIPOS>MOLECULE
ZINC04386695
   47    48     0     0     0
SMALL
USER_CHARGES

@<TRIPOS>ATOM
      1 C1         -0.6797   -1.2703    0.7491 C.3       1 <0>        -0.6736
      2 S1          0.8606   -1.6146   -0.1451 S.o2      1 <0>         2.5964
      3 O1          1.9779   -1.4168    0.7104 O.2       1 <0>        -0.9406
      4 O2          0.7304   -2.8102   -0.9019 O.2       1 <0>        -0.9371
      5 N1          0.9752   -0.4095   -1.2751 N.pl3     1 <0>        -0.9484
      6 C2          1.5583    0.8840   -0.9101 C.3       1 <0>         0.1470
      7 C3          3.0206    0.8964   -1.2738 C.2       1 <0>        -0.1794
      8 C4          3.4956    1.8423   -2.0457 C.2       1 <0>        -0.1699
      9 C5          0.5180   -0.6252   -2.5704 C.ar      1 <0>         0.1859
     10 C6         -0.8168   -0.9541   -2.7901 C.ar      1 <0>        -0.1443
     11 C7         -1.2723   -1.1682   -4.0709 C.ar      1 <0>        -0.0337
     12 C8         -0.3932   -1.0553   -5.1519 C.ar      1 <0>        -0.1435
     13 C9          0.9466   -0.7250   -4.9279 C.ar      1 <0>        -0.0671
     14 C10         1.3947   -0.5064   -3.6453 C.ar      1 <0>        -0.1248
     15 C11        -0.8781   -1.2847   -6.5261 C.2       1 <0>         0.5624
     16 O3         -2.0436   -1.5723   -6.7194 O.2       1 <0>        -0.5320
     17 N2         -0.0293   -1.1754   -7.5673 N.am      1 <0>        -0.7284
     18 C12        -0.5109   -1.4033   -8.9320 C.3       1 <0>         0.1225
     19 C13         0.6442   -1.2180   -9.9180 C.3       1 <0>        -0.1493
     20 C14         0.1412   -1.4560  -11.3433 C.3       1 <0>         0.1084
     21 N3          1.2473   -1.2786  -12.2874 N.pl3     1 <0>        -0.4610
     22 C15         1.6150   -0.1097  -12.8974 C.2       1 <0>        -0.0574
     23 C16         2.6740   -0.3944  -13.6790 C.2       1 <0>        -0.0285
     24 N4          2.9455   -1.7016  -13.5499 N.2       1 <0>        -0.4948
     25 C17         2.0981   -2.2366  -12.7140 C.2       1 <0>         0.1819
     26 H1         -0.6746   -0.2373    1.0971 H         1 <0>         0.1312
     27 H2         -1.5287   -1.4252    0.0833 H         1 <0>         0.1308
     28 H3         -0.7612   -1.9414    1.6041 H         1 <0>         0.1347
     29 H4          1.0432    1.6796   -1.4484 H         1 <0>         0.0915
     30 H5          1.4494    1.0417    0.1630 H         1 <0>         0.0977
     31 H6          3.6771    0.1255   -0.8981 H         1 <0>         0.1200
     32 H7          2.8392    2.6132   -2.4213 H         1 <0>         0.0994
     33 H8          4.5437    1.8512   -2.3063 H         1 <0>         0.1036
     34 H9         -1.4955   -1.0415   -1.9545 H         1 <0>         0.1301
     35 H10        -2.3079   -1.4236   -4.2407 H         1 <0>         0.1446
     36 H11         1.6283   -0.6373   -5.7610 H         1 <0>         0.1306
     37 H12         2.4286   -0.2465   -3.4720 H         1 <0>         0.1384
     38 H13         0.9004   -0.9460   -7.4130 H         1 <0>         0.4016
     39 H14        -0.9005   -2.4179   -9.0151 H         1 <0>         0.0756
     40 H15        -1.3026   -0.6901   -9.1617 H         1 <0>         0.0747
     41 H16         1.0338   -0.2034   -9.8348 H         1 <0>         0.0795
     42 H17         1.4359   -1.9312   -9.6883 H         1 <0>         0.0805
     43 H18        -0.2484   -2.4706  -11.4264 H         1 <0>         0.1000
     44 H19        -0.6505   -0.7428  -11.5730 H         1 <0>         0.0973
     45 H20         1.1458    0.8554  -12.7754 H         1 <0>         0.1738
     46 H21         3.2106    0.3068  -14.3009 H         1 <0>         0.1696
     47 H22         2.0788   -3.2742  -12.4150 H         1 <0>         0.2041
@<TRIPOS>BOND
     1    1    2 1
     2    1   26 1
     3    1   27 1
     4    1   28 1
     5    2    3 2
     6    2    4 2
     7    2    5 1
     8    5    6 1
     9    5    9 1
    10    6    7 1
    11    6   29 1
    12    6   30 1
    13    7    8 2
    14    7   31 1
    15    8   32 1
    16    8   33 1
    17    9   14 ar
    18    9   10 ar
    19   10   11 ar
    20   10   34 1
    21   11   12 ar
    22   11   35 1
    23   12   13 ar
    24   12   15 1
    25   13   14 ar
    26   13   36 1
    27   14   37 1
    28   15   16 2
    29   15   17 am
    30   17   18 1
    31   17   38 1
    32   18   19 1
    33   18   39 1
    34   18   40 1
    35   19   20 1
    36   19   41 1
    37   19   42 1
    38   20   21 1
    39   20   43 1
    40   20   44 1
    41   21   25 1
    42   21   22 1
    43   22   23 2
    44   22   45 1
    45   23   24 1
    46   23   46 1
    47   24   25 2
    48   25   47 1
@<TRIPOS>MOLECULE
ZINC00730736
   26    27     0     0     0
SMALL
USER_CHARGES
1-(4-aminophenyl)-2-imidazol-1-yl-ethanone
@<TRIPOS>ATOM
      1 C1          0.0021   -0.0041    0.0020 C.ar      1 <0>        -0.0010
      2 C2         -0.0164    1.3612    0.0095 C.ar      1 <0>        -0.2138
      3 C3          1.1792    2.0762    0.0019 C.ar      1 <0>         0.2569
      4 C4          2.3984    1.4022   -0.0134 C.ar      1 <0>        -0.2129
      5 C5          2.4261    0.0371   -0.0210 C.ar      1 <0>        -0.0205
      6 C6          1.2260   -0.6859   -0.0134 C.ar      1 <0>        -0.2401
      7 C7          1.2508   -2.1532   -0.0210 C.2       1 <0>         0.3821
      8 O1          0.2107   -2.7775   -0.0140 O.2       1 <0>        -0.4400
      9 C8          2.5684   -2.8845   -0.0376 C.3       1 <0>         0.0740
     10 N1          2.3251   -4.3291   -0.0425 N.pl3     1 <0>        -0.4550
     11 C9          2.1795   -5.1245   -1.1469 C.2       1 <0>        -0.0512
     12 C10         1.9732   -6.3780   -0.6999 C.2       1 <0>        -0.0262
     13 N2          1.9923   -6.3487    0.6409 N.2       1 <0>        -0.4927
     14 C11         2.2085   -5.1258    1.0417 C.2       1 <0>         0.1896
     15 N3          1.1557    3.4648    0.0097 N.pl3     1 <0>        -0.8622
     16 H1         -0.9253   -0.5575    0.0083 H         1 <0>         0.1335
     17 H2         -0.9594    1.8877    0.0169 H         1 <0>         0.1288
     18 H3          3.3230    1.9603   -0.0196 H         1 <0>         0.1292
     19 H4          3.3717   -0.4846   -0.0325 H         1 <0>         0.1301
     20 H5          3.0806   -2.6299   -0.8579 H         1 <0>         0.1104
     21 H6          3.1441   -2.6160    0.8482 H         1 <0>         0.1275
     22 H7          2.2213   -4.8077   -2.1785 H         1 <0>         0.1727
     23 H8          1.8193   -7.2533   -1.3135 H         1 <0>         0.1704
     24 H9          2.2796   -4.8036    2.0701 H         1 <0>         0.2032
     25 H10         0.3077    3.9355    0.0203 H         1 <0>         0.4038
     26 H11         1.9874    3.9640    0.0044 H         1 <0>         0.4035
@<TRIPOS>BOND
     1    1    6 ar
     2    1    2 ar
     3    1   16 1
     4    2    3 ar
     5    2   17 1
     6    3    4 ar
     7    3   15 1
     8    4    5 ar
     9    4   18 1
    10    5    6 ar
    11    5   19 1
    12    6    7 1
    13    7    8 2
    14    7    9 1
    15    9   10 1
    16    9   20 1
    17    9   21 1
    18   10   14 1
    19   10   11 1
    20   11   12 2
    21   11   22 1
    22   12   13 1
    23   12   23 1
    24   13   14 2
    25   14   24 1
    26   15   25 1
    27   15   26 1
@<TRIPOS>MOLECULE
ZINC19595447
   26    27     0     0     0
SMALL
USER_CHARGES
2-imidazol-1-yl-1-(4-nitrophenyl)ethanone
@<TRIPOS>ATOM
      1 C1          0.0021   -0.0041    0.0020 C.ar      1 <0>        -0.0577
      2 C2         -0.0166    1.3746    0.0096 C.ar      1 <0>        -0.0617
      3 C3          1.1703    2.0865    0.0021 C.ar      1 <0>        -0.0143
      4 C4          2.3842    1.4219   -0.0132 C.ar      1 <0>        -0.0634
      5 C5          2.4196    0.0435   -0.0209 C.ar      1 <0>        -0.0754
      6 C6          1.2246   -0.6830   -0.0133 C.ar      1 <0>        -0.1185
      7 C7          1.2535   -2.1544   -0.0210 C.2       1 <0>         0.3748
      8 O1          0.2156   -2.7812   -0.0141 O.2       1 <0>        -0.4066
      9 C8          2.5731   -2.8821   -0.0376 C.3       1 <0>         0.0594
     10 N1          2.3337   -4.3274   -0.0425 N.pl3     1 <0>        -0.4577
     11 C9          2.1902   -5.1231   -1.1470 C.2       1 <0>        -0.0523
     12 C10         1.9873   -6.3772   -0.7000 C.2       1 <0>        -0.0221
     13 N2          2.0064   -6.3479    0.6408 N.2       1 <0>        -0.4891
     14 C11         2.2192   -5.1243    1.0416 C.2       1 <0>         0.1904
     15 N3          1.1413    3.5662    0.0099 N.pl3     1 <0>         0.0193
     16 O2          0.0747    4.1544    0.0228 O.2       1 <0>        -0.1469
     17 O3          2.1839    4.1959    0.0033 O.3       1 <0>        -0.1461
     18 H1         -0.9249   -0.5582    0.0083 H         1 <0>         0.1598
     19 H2         -0.9600    1.9005    0.0169 H         1 <0>         0.1639
     20 H3          3.3062    1.9844   -0.0190 H         1 <0>         0.1644
     21 H4          3.3677   -0.4737   -0.0324 H         1 <0>         0.1579
     22 H5          3.1357   -2.6006   -0.9399 H         1 <0>         0.1342
     23 H6          3.1534   -2.6096    0.8563 H         1 <0>         0.1365
     24 H7          2.2313   -4.8061   -2.1786 H         1 <0>         0.1747
     25 H8          1.8358   -7.2529   -1.3136 H         1 <0>         0.1722
     26 H9          2.2895   -4.8021    2.0700 H         1 <0>         0.2045
@<TRIPOS>BOND
     1    1    6 ar
     2    1    2 ar
     3    1   18 1
     4    2    3 ar
     5    2   19 1
     6    3    4 ar
     7    3   15 1
     8    4    5 ar
     9    4   20 1
    10    5    6 ar
    11    5   21 1
    12    6    7 1
    13    7    8 2
    14    7    9 1
    15    9   10 1
    16    9   22 1
    17    9   23 1
    18   10   14 1
    19   10   11 1
    20   11   12 2
    21   11   24 1
    22   12   13 1
    23   12   25 1
    24   13   14 2
    25   14   26 1
    26   15   16 2
    27   15   17 1
@<TRIPOS>MOLECULE
ZINC19595447
   27    28     0     0     0
SMALL
USER_CHARGES
2-imidazol-1-yl-1-(4-nitrophenyl)ethanone
@<TRIPOS>ATOM
      1 C1          0.0021   -0.0041    0.0020 C.ar      1 <0>        -0.0488
      2 C2         -0.0166    1.3746    0.0096 C.ar      1 <0>        -0.0608
      3 C3          1.1703    2.0865    0.0021 C.ar      1 <0>        -0.0007
      4 C4          2.3842    1.4219   -0.0132 C.ar      1 <0>        -0.0630
      5 C5          2.4196    0.0435   -0.0209 C.ar      1 <0>        -0.0740
      6 C6          1.2246   -0.6830   -0.0133 C.ar      1 <0>        -0.1352
      7 C7          1.2535   -2.1544   -0.0210 C.2       1 <0>         0.3863
      8 O1          0.2156   -2.7812   -0.0141 O.2       1 <0>        -0.4135
      9 C8          2.5731   -2.8821   -0.0376 C.3       1 <0>         0.0466
     10 N1          2.3337   -4.3274   -0.0425 N.pl3     1 <0>        -0.4114
     11 C9          2.1902   -5.1231   -1.1470 C.2       1 <0>         0.0258
     12 C10         1.9873   -6.3772   -0.7000 C.2       1 <0>         0.0014
     13 N2          2.0064   -6.3479    0.6408 N.pl3     1 <0>        -0.4906
     14 C11         2.2192   -5.1243    1.0416 C.cat     1 <0>         0.3055
     15 N3          1.1413    3.5662    0.0099 N.pl3     1 <0>         0.0125
     16 O2          0.0747    4.1544    0.0228 O.2       1 <0>        -0.1365
     17 O3          2.1839    4.1959    0.0033 O.3       1 <0>        -0.1365
     18 H1         -0.9249   -0.5582    0.0083 H         1 <0>         0.1614
     19 H2         -0.9600    1.9005    0.0169 H         1 <0>         0.1686
     20 H3          3.3062    1.9844   -0.0190 H         1 <0>         0.1685
     21 H4          3.3677   -0.4737   -0.0324 H         1 <0>         0.1569
     22 H5          3.1357   -2.6006   -0.9399 H         1 <0>         0.1643
     23 H6          3.1534   -2.6096    0.8563 H         1 <0>         0.1620
     24 H7          2.2313   -4.8061   -2.1786 H         1 <0>         0.2204
     25 H8          1.8358   -7.2529   -1.3136 H         1 <0>         0.2243
     26 H9          2.2895   -4.8021    2.0700 H         1 <0>         0.2578
     27 H10         1.8544   -7.2747    1.2134 H         1 <0>         0.5083
@<TRIPOS>BOND
     1    1    6 ar
     2    1    2 ar
     3    1   18 1
     4    2    3 ar
     5    2   19 1
     6    3    4 ar
     7    3   15 1
     8    4    5 ar
     9    4   20 1
    10    5    6 ar
    11    5   21 1
    12    6    7 1
    13    7    8 2
    14    7    9 1
    15    9   10 1
    16    9   22 1
    17    9   23 1
    18   10   14 1
    19   10   11 1
    20   11   12 2
    21   11   24 1
    22   12   13 1
    23   12   25 1
    24   13   14 2
    25   13   27 1
    26   14   26 1
    27   15   16 2
    28   15   17 1
@<TRIPOS>MOLECULE
ZINC13674168
   48    51     0     0     0
SMALL
USER_CHARGES
(5S,8R,9S,10S,13S,14S)-10,13-dimethyl-1,2,5,6,7,8,9,11,12,14,15,16-dodecahydrocyclopenta[a]phenanthren-17-one
@<TRIPOS>ATOM
      1 C1          1.3188    2.0125   -2.4921 C.3       1 <0>        -0.1515
      2 C2          2.1066    1.5504   -1.2647 C.3       1 <0>        -0.0459
      3 C3          3.5427    2.0669   -1.3573 C.3       1 <0>        -0.1119
      4 C4          4.1048    1.6721   -2.7262 C.3       1 <0>        -0.0913
      5 C5          3.8078    0.2341   -3.0305 C.2       1 <0>        -0.1559
      6 C6          2.9470   -0.4933   -2.3869 C.2       1 <0>        -0.1473
      7 C7          2.1475    0.0208   -1.2314 C.3       1 <0>        -0.0489
      8 H1          2.6378   -0.2972   -0.3113 H         1 <0>         0.0740
      9 C8          0.7201   -0.5196   -1.2400 C.3       1 <0>        -0.1116
     10 C9         -0.0107   -0.0081    0.0064 C.3       1 <0>        -0.1130
     11 C10        -0.0264    1.5196    0.0127 C.3       1 <0>        -0.0765
     12 H2         -0.5596    1.8837   -0.8656 H         1 <0>         0.0871
     13 C11         1.4164    2.0540   -0.0003 C.3       1 <0>        -0.0688
     14 H3          1.9458    1.6681    0.8709 H         1 <0>         0.0671
     15 C12         1.4476    3.5774    0.0479 C.3       1 <0>        -0.1185
     16 C13         0.6618    4.1152    1.2559 C.3       1 <0>        -0.0977
     17 C14        -0.7536    3.5857    1.1461 C.3       1 <0>        -0.1238
     18 C15        -0.6869    2.0397    1.2759 C.3       1 <0>        -0.0788
     19 H4         -0.1109    1.7512    2.1552 H         1 <0>         0.0832
     20 C16        -2.1695    1.6880    1.4262 C.3       1 <0>        -0.1134
     21 C17        -2.6736    2.8020    2.3839 C.3       1 <0>        -0.1766
     22 C18        -1.7131    3.9770    2.2303 C.2       1 <0>         0.3796
     23 O1         -1.7236    5.0112    2.8538 O.2       1 <0>        -0.4387
     24 C19        -1.3381    3.9613   -0.2171 C.3       1 <0>        -0.1428
     25 H5          0.3022    1.6228   -2.4393 H         1 <0>         0.0607
     26 H6          1.2895    3.1019   -2.5161 H         1 <0>         0.0543
     27 H7          1.8034    1.6421   -3.3955 H         1 <0>         0.0605
     28 H8          3.5507    3.1521   -1.2554 H         1 <0>         0.0692
     29 H9          4.1465    1.6183   -0.5684 H         1 <0>         0.0623
     30 H10         3.6544    2.3014   -3.4938 H         1 <0>         0.0743
     31 H11         5.1844    1.8225   -2.7274 H         1 <0>         0.0681
     32 H12         4.3485   -0.2290   -3.8427 H         1 <0>         0.0990
     33 H13         2.8014   -1.5167   -2.6995 H         1 <0>         0.1027
     34 H14         0.7422   -1.6093   -1.2289 H         1 <0>         0.0623
     35 H15         0.2035   -0.1720   -2.1346 H         1 <0>         0.0680
     36 H16         0.5007   -0.3683    0.8990 H         1 <0>         0.0611
     37 H17        -1.0352   -0.3804    0.0033 H         1 <0>         0.0646
     38 H18         2.4829    3.9110    0.1185 H         1 <0>         0.0666
     39 H19         1.0073    3.9725   -0.8676 H         1 <0>         0.0711
     40 H20         1.1182    3.7638    2.1812 H         1 <0>         0.0650
     41 H21         0.6535    5.2050    1.2373 H         1 <0>         0.0693
     42 H22        -2.2863    0.7044    1.8812 H         1 <0>         0.0767
     43 H23        -2.6906    1.7347    0.4700 H         1 <0>         0.0791
     44 H24        -2.6764    2.4582    3.3229 H         1 <0>         0.0879
     45 H25        -3.6826    3.1056    2.1050 H         1 <0>         0.0966
     46 H26        -0.6766    3.6049   -1.0067 H         1 <0>         0.0818
     47 H27        -2.3199    3.5016   -0.3306 H         1 <0>         0.0623
     48 H28        -1.4343    5.0449   -0.2851 H         1 <0>         0.0587
@<TRIPOS>BOND
     1    1    2 1
     2    1   25 1
     3    1   26 1
     4    1   27 1
     5    2    7 1
     6    2   13 1
     7    2    3 1
     8    3    4 1
     9    3   28 1
    10    3   29 1
    11    4    5 1
    12    4   30 1
    13    4   31 1
    14    5    6 2
    15    5   32 1
    16    6    7 1
    17    6   33 1
    18    7    8 1
    19    7    9 1
    20    9   10 1
    21    9   34 1
    22    9   35 1
    23   10   11 1
    24   10   36 1
    25   10   37 1
    26   11   12 1
    27   11   18 1
    28   11   13 1
    29   13   14 1
    30   13   15 1
    31   15   16 1
    32   15   38 1
    33   15   39 1
    34   16   17 1
    35   16   40 1
    36   16   41 1
    37   17   22 1
    38   17   18 1
    39   17   24 1
    40   18   19 1
    41   18   20 1
    42   20   21 1
    43   20   42 1
    44   20   43 1
    45   21   22 1
    46   21   44 1
    47   21   45 1
    48   22   23 2
    49   24   46 1
    50   24   47 1
    51   24   48 1
@<TRIPOS>MOLECULE
ZINC03874317
   33    35     0     0     0
SMALL
USER_CHARGES

@<TRIPOS>ATOM
      1 C1          2.0732    1.4062   -0.8308 C.ar      1 <0>        -0.0859
      2 C2          1.1849    2.0922    0.0020 C.ar      1 <0>        -0.0258
      3 C3          0.3126    1.3779    0.8279 C.ar      1 <0>        -0.1033
      4 C4          0.3308   -0.0046    0.8189 C.ar      1 <0>         0.0938
      5 C5          1.2167   -0.6850   -0.0116 C.ar      1 <0>         0.0764
      6 C6          2.0867    0.0236   -0.8354 C.ar      1 <0>         0.0966
      7 O1          2.9505   -0.6446   -1.6458 O.3       1 <0>        -0.4863
      8 O2          1.2322   -2.0446   -0.0183 O.3       1 <0>        -0.4787
      9 O3         -0.5174   -0.7003    1.6227 O.3       1 <0>        -0.4812
     10 C7          1.1683    3.5667    0.0096 C.2       1 <0>         0.1312
     11 C8          2.3519    4.2356    0.1004 C.2       1 <0>        -0.0374
     12 C9          2.3527    5.6546    0.1089 C.2       1 <0>         0.4012
     13 O4          3.3933    6.2877    0.1887 O.2       1 <0>        -0.4464
     14 C10         1.0501    6.3331    0.0174 C.ar      1 <0>        -0.2690
     15 C11         0.9572    7.7312    0.0184 C.ar      1 <0>         0.2250
     16 C12        -0.2849    8.3310   -0.0697 C.ar      1 <0>        -0.2079
     17 C13        -1.4331    7.5508   -0.1581 C.ar      1 <0>         0.2004
     18 C14        -1.3490    6.1675   -0.1597 C.ar      1 <0>        -0.1855
     19 C15        -0.1119    5.5470   -0.0726 C.ar      1 <0>         0.1879
     20 O5         -0.0133    4.2011   -0.0789 O.3       1 <0>        -0.1974
     21 O6         -2.6481    8.1504   -0.2432 O.3       1 <0>        -0.4866
     22 O7          2.0786    8.4907    0.1056 O.3       1 <0>        -0.4725
     23 O8          3.5237    3.5485    0.1828 O.3       1 <0>        -0.4491
     24 H1          2.7453    1.9555   -1.4734 H         1 <0>         0.1463
     25 H2         -0.3747    1.9053    1.4728 H         1 <0>         0.1442
     26 H3          3.8063   -0.8341   -1.2374 H         1 <0>         0.3987
     27 H4          0.6310   -2.4417   -0.6632 H         1 <0>         0.3936
     28 H5         -1.3687   -0.9054    1.2124 H         1 <0>         0.3924
     29 H6         -0.3642    9.4081   -0.0694 H         1 <0>         0.1517
     30 H7         -2.2476    5.5724   -0.2288 H         1 <0>         0.1557
     31 H8         -2.9359    8.3293   -1.1489 H         1 <0>         0.4053
     32 H9          2.4687    8.7158   -0.7501 H         1 <0>         0.4040
     33 H10         4.3069    4.1124    0.2436 H         1 <0>         0.4089
@<TRIPOS>BOND
     1    1    6 ar
     2    1    2 ar
     3    1   24 1
     4    2    3 ar
     5    2   10 1
     6    3    4 ar
     7    3   25 1
     8    4    5 ar
     9    4    9 1
    10    5    6 ar
    11    5    8 1
    12    6    7 1
    13    7   26 1
    14    8   27 1
    15    9   28 1
    16   10   20 1
    17   10   11 2
    18   11   12 1
    19   11   23 1
    20   12   13 2
    21   12   14 1
    22   14   19 ar
    23   14   15 ar
    24   15   16 ar
    25   15   22 1
    26   16   17 ar
    27   16   29 1
    28   17   18 ar
    29   17   21 1
    30   18   19 ar
    31   18   30 1
    32   19   20 1
    33   21   31 1
    34   22   32 1
    35   23   33 1
@<TRIPOS>MOLECULE
ZINC03874317
   32    34     0     0     0
SMALL
USER_CHARGES

@<TRIPOS>ATOM
      1 C1          2.0771    1.4053   -0.8287 C.ar      1 <0>        -0.0905
      2 C2          1.1858    2.0921    0.0020 C.ar      1 <0>        -0.0015
      3 C3          0.3103    1.3773    0.8258 C.ar      1 <0>        -0.1070
      4 C4          0.3284   -0.0047    0.8166 C.ar      1 <0>         0.0918
      5 C5          1.2173   -0.6854   -0.0113 C.ar      1 <0>         0.0627
      6 C6          2.0900    0.0232   -0.8331 C.ar      1 <0>         0.0937
      7 O1          2.9560   -0.6454   -1.6409 O.3       1 <0>        -0.4882
      8 O2          1.2332   -2.0446   -0.0173 O.3       1 <0>        -0.4810
      9 O3         -0.5225   -0.7004    1.6174 O.3       1 <0>        -0.4835
     10 C7          1.1696    3.5647    0.0095 C.2       1 <0>         0.0969
     11 C8          2.3645    4.2546    0.1013 C.2       1 <0>         0.0017
     12 C9          2.3581    5.6552    0.1091 C.2       1 <0>         0.3347
     13 C10         1.1162    6.3213    0.0219 C.2       1 <0>        -0.3328
     14 C11         1.0516    7.7306    0.0250 C.2       1 <0>         0.2668
     15 C12        -0.1591    8.3550   -0.0605 C.2       1 <0>        -0.3747
     16 C13        -1.3400    7.6005   -0.1516 C.2       1 <0>         0.3649
     17 O4         -2.5185    8.2209   -0.2352 O.2       1 <0>        -0.6597
     18 C14        -1.2886    6.2026   -0.1556 C.2       1 <0>        -0.3140
     19 C15        -0.0694    5.5584   -0.0695 C.2       1 <0>         0.2123
     20 O5         -0.0059    4.2104   -0.0783 O.3       1 <0>        -0.2019
     21 O6          2.1901    8.4635    0.1132 O.3       1 <0>        -0.4481
     22 O7          3.5130    6.3524    0.1984 O.3       1 <0>        -0.5726
     23 O8          3.5409    3.5760    0.1840 O.3       1 <0>        -0.4646
     24 H1          2.7513    1.9542   -1.4694 H         1 <0>         0.1458
     25 H2         -0.3788    1.9047    1.4687 H         1 <0>         0.1447
     26 H3          3.8105   -0.8352   -1.2299 H         1 <0>         0.3943
     27 H4          0.6340   -2.4421   -0.6639 H         1 <0>         0.3880
     28 H5         -1.3725   -0.9053    1.2042 H         1 <0>         0.3891
     29 H6         -0.2092    9.4338   -0.0579 H         1 <0>         0.1182
     30 H7         -2.2003    5.6280   -0.2254 H         1 <0>         0.1230
     31 H8          2.0440    9.4194    0.1078 H         1 <0>         0.3850
     32 H9          4.3201    4.1455    0.2445 H         1 <0>         0.4068
@<TRIPOS>BOND
     1    1    6 ar
     2    1    2 ar
     3    1   24 1
     4    2    3 ar
     5    2   10 1
     6    3    4 ar
     7    3   25 1
     8    4    5 ar
     9    4    9 1
    10    5    6 ar
    11    5    8 1
    12    6    7 1
    13    7   26 1
    14    8   27 1
    15    9   28 1
    16   10   20 1
    17   10   11 2
    18   11   12 1
    19   11   23 1
    20   12   13 2
    21   12   22 1
    22   13   19 1
    23   13   14 1
    24   14   15 2
    25   14   21 1
    26   15   16 1
    27   15   29 1
    28   16   17 2
    29   16   18 1
    30   18   19 2
    31   18   30 1
    32   19   20 1
    33   21   31 1
    34   23   32 1
@<TRIPOS>MOLECULE
ZINC04695499
   31    33     0     0     0
SMALL
USER_CHARGES
(2E)-2-(3-pyridylmethylene)tetralin-1-one
@<TRIPOS>ATOM
      1 C1         -0.8131    1.4046    0.1681 C.ar      1 <0>        -0.0838
      2 C2          0.4464    0.8859    0.4135 C.ar      1 <0>        -0.1357
      3 C3          1.5408    1.7251    0.4354 C.ar      1 <0>        -0.0613
      4 C4          1.3724    3.0922    0.2112 C.ar      1 <0>        -0.1644
      5 C5          0.1061    3.6149   -0.0384 C.ar      1 <0>        -0.0283
      6 C6         -0.9833    2.7580   -0.0496 C.ar      1 <0>        -0.1356
      7 C7         -0.1288    5.0755   -0.3061 C.3       1 <0>        -0.0834
      8 C8          0.9645    5.9521    0.2986 C.3       1 <0>        -0.0891
      9 C9          2.3144    5.3979   -0.1186 C.2       1 <0>        -0.1815
     10 C10         3.2283    6.1398   -0.7812 C.2       1 <0>        -0.0347
     11 C11         3.0095    7.5825   -0.9670 C.ar      1 <0>        -0.1218
     12 C12         3.4321    8.2234   -2.1417 C.ar      1 <0>        -0.0564
     13 C13         3.1979    9.5803   -2.2678 C.ar      1 <0>        -0.1716
     14 C14         2.5699   10.2587   -1.2377 C.ar      1 <0>         0.1060
     15 N1          2.1871    9.6322   -0.1413 N.ar      1 <0>        -0.4837
     16 C15         2.3817    8.3410    0.0263 C.ar      1 <0>         0.1144
     17 C16         2.5570    3.9887    0.2528 C.2       1 <0>         0.4368
     18 O1          3.6602    3.5862    0.5729 O.2       1 <0>        -0.4413
     19 H1         -1.6697    0.7471    0.1510 H         1 <0>         0.1287
     20 H2          0.5724   -0.1733    0.5828 H         1 <0>         0.1309
     21 H3          2.5258    1.3252    0.6260 H         1 <0>         0.1343
     22 H4         -1.9722    3.1509   -0.2341 H         1 <0>         0.1298
     23 H5         -1.0899    5.3636    0.1198 H         1 <0>         0.0887
     24 H6         -0.1576    5.2379   -1.3836 H         1 <0>         0.0865
     25 H7          0.8839    5.9400    1.3855 H         1 <0>         0.0852
     26 H8          0.8605    6.9744   -0.0648 H         1 <0>         0.0931
     27 H9          4.1196    5.6737   -1.1745 H         1 <0>         0.1360
     28 H10         3.9239    7.6705   -2.9284 H         1 <0>         0.1394
     29 H11         3.5057   10.1063   -3.1594 H         1 <0>         0.1402
     30 H12         2.3897   11.3192   -1.3331 H         1 <0>         0.1593
     31 H13         2.0538    7.8637    0.9380 H         1 <0>         0.1632
@<TRIPOS>BOND
     1    1    6 ar
     2    1    2 ar
     3    1   19 1
     4    2    3 ar
     5    2   20 1
     6    3    4 ar
     7    3   21 1
     8    4   17 1
     9    4    5 ar
    10    5    6 ar
    11    5    7 1
    12    6   22 1
    13    7    8 1
    14    7   23 1
    15    7   24 1
    16    8    9 1
    17    8   25 1
    18    8   26 1
    19    9   10 2
    20    9   17 1
    21   10   11 1
    22   10   27 1
    23   11   16 ar
    24   11   12 ar
    25   12   13 ar
    26   12   28 1
    27   13   14 ar
    28   13   29 1
    29   14   15 ar
    30   14   30 1
    31   15   16 ar
    32   16   31 1
    33   17   18 2
@<TRIPOS>MOLECULE
ZINC04258305
   34    36     0     0     0
SMALL
USER_CHARGES

@<TRIPOS>ATOM
      1 C1         -0.0052    1.3850    0.2032 C.ar      1 <0>        -0.0967
      2 C2          0.1237    0.1361    0.7862 C.ar      1 <0>        -0.1232
      3 C3          1.3204   -0.5441    0.7098 C.ar      1 <0>        -0.0821
      4 C4          2.4064    0.0313    0.0407 C.ar      1 <0>        -0.0831
      5 C5          2.2677    1.2942   -0.5459 C.ar      1 <0>        -0.0859
      6 C6          1.0642    1.9612   -0.4604 C.ar      1 <0>        -0.1251
      7 C7          3.6863   -0.6868   -0.0451 C.2       1 <0>         0.0013
      8 C8          3.7136   -2.0381    0.0598 C.2       1 <0>         0.0146
      9 C9          4.9987   -2.7416    0.1436 C.2       1 <0>         0.4410
     10 O1          5.7176   -2.5822    1.1127 O.2       1 <0>        -0.3937
     11 C10         5.4197   -3.6432   -0.9480 C.ar      1 <0>        -0.1625
     12 C11         4.6551   -3.7385   -2.1136 C.ar      1 <0>        -0.0378
     13 C12         5.0534   -4.5811   -3.1288 C.ar      1 <0>        -0.1182
     14 C13         6.2095   -5.3339   -2.9961 C.ar      1 <0>         0.0108
     15 C14         6.9723   -5.2454   -1.8441 C.ar      1 <0>        -0.1181
     16 C15         6.5881   -4.4005   -0.8219 C.ar      1 <0>         0.0279
     17 Cl1         7.5493   -4.2843    0.6190 Cl        1 <0>        -0.0168
     18 Cl2         6.7032   -6.3931   -4.2799 Cl        1 <0>        -0.0407
     19 N1          2.5157   -2.7626    0.0881 N.pl3     1 <0>        -0.3275
     20 C16         2.1185   -3.6302    1.0394 C.2       1 <0>         0.2620
     21 N2          0.9437   -4.0952    0.6986 N.2       1 <0>        -0.5297
     22 C17         0.5598   -3.5522   -0.4561 C.2       1 <0>         0.2058
     23 N3          1.4861   -2.7251   -0.8663 N.2       1 <0>        -0.2982
     24 H1         -0.9467    1.9108    0.2627 H         1 <0>         0.1256
     25 H2         -0.7153   -0.3064    1.3025 H         1 <0>         0.1238
     26 H3          1.4195   -1.5183    1.1655 H         1 <0>         0.1195
     27 H4          3.1012    1.7453   -1.0637 H         1 <0>         0.1285
     28 H5          0.9554    2.9360   -0.9125 H         1 <0>         0.1280
     29 H6          4.6047   -0.1378   -0.1918 H         1 <0>         0.1542
     30 H7          3.7535   -3.1533   -2.2186 H         1 <0>         0.1511
     31 H8          4.4629   -4.6554   -4.0300 H         1 <0>         0.1494
     32 H9          7.8718   -5.8351   -1.7465 H         1 <0>         0.1544
     33 H10         2.6727   -3.8954    1.9277 H         1 <0>         0.2198
     34 H11        -0.3684   -3.7585   -0.9682 H         1 <0>         0.2218
@<TRIPOS>BOND
     1    1    6 ar
     2    1    2 ar
     3    1   24 1
     4    2    3 ar
     5    2   25 1
     6    3    4 ar
     7    3   26 1
     8    4    5 ar
     9    4    7 1
    10    5    6 ar
    11    5   27 1
    12    6   28 1
    13    7    8 2
    14    7   29 1
    15    8    9 1
    16    8   19 1
    17    9   10 2
    18    9   11 1
    19   11   16 ar
    20   11   12 ar
    21   12   13 ar
    22   12   30 1
    23   13   14 ar
    24   13   31 1
    25   14   15 ar
    26   14   18 1
    27   15   16 ar
    28   15   32 1
    29   16   17 1
    30   19   23 1
    31   19   20 1
    32   20   21 2
    33   20   33 1
    34   21   22 1
    35   22   23 2
    36   22   34 1
@<TRIPOS>MOLECULE
ZINC04912840
   39    41     0     0     0
SMALL
USER_CHARGES

@<TRIPOS>ATOM
      1 C1         -0.0167    1.3779    0.0096 C.ar      1 <0>        -0.0122
      2 C2          1.1696    2.0876    0.0021 C.ar      1 <0>        -0.1340
      3 C3          2.3817    1.4145   -0.0127 C.ar      1 <0>         0.1094
      4 C4          2.4006    0.0245   -0.0177 C.ar      1 <0>         0.0305
      5 C5          1.2071   -0.6813   -0.0113 C.ar      1 <0>        -0.0152
      6 C6          0.0021   -0.0041    0.0020 C.ar      1 <0>        -0.6788
      7 S1         -1.5126   -0.9042    0.0098 S.o2      1 <0>         2.7012
      8 O1         -1.2210   -2.1852    0.5513 O.2       1 <0>        -0.9510
      9 O2         -2.4933   -0.0441    0.5734 O.2       1 <0>        -0.9513
     10 N1         -1.9467   -1.1458   -1.5700 N.pl3     1 <0>        -1.1161
     11 C7         -1.1123   -1.9786   -2.4397 C.3       1 <0>         0.1174
     12 C8         -1.8982   -2.3473   -3.6996 C.3       1 <0>        -0.1439
     13 C9         -1.0268   -3.2171   -4.6080 C.3       1 <0>         0.1050
     14 N2         -1.7793   -3.5701   -5.8144 N.pl3     1 <0>        -0.4609
     15 C10        -2.5807   -4.6673   -5.9798 C.2       1 <0>        -0.0561
     16 C11        -3.0757   -4.6034   -7.2306 C.2       1 <0>        -0.0288
     17 N3         -2.5897   -3.4972   -7.8130 N.2       1 <0>        -0.4949
     18 C12        -1.8164   -2.8706   -6.9690 C.2       1 <0>         0.1807
     19 O3          3.5794   -0.6560   -0.0244 O.3       1 <0>        -0.3024
     20 C13         4.7458    0.0812   -0.4063 C.3       1 <0>         0.0189
     21 C14         4.7331    1.4219    0.3404 C.3       1 <0>         0.0166
     22 O4          3.5415    2.1268   -0.0241 O.3       1 <0>        -0.3008
     23 H1         -0.9596    1.9041    0.0259 H         1 <0>         0.1519
     24 H2          1.1522    3.1675    0.0074 H         1 <0>         0.1475
     25 H3          1.2190   -1.7612   -0.0174 H         1 <0>         0.1529
     26 H4         -2.7534   -0.7359   -1.9194 H         1 <0>         0.4217
     27 H5         -0.2151   -1.4266   -2.7196 H         1 <0>         0.0712
     28 H6         -0.8289   -2.8877   -1.9093 H         1 <0>         0.0869
     29 H7         -2.7954   -2.8994   -3.4197 H         1 <0>         0.0835
     30 H8         -2.1817   -1.4382   -4.2300 H         1 <0>         0.0818
     31 H9         -0.1296   -2.6650   -4.8879 H         1 <0>         0.0987
     32 H10        -0.7433   -4.1261   -4.0776 H         1 <0>         0.0983
     33 H11        -2.7779   -5.4367   -5.2479 H         1 <0>         0.1746
     34 H12        -3.7463   -5.3176   -7.6850 H         1 <0>         0.1697
     35 H13        -1.2911   -1.9471   -7.1626 H         1 <0>         0.2035
     36 H14         5.6402   -0.4808   -0.1375 H         1 <0>         0.1290
     37 H15         4.7323    0.2592   -1.4816 H         1 <0>         0.0815
     38 H16         4.7403    1.2438    1.4157 H         1 <0>         0.0844
     39 H17         5.6078    2.0080    0.0585 H         1 <0>         0.1296
@<TRIPOS>BOND
     1    1    6 ar
     2    1    2 ar
     3    1   23 1
     4    2    3 ar
     5    2   24 1
     6    3   22 1
     7    3    4 ar
     8    4    5 ar
     9    4   19 1
    10    5    6 ar
    11    5   25 1
    12    6    7 1
    13    7    8 2
    14    7    9 2
    15    7   10 1
    16   10   11 1
    17   10   26 1
    18   11   12 1
    19   11   27 1
    20   11   28 1
    21   12   13 1
    22   12   29 1
    23   12   30 1
    24   13   14 1
    25   13   31 1
    26   13   32 1
    27   14   18 1
    28   14   15 1
    29   15   16 2
    30   15   33 1
    31   16   17 1
    32   16   34 1
    33   17   18 2
    34   18   35 1
    35   19   20 1
    36   20   21 1
    37   20   36 1
    38   20   37 1
    39   21   22 1
    40   21   38 1
    41   21   39 1
@<TRIPOS>MOLECULE
ZINC04912840
   40    42     0     0     0
SMALL
USER_CHARGES

@<TRIPOS>ATOM
      1 C1         -0.0167    1.3779    0.0096 C.ar      1 <0>        -0.0121
      2 C2          1.1696    2.0876    0.0021 C.ar      1 <0>        -0.1332
      3 C3          2.3817    1.4145   -0.0127 C.ar      1 <0>         0.1130
      4 C4          2.4006    0.0245   -0.0177 C.ar      1 <0>         0.0311
      5 C5          1.2071   -0.6813   -0.0113 C.ar      1 <0>        -0.0182
      6 C6          0.0021   -0.0041    0.0020 C.ar      1 <0>        -0.6823
      7 S1         -1.5126   -0.9042    0.0098 S.o2      1 <0>         2.7005
      8 O1         -1.2210   -2.1852    0.5513 O.2       1 <0>        -0.9478
      9 O2         -2.4933   -0.0441    0.5734 O.2       1 <0>        -0.9446
     10 N1         -1.9467   -1.1458   -1.5700 N.pl3     1 <0>        -1.1190
     11 C7         -1.1123   -1.9786   -2.4397 C.3       1 <0>         0.1170
     12 C8         -1.8982   -2.3473   -3.6996 C.3       1 <0>        -0.1500
     13 C9         -1.0268   -3.2171   -4.6080 C.3       1 <0>         0.0912
     14 N2         -1.7793   -3.5701   -5.8144 N.pl3     1 <0>        -0.4083
     15 C10        -2.5811   -4.6671   -5.9796 C.2       1 <0>         0.0266
     16 C11        -3.0759   -4.6032   -7.2305 C.2       1 <0>         0.0042
     17 N3         -2.5895   -3.4973   -7.8131 N.pl3     1 <0>        -0.4760
     18 C12        -1.8161   -2.8708   -6.9691 C.cat     1 <0>         0.2877
     19 O3          3.5794   -0.6560   -0.0244 O.3       1 <0>        -0.3026
     20 C13         4.7458    0.0812   -0.4063 C.3       1 <0>         0.0195
     21 C14         4.7331    1.4219    0.3404 C.3       1 <0>         0.0154
     22 O4          3.5415    2.1268   -0.0241 O.3       1 <0>        -0.2994
     23 H1         -0.9596    1.9041    0.0259 H         1 <0>         0.1521
     24 H2          1.1522    3.1675    0.0074 H         1 <0>         0.1491
     25 H3          1.2190   -1.7612   -0.0174 H         1 <0>         0.1520
     26 H4         -2.7534   -0.7359   -1.9194 H         1 <0>         0.4218
     27 H5         -0.2151   -1.4266   -2.7196 H         1 <0>         0.0762
     28 H6         -0.8289   -2.8877   -1.9093 H         1 <0>         0.0923
     29 H7         -2.7954   -2.8994   -3.4197 H         1 <0>         0.0932
     30 H8         -2.1817   -1.4382   -4.2300 H         1 <0>         0.0887
     31 H9         -0.1296   -2.6650   -4.8879 H         1 <0>         0.1263
     32 H10        -0.7433   -4.1261   -4.0776 H         1 <0>         0.1310
     33 H11        -2.7786   -5.4363   -5.2476 H         1 <0>         0.2242
     34 H12        -3.7468   -5.3173   -7.6848 H         1 <0>         0.2243
     35 H13        -1.2904   -1.9475   -7.1629 H         1 <0>         0.2598
     36 H14         5.6402   -0.4808   -0.1375 H         1 <0>         0.1309
     37 H15         4.7323    0.2592   -1.4816 H         1 <0>         0.0811
     38 H16         4.7403    1.2438    1.4157 H         1 <0>         0.0868
     39 H17         5.6078    2.0080    0.0585 H         1 <0>         0.1320
     40 H18        -2.7848   -3.2071   -8.7178 H         1 <0>         0.4657
@<TRIPOS>BOND
     1    1    6 ar
     2    1    2 ar
     3    1   23 1
     4    2    3 ar
     5    2   24 1
     6    3   22 1
     7    3    4 ar
     8    4    5 ar
     9    4   19 1
    10    5    6 ar
    11    5   25 1
    12    6    7 1
    13    7    8 2
    14    7    9 2
    15    7   10 1
    16   10   11 1
    17   10   26 1
    18   11   12 1
    19   11   27 1
    20   11   28 1
    21   12   13 1
    22   12   29 1
    23   12   30 1
    24   13   14 1
    25   13   31 1
    26   13   32 1
    27   14   18 1
    28   14   15 1
    29   15   16 2
    30   15   33 1
    31   16   17 1
    32   16   34 1
    33   17   18 2
    34   17   40 1
    35   18   35 1
    36   19   20 1
    37   20   21 1
    38   20   36 1
    39   20   37 1
    40   21   22 1
    41   21   38 1
    42   21   39 1
@<TRIPOS>MOLECULE
ZINC19549640
   52    54     0     0     0
SMALL
USER_CHARGES
1-[(2S)-2-(imidazol-1-ylmethyl)morpholin-4-yl]-2-(3,4,5-trimethoxyphenyl)ethanone
@<TRIPOS>ATOM
      1 C1         -3.9260   -0.3716    3.5972 C.3       1 <0>         0.0212
      2 O1         -4.5181   -0.8811    2.4006 O.3       1 <0>        -0.3012
      3 C2         -4.0150   -0.4276    1.2213 C.ar      1 <0>         0.1525
      4 C3         -2.9737    0.4880    1.2170 C.ar      1 <0>        -0.2178
      5 C4         -2.4616    0.9495    0.0189 C.ar      1 <0>         0.0037
      6 C5         -2.9888    0.5054   -1.1792 C.ar      1 <0>        -0.2184
      7 C6         -4.0267   -0.4142   -1.1837 C.ar      1 <0>         0.1526
      8 C7         -4.5441   -0.8810    0.0188 C.ar      1 <0>         0.0306
      9 O2         -5.5658   -1.7800    0.0188 O.3       1 <0>        -0.3121
     10 C8         -6.8939   -1.2527    0.0284 C.3       1 <0>         0.0325
     11 O3         -4.5413   -0.8545   -2.3630 O.3       1 <0>        -0.3010
     12 C9         -3.9605   -0.3321   -3.5596 C.3       1 <0>         0.0213
     13 C10        -1.3296    1.9443    0.0189 C.3       1 <0>        -0.1037
     14 C11        -0.0144    1.2086    0.0087 C.2       1 <0>         0.5204
     15 O4          0.0021   -0.0041    0.0020 O.2       1 <0>        -0.5185
     16 N1          1.1435    1.8983    0.0013 N.am      1 <0>        -0.6193
     17 C12         1.1487    3.3698    0.0030 C.3       1 <0>         0.0674
     18 C13         2.0642    3.8557   -1.1209 C.3       1 <0>         0.0489
     19 O5          3.3371    3.2156   -1.0035 O.3       1 <0>        -0.3724
     20 C14         3.2923    1.7936   -1.1432 C.3       1 <0>         0.0638
     21 H1          2.8453    1.6005   -2.1296 H         1 <0>         0.0726
     22 C15         2.4398    1.2021   -0.0148 C.3       1 <0>         0.0852
     23 C16         4.7113    1.2272   -1.0624 C.3       1 <0>         0.1135
     24 N2          5.4916    1.6992   -2.2089 N.pl3     1 <0>        -0.4564
     25 C17         6.2429    2.8420   -2.2650 C.2       1 <0>        -0.0361
     26 C18         6.7881    2.8899   -3.4954 C.2       1 <0>        -0.0358
     27 N3          6.3808    1.8059   -4.1722 N.2       1 <0>        -0.4927
     28 C19         5.6086    1.0851   -3.4060 C.2       1 <0>         0.1753
     29 H2         -4.4236   -0.8174    4.4711 H         1 <0>         0.1055
     30 H3         -4.0424    0.7218    3.6271 H         1 <0>         0.0574
     31 H4         -2.8562   -0.6270    3.6145 H         1 <0>         0.0588
     32 H5         -2.5620    0.8409    2.1511 H         1 <0>         0.1332
     33 H6         -2.5889    0.8717   -2.1132 H         1 <0>         0.1326
     34 H7         -7.6174   -2.0813    0.0273 H         1 <0>         0.0944
     35 H8         -7.0478   -0.6304   -0.8655 H         1 <0>         0.0447
     36 H9         -7.0388   -0.6405    0.9308 H         1 <0>         0.0447
     37 H10        -4.4667   -0.7681   -4.4335 H         1 <0>         0.1057
     38 H11        -2.8910   -0.5877   -3.5900 H         1 <0>         0.0587
     39 H12        -4.0767    0.7616   -3.5764 H         1 <0>         0.0573
     40 H13        -1.4007    2.5807   -0.8755 H         1 <0>         0.1087
     41 H14        -1.3922    2.5710    0.9207 H         1 <0>         0.1099
     42 H15         0.1260    3.7403   -0.1606 H         1 <0>         0.0993
     43 H16         1.5200    3.7341    0.9723 H         1 <0>         0.0841
     44 H17         1.6149    3.6063   -2.0935 H         1 <0>         0.0576
     45 H18         2.1917    4.9456   -1.0447 H         1 <0>         0.1138
     46 H19         2.9443    1.3442    0.9523 H         1 <0>         0.0833
     47 H20         2.2772    0.1283   -0.1892 H         1 <0>         0.1084
     48 H21         5.1882    1.5646   -0.1304 H         1 <0>         0.1066
     49 H22         4.6687    0.1281   -1.0754 H         1 <0>         0.1153
     50 H23         6.3737    3.5659   -1.4742 H         1 <0>         0.1731
     51 H24         7.4392    3.6653   -3.8714 H         1 <0>         0.1685
     52 H25         5.1389    0.1532   -3.6839 H         1 <0>         0.2023
@<TRIPOS>BOND
     1    1    2 1
     2    1   29 1
     3    1   30 1
     4    1   31 1
     5    2    3 1
     6    3    8 ar
     7    3    4 ar
     8    4    5 ar
     9    4   32 1
    10    5    6 ar
    11    5   13 1
    12    6    7 ar
    13    6   33 1
    14    7    8 ar
    15    7   11 1
    16    8    9 1
    17    9   10 1
    18   10   34 1
    19   10   35 1
    20   10   36 1
    21   11   12 1
    22   12   37 1
    23   12   38 1
    24   12   39 1
    25   13   14 1
    26   13   40 1
    27   13   41 1
    28   14   15 2
    29   14   16 am
    30   16   22 1
    31   16   17 1
    32   17   18 1
    33   17   42 1
    34   17   43 1
    35   18   19 1
    36   18   44 1
    37   18   45 1
    38   19   20 1
    39   20   21 1
    40   20   22 1
    41   20   23 1
    42   22   46 1
    43   22   47 1
    44   23   24 1
    45   23   48 1
    46   23   49 1
    47   24   28 1
    48   24   25 1
    49   25   26 2
    50   25   50 1
    51   26   27 1
    52   26   51 1
    53   27   28 2
    54   28   52 1
@<TRIPOS>MOLECULE
ZINC19549640
   53    55     0     0     0
SMALL
USER_CHARGES
1-[(2S)-2-(imidazol-1-ylmethyl)morpholin-4-yl]-2-(3,4,5-trimethoxyphenyl)ethanone
@<TRIPOS>ATOM
      1 C1         -3.9260   -0.3716    3.5972 C.3       1 <0>         0.0210
      2 O1         -4.5181   -0.8811    2.4006 O.3       1 <0>        -0.2994
      3 C2         -4.0150   -0.4276    1.2213 C.ar      1 <0>         0.1541
      4 C3         -2.9737    0.4880    1.2170 C.ar      1 <0>        -0.2176
      5 C4         -2.4616    0.9495    0.0189 C.ar      1 <0>        -0.0026
      6 C5         -2.9888    0.5054   -1.1792 C.ar      1 <0>        -0.2196
      7 C6         -4.0267   -0.4142   -1.1837 C.ar      1 <0>         0.1524
      8 C7         -4.5441   -0.8810    0.0188 C.ar      1 <0>         0.0342
      9 O2         -5.5658   -1.7800    0.0188 O.3       1 <0>        -0.3123
     10 C8         -6.8939   -1.2527    0.0284 C.3       1 <0>         0.0322
     11 O3         -4.5413   -0.8545   -2.3630 O.3       1 <0>        -0.2995
     12 C9         -3.9605   -0.3321   -3.5596 C.3       1 <0>         0.0224
     13 C10        -1.3296    1.9443    0.0189 C.3       1 <0>        -0.1021
     14 C11        -0.0144    1.2086    0.0087 C.2       1 <0>         0.5224
     15 O4          0.0021   -0.0041    0.0020 O.2       1 <0>        -0.5121
     16 N1          1.1435    1.8983    0.0013 N.am      1 <0>        -0.6229
     17 C12         1.1487    3.3698    0.0030 C.3       1 <0>         0.0650
     18 C13         2.0642    3.8557   -1.1209 C.3       1 <0>         0.0512
     19 O5          3.3371    3.2156   -1.0035 O.3       1 <0>        -0.3812
     20 C14         3.2923    1.7936   -1.1432 C.3       1 <0>         0.0587
     21 H1          2.8453    1.6005   -2.1296 H         1 <0>         0.0780
     22 C15         2.4398    1.2021   -0.0148 C.3       1 <0>         0.0848
     23 C16         4.7113    1.2272   -1.0624 C.3       1 <0>         0.1018
     24 N2          5.4916    1.6992   -2.2089 N.pl3     1 <0>        -0.4078
     25 C17         6.2429    2.8420   -2.2650 C.2       1 <0>         0.0392
     26 C18         6.7881    2.8899   -3.4954 C.2       1 <0>        -0.0103
     27 N3          6.3808    1.8059   -4.1722 N.pl3     1 <0>        -0.4929
     28 C19         5.6086    1.0851   -3.4060 C.cat     1 <0>         0.2899
     29 H2         -4.4236   -0.8174    4.4711 H         1 <0>         0.1076
     30 H3         -4.0424    0.7218    3.6271 H         1 <0>         0.0580
     31 H4         -2.8562   -0.6270    3.6145 H         1 <0>         0.0582
     32 H5         -2.5620    0.8409    2.1511 H         1 <0>         0.1333
     33 H6         -2.5889    0.8717   -2.1132 H         1 <0>         0.1309
     34 H7         -7.6174   -2.0813    0.0273 H         1 <0>         0.0967
     35 H8         -7.0478   -0.6304   -0.8655 H         1 <0>         0.0455
     36 H9         -7.0388   -0.6405    0.9308 H         1 <0>         0.0460
     37 H10        -4.4667   -0.7681   -4.4335 H         1 <0>         0.1066
     38 H11        -2.8910   -0.5877   -3.5900 H         1 <0>         0.0559
     39 H12        -4.0767    0.7616   -3.5764 H         1 <0>         0.0571
     40 H13        -1.4007    2.5807   -0.8755 H         1 <0>         0.1089
     41 H14        -1.3922    2.5710    0.9207 H         1 <0>         0.1119
     42 H15         0.1260    3.7403   -0.1606 H         1 <0>         0.1054
     43 H16         1.5200    3.7341    0.9723 H         1 <0>         0.0881
     44 H17         1.6149    3.6063   -2.0935 H         1 <0>         0.0609
     45 H18         2.1917    4.9456   -1.0447 H         1 <0>         0.1206
     46 H19         2.9443    1.3442    0.9523 H         1 <0>         0.0883
     47 H20         2.2772    0.1283   -0.1892 H         1 <0>         0.1126
     48 H21         5.1882    1.5646   -0.1304 H         1 <0>         0.1379
     49 H22         4.6687    0.1281   -1.0754 H         1 <0>         0.1413
     50 H23         6.3737    3.5659   -1.4742 H         1 <0>         0.2189
     51 H24         7.4392    3.6653   -3.8714 H         1 <0>         0.2211
     52 H25         5.1389    0.1532   -3.6839 H         1 <0>         0.2557
     53 H26         6.7098    1.6498   -5.2102 H         1 <0>         0.5054
@<TRIPOS>BOND
     1    1    2 1
     2    1   29 1
     3    1   30 1
     4    1   31 1
     5    2    3 1
     6    3    8 ar
     7    3    4 ar
     8    4    5 ar
     9    4   32 1
    10    5    6 ar
    11    5   13 1
    12    6    7 ar
    13    6   33 1
    14    7    8 ar
    15    7   11 1
    16    8    9 1
    17    9   10 1
    18   10   34 1
    19   10   35 1
    20   10   36 1
    21   11   12 1
    22   12   37 1
    23   12   38 1
    24   12   39 1
    25   13   14 1
    26   13   40 1
    27   13   41 1
    28   14   15 2
    29   14   16 am
    30   16   22 1
    31   16   17 1
    32   17   18 1
    33   17   42 1
    34   17   43 1
    35   18   19 1
    36   18   44 1
    37   18   45 1
    38   19   20 1
    39   20   21 1
    40   20   22 1
    41   20   23 1
    42   22   46 1
    43   22   47 1
    44   23   24 1
    45   23   48 1
    46   23   49 1
    47   24   28 1
    48   24   25 1
    49   25   26 2
    50   25   50 1
    51   26   27 1
    52   26   51 1
    53   27   28 2
    54   27   53 1
    55   28   52 1
@<TRIPOS>MOLECULE
ZINC19549642
   52    54     0     0     0
SMALL
USER_CHARGES
1-[(2R)-2-(imidazol-1-ylmethyl)morpholin-4-yl]-2-(3,4,5-trimethoxyphenyl)ethanone
@<TRIPOS>ATOM
      1 C1         -2.2976   -0.3700    0.0109 C.3       1 <0>         0.0213
      2 O1         -2.3917    1.0559    0.0191 O.3       1 <0>        -0.3011
      3 C2         -1.2233    1.7518    0.0174 C.ar      1 <0>         0.1525
      4 C3         -0.0126    1.0758    0.0080 C.ar      1 <0>        -0.2179
      5 C4          1.1755    1.7823    0.0004 C.ar      1 <0>         0.0037
      6 C5          1.1622    3.1645    0.0075 C.ar      1 <0>        -0.2175
      7 C6         -0.0442    3.8480    0.0218 C.ar      1 <0>         0.1525
      8 C7         -1.2410    3.1414    0.0294 C.ar      1 <0>         0.0304
      9 O2         -2.4271    3.8086    0.0434 O.3       1 <0>        -0.3127
     10 C8         -3.0042    4.1326   -1.2231 C.3       1 <0>         0.0325
     11 O3         -0.0563    5.2079    0.0287 O.3       1 <0>        -0.3012
     12 C9          1.2111    5.8680    0.0207 C.3       1 <0>         0.0212
     13 C10         2.4890    1.0435   -0.0151 C.3       1 <0>        -0.1040
     14 C11         2.9138    0.8040   -1.4410 C.2       1 <0>         0.5211
     15 O4          2.2184    1.1947   -2.3547 O.2       1 <0>        -0.5205
     16 N1          4.0664    0.1556   -1.7009 N.am      1 <0>        -0.6191
     17 C12         4.9264   -0.3277   -0.6091 C.3       1 <0>         0.0671
     18 C13         5.2559   -1.8020   -0.8695 C.3       1 <0>         0.0489
     19 O5          5.7735   -1.9417   -2.1948 O.3       1 <0>        -0.3721
     20 C14         4.8518   -1.5763   -3.2247 C.3       1 <0>         0.0637
     21 H1          3.9662   -2.2122   -3.0789 H         1 <0>         0.0720
     22 C15         4.4989   -0.0954   -3.0849 C.3       1 <0>         0.0850
     23 C16         5.4892   -1.8257   -4.5930 C.3       1 <0>         0.1138
     24 N2          5.7187   -3.2617   -4.7705 N.pl3     1 <0>        -0.4563
     25 C17         6.8494   -3.9521   -4.4264 C.2       1 <0>        -0.0361
     26 C18         6.6357   -5.2397   -4.7581 C.2       1 <0>        -0.0356
     27 N3          5.4117   -5.3313   -5.2987 N.2       1 <0>        -0.4925
     28 C19         4.8564   -4.1504   -5.3094 C.2       1 <0>         0.1751
     29 H2         -3.3083   -0.8042    0.0133 H         1 <0>         0.1057
     30 H3         -1.7518   -0.7066    0.9047 H         1 <0>         0.0586
     31 H4         -1.7603   -0.6968   -0.8916 H         1 <0>         0.0574
     32 H5          0.0021   -0.0041    0.0020 H         1 <0>         0.1326
     33 H6          2.0926    3.7128    0.0016 H         1 <0>         0.1331
     34 H7         -3.9533    4.6665   -1.0677 H         1 <0>         0.0946
     35 H8         -3.1921    3.2075   -1.7878 H         1 <0>         0.0451
     36 H9         -2.3114    4.7731   -1.7886 H         1 <0>         0.0450
     37 H10         1.0573    6.9572    0.0275 H         1 <0>         0.1055
     38 H11         1.7678    5.5819   -0.8839 H         1 <0>         0.0576
     39 H12         1.7838    5.5730    0.9123 H         1 <0>         0.0587
     40 H13         3.2536    1.6441    0.4993 H         1 <0>         0.1103
     41 H14         2.3730    0.0785    0.5000 H         1 <0>         0.1091
     42 H15         5.8522    0.2657   -0.5815 H         1 <0>         0.0845
     43 H16         4.3958   -0.2241    0.3489 H         1 <0>         0.0997
     44 H17         6.0070   -2.1438   -0.1422 H         1 <0>         0.1140
     45 H18         4.3425   -2.4059   -0.7646 H         1 <0>         0.0579
     46 H19         3.6831    0.1620   -3.7764 H         1 <0>         0.1079
     47 H20         5.3803    0.5226   -3.3114 H         1 <0>         0.0830
     48 H21         4.8159   -1.4616   -5.3830 H         1 <0>         0.1150
     49 H22         6.4485   -1.2908   -4.6536 H         1 <0>         0.1067
     50 H23         7.7406   -3.5433   -3.9737 H         1 <0>         0.1731
     51 H24         7.3304   -6.0548   -4.6183 H         1 <0>         0.1686
     52 H25         3.8709   -3.9216   -5.6872 H         1 <0>         0.2021
@<TRIPOS>BOND
     1    1    2 1
     2    1   29 1
     3    1   30 1
     4    1   31 1
     5    2    3 1
     6    3    8 ar
     7    3    4 ar
     8    4    5 ar
     9    4   32 1
    10    5    6 ar
    11    5   13 1
    12    6    7 ar
    13    6   33 1
    14    7    8 ar
    15    7   11 1
    16    8    9 1
    17    9   10 1
    18   10   34 1
    19   10   35 1
    20   10   36 1
    21   11   12 1
    22   12   37 1
    23   12   38 1
    24   12   39 1
    25   13   14 1
    26   13   40 1
    27   13   41 1
    28   14   15 2
    29   14   16 am
    30   16   22 1
    31   16   17 1
    32   17   18 1
    33   17   42 1
    34   17   43 1
    35   18   19 1
    36   18   44 1
    37   18   45 1
    38   19   20 1
    39   20   21 1
    40   20   22 1
    41   20   23 1
    42   22   46 1
    43   22   47 1
    44   23   24 1
    45   23   48 1
    46   23   49 1
    47   24   28 1
    48   24   25 1
    49   25   26 2
    50   25   50 1
    51   26   27 1
    52   26   51 1
    53   27   28 2
    54   28   52 1
@<TRIPOS>MOLECULE
ZINC19549642
   53    55     0     0     0
SMALL
USER_CHARGES
1-[(2R)-2-(imidazol-1-ylmethyl)morpholin-4-yl]-2-(3,4,5-trimethoxyphenyl)ethanone
@<TRIPOS>ATOM
      1 C1         -2.2976   -0.3700    0.0109 C.3       1 <0>         0.0224
      2 O1         -2.3917    1.0559    0.0191 O.3       1 <0>        -0.2995
      3 C2         -1.2233    1.7518    0.0174 C.ar      1 <0>         0.1523
      4 C3         -0.0126    1.0758    0.0080 C.ar      1 <0>        -0.2192
      5 C4          1.1755    1.7823    0.0004 C.ar      1 <0>        -0.0025
      6 C5          1.1622    3.1645    0.0075 C.ar      1 <0>        -0.2174
      7 C6         -0.0442    3.8480    0.0218 C.ar      1 <0>         0.1542
      8 C7         -1.2410    3.1414    0.0294 C.ar      1 <0>         0.0340
      9 O2         -2.4271    3.8086    0.0434 O.3       1 <0>        -0.3120
     10 C8         -3.0042    4.1326   -1.2231 C.3       1 <0>         0.0328
     11 O3         -0.0563    5.2079    0.0287 O.3       1 <0>        -0.2994
     12 C9          1.2111    5.8680    0.0207 C.3       1 <0>         0.0210
     13 C10         2.4890    1.0435   -0.0151 C.3       1 <0>        -0.1024
     14 C11         2.9138    0.8040   -1.4410 C.2       1 <0>         0.5231
     15 O4          2.2184    1.1947   -2.3547 O.2       1 <0>        -0.5140
     16 N1          4.0664    0.1556   -1.7009 N.am      1 <0>        -0.6226
     17 C12         4.9264   -0.3277   -0.6091 C.3       1 <0>         0.0649
     18 C13         5.2559   -1.8020   -0.8695 C.3       1 <0>         0.0511
     19 O5          5.7735   -1.9417   -2.1948 O.3       1 <0>        -0.3810
     20 C14         4.8518   -1.5763   -3.2247 C.3       1 <0>         0.0587
     21 H1          3.9662   -2.2122   -3.0789 H         1 <0>         0.0776
     22 C15         4.4989   -0.0954   -3.0849 C.3       1 <0>         0.0845
     23 C16         5.4892   -1.8257   -4.5930 C.3       1 <0>         0.1021
     24 N2          5.7187   -3.2617   -4.7705 N.pl3     1 <0>        -0.4077
     25 C17         6.8494   -3.9521   -4.4264 C.2       1 <0>         0.0393
     26 C18         6.6357   -5.2397   -4.7581 C.2       1 <0>        -0.0101
     27 N3          5.4117   -5.3313   -5.2987 N.pl3     1 <0>        -0.4928
     28 C19         4.8564   -4.1504   -5.3094 C.cat     1 <0>         0.2897
     29 H2         -3.3083   -0.8042    0.0133 H         1 <0>         0.1066
     30 H3         -1.7518   -0.7066    0.9047 H         1 <0>         0.0584
     31 H4         -1.7603   -0.6968   -0.8916 H         1 <0>         0.0546
     32 H5          0.0021   -0.0041    0.0020 H         1 <0>         0.1309
     33 H6          2.0926    3.7128    0.0016 H         1 <0>         0.1333
     34 H7         -3.9533    4.6665   -1.0677 H         1 <0>         0.0968
     35 H8         -3.1921    3.2075   -1.7878 H         1 <0>         0.0448
     36 H9         -2.3114    4.7731   -1.7886 H         1 <0>         0.0455
     37 H10         1.0573    6.9572    0.0275 H         1 <0>         0.1076
     38 H11         1.7678    5.5819   -0.8839 H         1 <0>         0.0569
     39 H12         1.7838    5.5730    0.9123 H         1 <0>         0.0593
     40 H13         3.2536    1.6441    0.4993 H         1 <0>         0.1123
     41 H14         2.3730    0.0785    0.5000 H         1 <0>         0.1093
     42 H15         5.8522    0.2657   -0.5815 H         1 <0>         0.0885
     43 H16         4.3958   -0.2241    0.3489 H         1 <0>         0.1058
     44 H17         6.0070   -2.1438   -0.1422 H         1 <0>         0.1207
     45 H18         4.3425   -2.4059   -0.7646 H         1 <0>         0.0612
     46 H19         3.6831    0.1620   -3.7764 H         1 <0>         0.1122
     47 H20         5.3803    0.5226   -3.3114 H         1 <0>         0.0879
     48 H21         4.8159   -1.4616   -5.3830 H         1 <0>         0.1410
     49 H22         6.4485   -1.2908   -4.6536 H         1 <0>         0.1380
     50 H23         7.7406   -3.5433   -3.9737 H         1 <0>         0.2190
     51 H24         7.3304   -6.0548   -4.6183 H         1 <0>         0.2212
     52 H25         3.8709   -3.9216   -5.6872 H         1 <0>         0.2556
     53 H26         5.0354   -6.3047   -5.6463 H         1 <0>         0.5054
@<TRIPOS>BOND
     1    1    2 1
     2    1   29 1
     3    1   30 1
     4    1   31 1
     5    2    3 1
     6    3    8 ar
     7    3    4 ar
     8    4    5 ar
     9    4   32 1
    10    5    6 ar
    11    5   13 1
    12    6    7 ar
    13    6   33 1
    14    7    8 ar
    15    7   11 1
    16    8    9 1
    17    9   10 1
    18   10   34 1
    19   10   35 1
    20   10   36 1
    21   11   12 1
    22   12   37 1
    23   12   38 1
    24   12   39 1
    25   13   14 1
    26   13   40 1
    27   13   41 1
    28   14   15 2
    29   14   16 am
    30   16   22 1
    31   16   17 1
    32   17   18 1
    33   17   42 1
    34   17   43 1
    35   18   19 1
    36   18   44 1
    37   18   45 1
    38   19   20 1
    39   20   21 1
    40   20   22 1
    41   20   23 1
    42   22   46 1
    43   22   47 1
    44   23   24 1
    45   23   48 1
    46   23   49 1
    47   24   28 1
    48   24   25 1
    49   25   26 2
    50   25   50 1
    51   26   27 1
    52   26   51 1
    53   27   28 2
    54   27   53 1
    55   28   52 1
@<TRIPOS>MOLECULE
ZINC19562963
   46    49     0     0     0
SMALL
USER_CHARGES
7-methoxy-1'-[2-(1,2,4-triazol-1-yl)acetyl]spiro[chroman-2,4'-piperidine]-4-one
@<TRIPOS>ATOM
      1 C1         -0.0127    1.0858    0.0080 C.3       1 <0>         0.0197
      2 O1         -0.6816    1.5467    1.1837 O.3       1 <0>        -0.3074
      3 C2         -0.1497    1.1827    2.3776 C.ar      1 <0>         0.2001
      4 C3          0.9948    0.3897    2.4105 C.ar      1 <0>        -0.2508
      5 C4          1.5423    0.0204    3.6060 C.ar      1 <0>         0.0164
      6 C5          0.9432    0.4308    4.8005 C.ar      1 <0>        -0.2907
      7 C6         -0.2141    1.2292    4.7763 C.ar      1 <0>         0.2220
      8 C7         -0.7537    1.5990    3.5549 C.ar      1 <0>        -0.2012
      9 O2         -0.7989    1.6379    5.9265 O.3       1 <0>        -0.2934
     10 C8         -0.5521    0.8971    7.1208 C.3       1 <0>         0.1316
     11 C9         -1.1848   -0.4911    7.0051 C.3       1 <0>        -0.1674
     12 C10        -2.6930   -0.3440    6.7805 C.3       1 <0>         0.1075
     13 N1         -3.2521    0.4870    7.8555 N.am      1 <0>        -0.6102
     14 C11        -2.6582    1.8067    8.1094 C.3       1 <0>         0.1128
     15 C12        -1.1502    1.6368    8.3189 C.3       1 <0>        -0.1199
     16 C13        -4.2901    0.0474    8.5942 C.2       1 <0>         0.5052
     17 O3         -4.7428    0.7431    9.4784 O.2       1 <0>        -0.5046
     18 C14        -4.8883   -1.3086    8.3214 C.3       1 <0>         0.1090
     19 N2         -5.9940   -1.5507    9.2515 N.pl3     1 <0>        -0.3745
     20 C15        -7.2593   -1.8736    8.9324 C.2       1 <0>         0.2564
     21 N3         -7.9373   -2.0049   10.0435 N.2       1 <0>        -0.5413
     22 C16        -7.1426   -1.7747   11.0879 C.2       1 <0>         0.1971
     23 N4         -5.9411   -1.4976   10.6540 N.2       1 <0>        -0.2923
     24 C17         0.9625    0.7466    7.3231 C.3       1 <0>        -0.1964
     25 C18         1.5086    0.0334    6.0988 C.2       1 <0>         0.4070
     26 O4          2.3668   -0.8199    6.1870 O.2       1 <0>        -0.4469
     27 H1         -0.5447    1.4502   -0.8832 H         1 <0>         0.1080
     28 H2          0.0022   -0.0141    0.0020 H         1 <0>         0.0625
     29 H3          1.0193    1.4665    0.0002 H         1 <0>         0.0626
     30 H4          1.4538    0.0693    1.4869 H         1 <0>         0.1384
     31 H5          2.4325   -0.5907    3.6284 H         1 <0>         0.1395
     32 H6         -1.6430    2.2108    3.5196 H         1 <0>         0.1469
     33 H7         -0.7371   -1.0285    6.1561 H         1 <0>         0.0869
     34 H8         -1.0042   -1.0548    7.9322 H         1 <0>         0.0942
     35 H9         -2.8737    0.1346    5.8067 H         1 <0>         0.0841
     36 H10        -3.1644   -1.3378    6.7937 H         1 <0>         0.0899
     37 H11        -2.8432    2.4641    7.2470 H         1 <0>         0.0822
     38 H12        -3.1126    2.2462    9.0096 H         1 <0>         0.1014
     39 H13        -0.9694    1.0564    9.2357 H         1 <0>         0.0962
     40 H14        -0.6781    2.6260    8.4121 H         1 <0>         0.0964
     41 H15        -5.2642   -1.3424    7.2882 H         1 <0>         0.1327
     42 H16        -4.1188   -2.0829    8.4571 H         1 <0>         0.1205
     43 H17        -7.6484   -2.0015    7.9331 H         1 <0>         0.2197
     44 H18        -7.4415   -1.8149   12.1249 H         1 <0>         0.2180
     45 H19         1.4191    1.7419    7.4277 H         1 <0>         0.1182
     46 H20         1.1543    0.1579    8.2323 H         1 <0>         0.1137
@<TRIPOS>BOND
     1    1    2 1
     2    1   27 1
     3    1   28 1
     4    1   29 1
     5    2    3 1
     6    3    8 ar
     7    3    4 ar
     8    4    5 ar
     9    4   30 1
    10    5    6 ar
    11    5   31 1
    12    6   25 1
    13    6    7 ar
    14    7    8 ar
    15    7    9 1
    16    8   32 1
    17    9   10 1
    18   10   15 1
    19   10   11 1
    20   10   24 1
    21   11   12 1
    22   11   33 1
    23   11   34 1
    24   12   13 1
    25   12   35 1
    26   12   36 1
    27   13   14 1
    28   13   16 am
    29   14   15 1
    30   14   37 1
    31   14   38 1
    32   15   39 1
    33   15   40 1
    34   16   17 2
    35   16   18 1
    36   18   19 1
    37   18   41 1
    38   18   42 1
    39   19   23 1
    40   19   20 1
    41   20   21 2
    42   20   43 1
    43   21   22 1
    44   22   23 2
    45   22   44 1
    46   24   25 1
    47   24   45 1
    48   24   46 1
    49   25   26 2
@<TRIPOS>MOLECULE
ZINC19370978
   50    53     0     0     0
SMALL
USER_CHARGES
N-[(1S)-1-(2,3-dihydro-1,4-benzodioxin-6-yl)-3-phenyl-propyl]-2-(1,2,4-triazol-1-yl)acetamide
@<TRIPOS>ATOM
      1 C1         -7.1183   -1.8222   -5.3807 C.ar      1 <0>        -0.1274
      2 C2         -6.1787   -2.7587   -4.9921 C.ar      1 <0>        -0.1179
      3 C3         -5.6594   -2.7266   -3.7114 C.ar      1 <0>        -0.1189
      4 C4         -6.0800   -1.7582   -2.8191 C.ar      1 <0>        -0.0772
      5 C5         -7.0238   -0.8251   -3.2059 C.ar      1 <0>        -0.1173
      6 C6         -7.5389   -0.8538   -4.4884 C.ar      1 <0>        -0.1185
      7 C7         -5.5143   -1.7234   -1.4228 C.3       1 <0>        -0.0741
      8 C8         -4.2664   -0.8384   -1.4000 C.3       1 <0>        -0.1169
      9 C9         -3.6920   -0.8031    0.0176 C.3       1 <0>         0.1984
     10 H1         -3.5204   -1.8202    0.3997 H         1 <0>         0.0988
     11 C10        -2.3965   -0.0332    0.0157 C.ar      1 <0>        -0.0872
     12 C11        -2.4153    1.3492    0.0259 C.ar      1 <0>        -0.1095
     13 C12        -1.2294    2.0588    0.0190 C.ar      1 <0>        -0.1076
     14 C13        -0.0168    1.3855    0.0097 C.ar      1 <0>         0.0532
     15 C14         0.0021   -0.0041    0.0020 C.ar      1 <0>         0.0568
     16 C15        -1.1918   -0.7102    0.0041 C.ar      1 <0>        -0.1006
     17 O1          1.1807   -0.6848   -0.0066 O.3       1 <0>        -0.3064
     18 C16         2.3470    0.0535   -0.3870 C.3       1 <0>         0.0168
     19 C17         2.3345    1.3916    0.3645 C.3       1 <0>         0.0184
     20 O2          1.1429    2.0980    0.0024 O.3       1 <0>        -0.3055
     21 N1         -4.6473   -0.1492    0.9155 N.am      1 <0>        -0.7348
     22 C18        -5.6433   -0.8638    1.4757 C.2       1 <0>         0.5016
     23 O3         -5.7486   -2.0482    1.2366 O.2       1 <0>        -0.5023
     24 C19        -6.6259   -0.1912    2.3993 C.3       1 <0>         0.1082
     25 N2         -7.6030   -1.1748    2.8729 N.pl3     1 <0>        -0.3725
     26 C20        -7.8982   -1.4659    4.1516 C.2       1 <0>         0.2550
     27 N3         -8.8207   -2.3937    4.1542 N.2       1 <0>        -0.5420
     28 C21        -9.1323   -2.7246    2.9017 C.2       1 <0>         0.1951
     29 N4         -8.4129   -2.0052    2.0811 N.2       1 <0>        -0.2883
     30 H2         -7.5235   -1.8469   -6.3815 H         1 <0>         0.1198
     31 H3         -5.8501   -3.5153   -5.6892 H         1 <0>         0.1204
     32 H4         -4.9254   -3.4583   -3.4078 H         1 <0>         0.1194
     33 H5         -7.3557   -0.0712   -2.5074 H         1 <0>         0.1167
     34 H6         -8.2727   -0.1218   -4.7921 H         1 <0>         0.1199
     35 H7         -6.2667   -1.3142   -0.7325 H         1 <0>         0.0770
     36 H8         -5.2462   -2.7434   -1.1103 H         1 <0>         0.0766
     37 H9         -3.5141   -1.2476   -2.0904 H         1 <0>         0.0760
     38 H10        -4.5345    0.1816   -1.7125 H         1 <0>         0.0704
     39 H11        -3.3583    1.8754    0.0361 H         1 <0>         0.1320
     40 H12        -1.2469    3.1386    0.0268 H         1 <0>         0.1379
     41 H13        -1.1798   -1.7901   -0.0036 H         1 <0>         0.1368
     42 H14         3.2470   -0.5205   -0.1216 H         1 <0>         0.1261
     43 H15         2.3315    0.2298   -1.4727 H         1 <0>         0.0802
     44 H16         2.3475    1.2036    1.4482 H         1 <0>         0.0805
     45 H17         3.2215    1.9783    0.0835 H         1 <0>         0.1264
     46 H18        -4.5516    0.9249    1.1324 H         1 <0>         0.4198
     47 H19        -6.0883    0.2349    3.2592 H         1 <0>         0.1318
     48 H20        -7.1471    0.6121    1.8580 H         1 <0>         0.1199
     49 H21        -7.4533   -1.0114    5.0245 H         1 <0>         0.2185
     50 H22        -9.8616   -3.4665    2.6116 H         1 <0>         0.2164
@<TRIPOS>BOND
     1    1    6 ar
     2    1    2 ar
     3    1   30 1
     4    2    3 ar
     5    2   31 1
     6    3    4 ar
     7    3   32 1
     8    4    5 ar
     9    4    7 1
    10    5    6 ar
    11    5   33 1
    12    6   34 1
    13    7    8 1
    14    7   35 1
    15    7   36 1
    16    8    9 1
    17    8   37 1
    18    8   38 1
    19    9   10 1
    20    9   11 1
    21    9   21 1
    22   11   16 ar
    23   11   12 ar
    24   12   13 ar
    25   12   39 1
    26   13   14 ar
    27   13   40 1
    28   14   20 1
    29   14   15 ar
    30   15   16 ar
    31   15   17 1
    32   16   41 1
    33   17   18 1
    34   18   19 1
    35   18   42 1
    36   18   43 1
    37   19   20 1
    38   19   44 1
    39   19   45 1
    40   21   22 am
    41   21   46 1
    42   22   23 2
    43   22   24 1
    44   24   25 1
    45   24   47 1
    46   24   48 1
    47   25   29 1
    48   25   26 1
    49   26   27 2
    50   26   49 1
    51   27   28 1
    52   28   29 2
    53   28   50 1
@<TRIPOS>MOLECULE
ZINC19370979
   50    53     0     0     0
SMALL
USER_CHARGES
N-[(1R)-1-(2,3-dihydro-1,4-benzodioxin-6-yl)-3-phenyl-propyl]-2-(1,2,4-triazol-1-yl)acetamide
@<TRIPOS>ATOM
      1 C1         -6.6767   -2.0431    5.6189 C.ar      1 <0>        -0.1248
      2 C2         -7.1429   -1.0160    4.8198 C.ar      1 <0>        -0.1174
      3 C3         -6.7318   -0.9235    3.5032 C.ar      1 <0>        -0.1132
      4 C4         -5.8548   -1.8584    2.9857 C.ar      1 <0>        -0.0821
      5 C5         -5.3931   -2.8888    3.7832 C.ar      1 <0>        -0.1189
      6 C6         -5.7998   -2.9780    5.1013 C.ar      1 <0>        -0.1190
      7 C7         -5.4070   -1.7578    1.5503 C.3       1 <0>        -0.0754
      8 C8         -4.1408   -0.9027    1.4698 C.3       1 <0>        -0.1332
      9 C9         -3.6862   -0.8006    0.0125 C.3       1 <0>         0.2040
     10 H1         -3.5761   -1.7982   -0.4377 H         1 <0>         0.1047
     11 C10        -2.3738   -0.0628   -0.0538 C.ar      1 <0>        -0.0792
     12 C11        -1.9680    0.5185   -1.2407 C.ar      1 <0>        -0.1018
     13 C12        -0.7633    1.1923   -1.3065 C.ar      1 <0>        -0.1132
     14 C13         0.0395    1.2921   -0.1798 C.ar      1 <0>         0.0499
     15 C14        -0.3691    0.7092    1.0137 C.ar      1 <0>         0.0539
     16 C15        -1.5776    0.0311    1.0719 C.ar      1 <0>        -0.0988
     17 O1          0.4028    0.7957    2.1314 O.3       1 <0>        -0.3076
     18 C16         1.7748    1.1573    1.9391 C.3       1 <0>         0.0179
     19 C17         1.8261    2.3522    0.9773 C.3       1 <0>         0.0186
     20 O2          1.2241    1.9576   -0.2604 O.3       1 <0>        -0.3078
     21 N1         -4.6943   -0.0744   -0.7639 N.am      1 <0>        -0.7387
     22 C18        -4.9825    1.2072   -0.4625 C.2       1 <0>         0.4997
     23 O3         -4.3495    1.7856    0.3952 O.2       1 <0>        -0.4889
     24 C19        -6.0915    1.9215   -1.1912 C.3       1 <0>         0.1069
     25 N2         -6.2051    3.2916   -0.6851 N.pl3     1 <0>        -0.3710
     26 C20        -6.1511    4.4243   -1.4071 C.2       1 <0>         0.2544
     27 N3         -6.2951    5.4347   -0.5885 N.2       1 <0>        -0.5421
     28 C21        -6.4345    4.9891    0.6594 C.2       1 <0>         0.1943
     29 N4         -6.3861    3.6829    0.6515 N.2       1 <0>        -0.2884
     30 H2         -6.9973   -2.1149    6.6477 H         1 <0>         0.1204
     31 H3         -7.8280   -0.2856    5.2241 H         1 <0>         0.1207
     32 H4         -7.0960   -0.1210    2.8789 H         1 <0>         0.1186
     33 H5         -4.7114   -3.6217    3.3776 H         1 <0>         0.1202
     34 H6         -5.4353   -3.7803    5.7258 H         1 <0>         0.1209
     35 H7         -5.1950   -2.7645    1.1610 H         1 <0>         0.0716
     36 H8         -6.2025   -1.2925    0.9498 H         1 <0>         0.0710
     37 H9         -4.3529    0.1040    1.8592 H         1 <0>         0.0895
     38 H10        -3.3453   -1.3680    2.0703 H         1 <0>         0.0778
     39 H11        -2.5926    0.4439   -2.1187 H         1 <0>         0.1255
     40 H12        -0.4489    1.6459   -2.2349 H         1 <0>         0.1319
     41 H13        -1.8970   -0.4237    1.9980 H         1 <0>         0.1366
     42 H14         2.2207    1.4316    2.9065 H         1 <0>         0.1240
     43 H15         2.3223    0.3044    1.5116 H         1 <0>         0.0784
     44 H16         1.2738    3.1977    1.4132 H         1 <0>         0.0786
     45 H17         2.8734    2.6448    0.8115 H         1 <0>         0.1247
     46 H18        -5.2160   -0.5752   -1.5928 H         1 <0>         0.4250
     47 H19        -5.8668    1.9457   -2.2677 H         1 <0>         0.1294
     48 H20        -7.0404    1.3899   -1.0266 H         1 <0>         0.1188
     49 H21        -6.0152    4.4888   -2.4765 H         1 <0>         0.2179
     50 H22        -6.5668    5.6069    1.5353 H         1 <0>         0.2157
@<TRIPOS>BOND
     1    1    6 ar
     2    1    2 ar
     3    1   30 1
     4    2    3 ar
     5    2   31 1
     6    3    4 ar
     7    3   32 1
     8    4    5 ar
     9    4    7 1
    10    5    6 ar
    11    5   33 1
    12    6   34 1
    13    7    8 1
    14    7   35 1
    15    7   36 1
    16    8    9 1
    17    8   37 1
    18    8   38 1
    19    9   10 1
    20    9   11 1
    21    9   21 1
    22   11   16 ar
    23   11   12 ar
    24   12   13 ar
    25   12   39 1
    26   13   14 ar
    27   13   40 1
    28   14   20 1
    29   14   15 ar
    30   15   16 ar
    31   15   17 1
    32   16   41 1
    33   17   18 1
    34   18   19 1
    35   18   42 1
    36   18   43 1
    37   19   20 1
    38   19   44 1
    39   19   45 1
    40   21   22 am
    41   21   46 1
    42   22   23 2
    43   22   24 1
    44   24   25 1
    45   24   47 1
    46   24   48 1
    47   25   29 1
    48   25   26 1
    49   26   27 2
    50   26   49 1
    51   27   28 1
    52   28   29 2
    53   28   50 1
@<TRIPOS>MOLECULE
ZINC19402706
   55    58     0     0     0
SMALL
USER_CHARGES
3-imidazol-1-yl-N-[[4-[5-(2-pyridyl)pyrimidin-4-yl]cyclohexyl]methyl]propanamide
@<TRIPOS>ATOM
      1 C1          8.2280    3.5947   -5.3636 C.ar      1 <0>        -0.0700
      2 C2          8.8614    3.7842   -4.1434 C.ar      1 <0>        -0.1672
      3 C3          8.5948    2.9181   -3.0993 C.ar      1 <0>         0.1037
      4 N1          7.7453    1.9217   -3.2471 N.ar      1 <0>        -0.4663
      5 C4          7.1236    1.7028   -4.3982 C.ar      1 <0>         0.1704
      6 C5          7.3451    2.5367   -5.4923 C.ar      1 <0>        -0.1551
      7 C6          6.1802    0.5645   -4.5200 C.ar      1 <0>        -0.1516
      8 C7          6.2917   -0.3514   -5.5696 C.ar      1 <0>         0.1706
      9 N2          5.4267   -1.3481   -5.6436 N.ar      1 <0>        -0.5203
     10 C8          4.4739   -1.4871   -4.7429 C.ar      1 <0>         0.3035
     11 N3          4.3371   -0.6494   -3.7343 N.ar      1 <0>        -0.5120
     12 C9          5.1594    0.3750   -3.5852 C.ar      1 <0>         0.2158
     13 C10         4.9944    1.3269   -2.4286 C.3       1 <0>        -0.0353
     14 C11         5.2985    0.5960   -1.1192 C.3       1 <0>        -0.1061
     15 C12         5.1310    1.5624    0.0550 C.3       1 <0>        -0.1080
     16 C13         3.6932    2.0847    0.0846 C.3       1 <0>        -0.0983
     17 C14         3.3891    2.8155   -1.2247 C.3       1 <0>        -0.1121
     18 C15         3.5566    1.8492   -2.3990 C.3       1 <0>        -0.1131
     19 C16         2.7271    0.9098    0.2491 C.3       1 <0>         0.1190
     20 N4          1.3610    1.4180    0.3972 N.am      1 <0>        -0.7364
     21 C17         0.3357    0.5579    0.5567 C.2       1 <0>         0.5180
     22 O1          0.5439   -0.6367    0.5777 O.2       1 <0>        -0.5414
     23 C18        -1.0703    1.0804    0.7028 C.3       1 <0>        -0.1582
     24 C19        -2.0371   -0.0948    0.8618 C.3       1 <0>         0.1185
     25 N5         -3.4039    0.4132    1.0038 N.pl3     1 <0>        -0.4603
     26 C20        -4.0344    0.7313    2.1763 C.2       1 <0>        -0.0573
     27 C21        -5.2691    1.1596    1.8510 C.2       1 <0>        -0.0292
     28 N6         -5.3923    1.0956    0.5169 N.2       1 <0>        -0.4953
     29 C22        -4.2790    0.6493    0.0027 C.2       1 <0>         0.1811
     30 H1          8.4201    4.2577   -6.1943 H         1 <0>         0.1396
     31 H2          9.5562    4.6003   -4.0107 H         1 <0>         0.1388
     32 H3          9.0860    3.0628   -2.1485 H         1 <0>         0.1609
     33 H4          6.8351    2.3598   -6.4278 H         1 <0>         0.1363
     34 H5          7.0695   -0.2440   -6.3111 H         1 <0>         0.1693
     35 H6          3.7842   -2.3132   -4.8340 H         1 <0>         0.1993
     36 H7          5.6942    2.1653   -2.5604 H         1 <0>         0.0964
     37 H8          4.6038   -0.2487   -1.0009 H         1 <0>         0.0728
     38 H9          6.3322    0.2204   -1.1404 H         1 <0>         0.0698
     39 H10         5.3497    1.0370    0.9963 H         1 <0>         0.0695
     40 H11         5.8256    2.4071   -0.0634 H         1 <0>         0.0704
     41 H12         3.5727    2.7794    0.9289 H         1 <0>         0.0786
     42 H13         2.3554    3.1910   -1.2035 H         1 <0>         0.0648
     43 H14         4.0837    3.6602   -1.3430 H         1 <0>         0.0661
     44 H15         3.3379    2.3747   -3.3403 H         1 <0>         0.0576
     45 H16         2.8620    1.0045   -2.2807 H         1 <0>         0.0807
     46 H17         2.7832    0.2620   -0.6381 H         1 <0>         0.0809
     47 H18         3.0021    0.3314    1.1434 H         1 <0>         0.0651
     48 H19         1.1722    2.5015    0.3782 H         1 <0>         0.4201
     49 H20        -1.1306    1.7275    1.5903 H         1 <0>         0.1014
     50 H21        -1.3411    1.6595   -0.1923 H         1 <0>         0.1021
     51 H22        -1.9767   -0.7419   -0.0257 H         1 <0>         0.1043
     52 H23        -1.7663   -0.6739    1.7569 H         1 <0>         0.1018
     53 H24        -3.6205    0.6558    3.1710 H         1 <0>         0.1735
     54 H25        -6.0287    1.4913    2.5433 H         1 <0>         0.1695
     55 H26        -4.0888    0.4951   -1.0491 H         1 <0>         0.2036
@<TRIPOS>BOND
     1    1    6 ar
     2    1    2 ar
     3    1   30 1
     4    2    3 ar
     5    2   31 1
     6    3    4 ar
     7    3   32 1
     8    4    5 ar
     9    5    6 ar
    10    5    7 1
    11    6   33 1
    12    7   12 ar
    13    7    8 ar
    14    8    9 ar
    15    8   34 1
    16    9   10 ar
    17   10   11 ar
    18   10   35 1
    19   11   12 ar
    20   12   13 1
    21   13   18 1
    22   13   14 1
    23   13   36 1
    24   14   15 1
    25   14   37 1
    26   14   38 1
    27   15   16 1
    28   15   39 1
    29   15   40 1
    30   16   17 1
    31   16   19 1
    32   16   41 1
    33   17   18 1
    34   17   42 1
    35   17   43 1
    36   18   44 1
    37   18   45 1
    38   19   20 1
    39   19   46 1
    40   19   47 1
    41   20   21 am
    42   20   48 1
    43   21   22 2
    44   21   23 1
    45   23   24 1
    46   23   49 1
    47   23   50 1
    48   24   25 1
    49   24   51 1
    50   24   52 1
    51   25   29 1
    52   25   26 1
    53   26   27 2
    54   26   53 1
    55   27   28 1
    56   27   54 1
    57   28   29 2
    58   29   55 1
@<TRIPOS>MOLECULE
ZINC19402706
   56    59     0     0     0
SMALL
USER_CHARGES
3-imidazol-1-yl-N-[[4-[5-(2-pyridyl)pyrimidin-4-yl]cyclohexyl]methyl]propanamide
@<TRIPOS>ATOM
      1 C1          8.2280    3.5947   -5.3636 C.ar      1 <0>        -0.0692
      2 C2          8.8614    3.7842   -4.1434 C.ar      1 <0>        -0.1650
      3 C3          8.5948    2.9181   -3.0993 C.ar      1 <0>         0.1037
      4 N1          7.7453    1.9217   -3.2471 N.ar      1 <0>        -0.4673
      5 C4          7.1236    1.7028   -4.3982 C.ar      1 <0>         0.1666
      6 C5          7.3451    2.5367   -5.4923 C.ar      1 <0>        -0.1546
      7 C6          6.1802    0.5645   -4.5200 C.ar      1 <0>        -0.1480
      8 C7          6.2917   -0.3514   -5.5696 C.ar      1 <0>         0.1720
      9 N2          5.4267   -1.3481   -5.6436 N.ar      1 <0>        -0.5182
     10 C8          4.4739   -1.4871   -4.7429 C.ar      1 <0>         0.3018
     11 N3          4.3371   -0.6494   -3.7343 N.ar      1 <0>        -0.5153
     12 C9          5.1594    0.3750   -3.5852 C.ar      1 <0>         0.2129
     13 C10         4.9944    1.3269   -2.4286 C.3       1 <0>        -0.0357
     14 C11         5.2985    0.5960   -1.1192 C.3       1 <0>        -0.1064
     15 C12         5.1310    1.5624    0.0550 C.3       1 <0>        -0.1097
     16 C13         3.6932    2.0847    0.0846 C.3       1 <0>        -0.0981
     17 C14         3.3891    2.8155   -1.2247 C.3       1 <0>        -0.1123
     18 C15         3.5566    1.8492   -2.3990 C.3       1 <0>        -0.1119
     19 C16         2.7271    0.9098    0.2491 C.3       1 <0>         0.1170
     20 N4          1.3610    1.4180    0.3972 N.am      1 <0>        -0.7289
     21 C17         0.3357    0.5579    0.5567 C.2       1 <0>         0.5157
     22 O1          0.5439   -0.6367    0.5777 O.2       1 <0>        -0.5377
     23 C18        -1.0703    1.0804    0.7028 C.3       1 <0>        -0.1646
     24 C19        -2.0371   -0.0948    0.8618 C.3       1 <0>         0.1052
     25 N5         -3.4039    0.4132    1.0038 N.pl3     1 <0>        -0.4111
     26 C20        -4.0344    0.7313    2.1763 C.2       1 <0>         0.0204
     27 C21        -5.2691    1.1596    1.8510 C.2       1 <0>        -0.0042
     28 N6         -5.3923    1.0956    0.5169 N.pl3     1 <0>        -0.4949
     29 C22        -4.2790    0.6493    0.0027 C.cat     1 <0>         0.2950
     30 H1          8.4201    4.2577   -6.1943 H         1 <0>         0.1406
     31 H2          9.5562    4.6003   -4.0107 H         1 <0>         0.1400
     32 H3          9.0860    3.0628   -2.1485 H         1 <0>         0.1617
     33 H4          6.8351    2.3598   -6.4278 H         1 <0>         0.1364
     34 H5          7.0695   -0.2440   -6.3111 H         1 <0>         0.1707
     35 H6          3.7842   -2.3132   -4.8340 H         1 <0>         0.1986
     36 H7          5.6942    2.1653   -2.5604 H         1 <0>         0.0981
     37 H8          4.6038   -0.2487   -1.0009 H         1 <0>         0.0714
     38 H9          6.3322    0.2204   -1.1404 H         1 <0>         0.0722
     39 H10         5.3497    1.0370    0.9963 H         1 <0>         0.0708
     40 H11         5.8256    2.4071   -0.0634 H         1 <0>         0.0732
     41 H12         3.5727    2.7794    0.9289 H         1 <0>         0.0792
     42 H13         2.3554    3.1910   -1.2035 H         1 <0>         0.0614
     43 H14         4.0837    3.6602   -1.3430 H         1 <0>         0.0689
     44 H15         3.3379    2.3747   -3.3403 H         1 <0>         0.0582
     45 H16         2.8620    1.0045   -2.2807 H         1 <0>         0.0780
     46 H17         2.7832    0.2620   -0.6381 H         1 <0>         0.0852
     47 H18         3.0021    0.3314    1.1434 H         1 <0>         0.0695
     48 H19         1.1722    2.5015    0.3782 H         1 <0>         0.4221
     49 H20        -1.1306    1.7275    1.5903 H         1 <0>         0.1099
     50 H21        -1.3411    1.6595   -0.1923 H         1 <0>         0.1079
     51 H22        -1.9767   -0.7419   -0.0257 H         1 <0>         0.1313
     52 H23        -1.7663   -0.6739    1.7569 H         1 <0>         0.1337
     53 H24        -3.6205    0.6558    3.1710 H         1 <0>         0.2195
     54 H25        -6.0287    1.4913    2.5433 H         1 <0>         0.2217
     55 H26        -4.0888    0.4951   -1.0491 H         1 <0>         0.2567
     56 H27        -6.3343    1.3986    0.0364 H         1 <0>         0.5058
@<TRIPOS>BOND
     1    1    6 ar
     2    1    2 ar
     3    1   30 1
     4    2    3 ar
     5    2   31 1
     6    3    4 ar
     7    3   32 1
     8    4    5 ar
     9    5    6 ar
    10    5    7 1
    11    6   33 1
    12    7   12 ar
    13    7    8 ar
    14    8    9 ar
    15    8   34 1
    16    9   10 ar
    17   10   11 ar
    18   10   35 1
    19   11   12 ar
    20   12   13 1
    21   13   18 1
    22   13   14 1
    23   13   36 1
    24   14   15 1
    25   14   37 1
    26   14   38 1
    27   15   16 1
    28   15   39 1
    29   15   40 1
    30   16   17 1
    31   16   19 1
    32   16   41 1
    33   17   18 1
    34   17   42 1
    35   17   43 1
    36   18   44 1
    37   18   45 1
    38   19   20 1
    39   19   46 1
    40   19   47 1
    41   20   21 am
    42   20   48 1
    43   21   22 2
    44   21   23 1
    45   23   24 1
    46   23   49 1
    47   23   50 1
    48   24   25 1
    49   24   51 1
    50   24   52 1
    51   25   29 1
    52   25   26 1
    53   26   27 2
    54   26   53 1
    55   27   28 1
    56   27   54 1
    57   28   29 2
    58   28   56 1
    59   29   55 1
@<TRIPOS>MOLECULE
ZINC19350021
   38    40     0     0     0
SMALL
USER_CHARGES
N-[2-(4-fluorophenoxy)phenyl]-2-imidazol-1-yl-acetamide
@<TRIPOS>ATOM
      1 C1          0.2523   -2.0358    5.3301 C.ar      1 <0>        -0.0938
      2 C2          0.3006   -3.4048    5.5194 C.ar      1 <0>        -0.1079
      3 C3          0.3081   -4.2570    4.4311 C.ar      1 <0>        -0.1013
      4 C4          0.2622   -3.7405    3.1459 C.ar      1 <0>         0.0598
      5 C5          0.2193   -2.3611    2.9545 C.ar      1 <0>         0.1304
      6 C6          0.2117   -1.5124    4.0518 C.ar      1 <0>        -0.1104
      7 N1          0.1783   -1.8328    1.6575 N.am      1 <0>        -0.6645
      8 C7          0.7925   -0.6643    1.3861 C.2       1 <0>         0.4989
      9 O1          1.3205   -0.0350    2.2786 O.2       1 <0>        -0.5090
     10 C8          0.8234   -0.1395   -0.0263 C.3       1 <0>         0.0750
     11 N2          1.5440    1.1356   -0.0578 N.pl3     1 <0>        -0.4030
     12 C9          0.9981    2.3811    0.0986 C.2       1 <0>         0.0297
     13 C10         2.0100    3.2647    0.0036 C.2       1 <0>        -0.0010
     14 N3          3.1414    2.5781   -0.2143 N.pl3     1 <0>        -0.4911
     15 C11         2.8699    1.3022   -0.2523 C.cat     1 <0>         0.3094
     16 O2          0.2638   -4.5774    2.0745 O.3       1 <0>        -0.2514
     17 C12         1.4594   -4.8801    1.5031 C.ar      1 <0>         0.1048
     18 C13         2.6172   -4.2545    1.9422 C.ar      1 <0>        -0.1655
     19 C14         3.8322   -4.5670    1.3640 C.ar      1 <0>        -0.1184
     20 C15         3.8934   -5.4960    0.3392 C.ar      1 <0>         0.0721
     21 C16         2.7379   -6.1170   -0.1041 C.ar      1 <0>        -0.1133
     22 C17         1.5223   -5.8108    0.4761 C.ar      1 <0>        -0.1121
     23 F1          5.0817   -5.7972   -0.2286 F         1 <0>        -0.1352
     24 H1          0.2459   -1.3740    6.1836 H         1 <0>         0.1370
     25 H2          0.3322   -3.8093    6.5203 H         1 <0>         0.1395
     26 H3          0.3452   -5.3257    4.5824 H         1 <0>         0.1418
     27 H4          0.1736   -0.4428    3.9070 H         1 <0>         0.1443
     28 H5         -0.3552   -2.3718    0.8607 H         1 <0>         0.4488
     29 H6          1.3341   -0.8654   -0.6761 H         1 <0>         0.1549
     30 H7         -0.2058    0.0120   -0.3838 H         1 <0>         0.1583
     31 H8         -0.0434    2.6109    0.2681 H         1 <0>         0.2194
     32 H9          1.9246    4.3383    0.0836 H         1 <0>         0.2234
     33 H10         3.5870    0.5106   -0.4123 H         1 <0>         0.2557
     34 H11         2.5691   -3.5265    2.7386 H         1 <0>         0.1338
     35 H12         4.7343   -4.0837    1.7089 H         1 <0>         0.1386
     36 H13         2.7872   -6.8415   -0.9036 H         1 <0>         0.1484
     37 H14         0.6213   -6.2959    0.1306 H         1 <0>         0.1468
     38 H15         4.0959    3.1128   -0.3283 H         1 <0>         0.5073
@<TRIPOS>BOND
     1    1    6 ar
     2    1    2 ar
     3    1   24 1
     4    2    3 ar
     5    2   25 1
     6    3    4 ar
     7    3   26 1
     8    4    5 ar
     9    4   16 1
    10    5    6 ar
    11    5    7 1
    12    6   27 1
    13    7    8 am
    14    7   28 1
    15    8    9 2
    16    8   10 1
    17   10   11 1
    18   10   29 1
    19   10   30 1
    20   11   15 1
    21   11   12 1
    22   12   13 2
    23   12   31 1
    24   13   14 1
    25   13   32 1
    26   14   15 2
    27   14   38 1
    28   15   33 1
    29   16   17 1
    30   17   22 ar
    31   17   18 ar
    32   18   19 ar
    33   18   34 1
    34   19   20 ar
    35   19   35 1
    36   20   21 ar
    37   20   23 1
    38   21   22 ar
    39   21   36 1
    40   22   37 1
@<TRIPOS>MOLECULE
ZINC19350021
   37    39     0     0     0
SMALL
USER_CHARGES
N-[2-(4-fluorophenoxy)phenyl]-2-imidazol-1-yl-acetamide
@<TRIPOS>ATOM
      1 C1          0.2523   -2.0358    5.3301 C.ar      1 <0>        -0.0927
      2 C2          0.3006   -3.4048    5.5194 C.ar      1 <0>        -0.1195
      3 C3          0.3081   -4.2570    4.4311 C.ar      1 <0>        -0.1024
      4 C4          0.2622   -3.7405    3.1459 C.ar      1 <0>         0.0493
      5 C5          0.2193   -2.3611    2.9545 C.ar      1 <0>         0.1467
      6 C6          0.2117   -1.5124    4.0518 C.ar      1 <0>        -0.1144
      7 N1          0.1783   -1.8328    1.6575 N.am      1 <0>        -0.6792
      8 C7          0.7925   -0.6643    1.3861 C.2       1 <0>         0.4981
      9 O1          1.3205   -0.0350    2.2786 O.2       1 <0>        -0.4990
     10 C8          0.8234   -0.1395   -0.0263 C.3       1 <0>         0.0880
     11 N2          1.5440    1.1356   -0.0578 N.pl3     1 <0>        -0.4498
     12 C9          0.9981    2.3811    0.0986 C.2       1 <0>        -0.0490
     13 C10         2.0100    3.2647    0.0036 C.2       1 <0>        -0.0239
     14 N3          3.1414    2.5781   -0.2143 N.2       1 <0>        -0.4901
     15 C11         2.8699    1.3022   -0.2523 C.2       1 <0>         0.1943
     16 O2          0.2638   -4.5774    2.0745 O.3       1 <0>        -0.2512
     17 C12         1.4594   -4.8801    1.5031 C.ar      1 <0>         0.1076
     18 C13         2.6172   -4.2545    1.9422 C.ar      1 <0>        -0.1614
     19 C14         3.8322   -4.5670    1.3640 C.ar      1 <0>        -0.1150
     20 C15         3.8934   -5.4960    0.3392 C.ar      1 <0>         0.0693
     21 C16         2.7379   -6.1170   -0.1041 C.ar      1 <0>        -0.1156
     22 C17         1.5223   -5.8108    0.4761 C.ar      1 <0>        -0.1156
     23 F1          5.0817   -5.7972   -0.2286 F         1 <0>        -0.1374
     24 H1          0.2459   -1.3740    6.1836 H         1 <0>         0.1339
     25 H2          0.3322   -3.8093    6.5203 H         1 <0>         0.1348
     26 H3          0.3452   -5.3257    4.5824 H         1 <0>         0.1371
     27 H4          0.1736   -0.4428    3.9070 H         1 <0>         0.1459
     28 H5         -0.3552   -2.3718    0.8607 H         1 <0>         0.4423
     29 H6          1.3341   -0.8654   -0.6761 H         1 <0>         0.1297
     30 H7         -0.2058    0.0120   -0.3838 H         1 <0>         0.1285
     31 H8         -0.0434    2.6109    0.2681 H         1 <0>         0.1734
     32 H9          1.9246    4.3383    0.0836 H         1 <0>         0.1711
     33 H10         3.5870    0.5106   -0.4123 H         1 <0>         0.2022
     34 H11         2.5691   -3.5265    2.7386 H         1 <0>         0.1349
     35 H12         4.7343   -4.0837    1.7089 H         1 <0>         0.1391
     36 H13         2.7872   -6.8415   -0.9036 H         1 <0>         0.1457
     37 H14         0.6213   -6.2959    0.1306 H         1 <0>         0.1444
@<TRIPOS>BOND
     1    1    6 ar
     2    1    2 ar
     3    1   24 1
     4    2    3 ar
     5    2   25 1
     6    3    4 ar
     7    3   26 1
     8    4    5 ar
     9    4   16 1
    10    5    6 ar
    11    5    7 1
    12    6   27 1
    13    7    8 am
    14    7   28 1
    15    8    9 2
    16    8   10 1
    17   10   11 1
    18   10   29 1
    19   10   30 1
    20   11   15 1
    21   11   12 1
    22   12   13 2
    23   12   31 1
    24   13   14 1
    25   13   32 1
    26   14   15 2
    27   15   33 1
    28   16   17 1
    29   17   22 ar
    30   17   18 ar
    31   18   19 ar
    32   18   34 1
    33   19   20 ar
    34   19   35 1
    35   20   21 ar
    36   20   23 1
    37   21   22 ar
    38   21   36 1
    39   22   37 1
@<TRIPOS>MOLECULE
ZINC19458660
   45    47     0     0     0
SMALL
USER_CHARGES
N-[(1R)-1-(3-fluoro-4-methoxy-phenyl)ethyl]-2-(1,2,4-triazol-1-ylmethyl)benzamide
@<TRIPOS>ATOM
      1 C1          0.3388    1.2553   -0.4684 C.3       1 <0>        -0.1582
      2 C2         -0.4523    1.6023    0.7944 C.3       1 <0>         0.1957
      3 H1          0.0516    1.2193    1.6940 H         1 <0>         0.0983
      4 C3         -1.8372    1.0162    0.6965 C.ar      1 <0>        -0.0989
      5 C4         -2.8097    1.6635   -0.0431 C.ar      1 <0>        -0.0848
      6 C5         -4.0793    1.1265   -0.1390 C.ar      1 <0>        -0.1762
      7 C6         -4.3818   -0.0577    0.5159 C.ar      1 <0>         0.0977
      8 C7         -3.4053   -0.7042    1.2630 C.ar      1 <0>         0.0761
      9 C8         -2.1345   -0.1647    1.3511 C.ar      1 <0>        -0.1036
     10 F1         -3.6963   -1.8579    1.9028 F         1 <0>        -0.1288
     11 O1         -5.6318   -0.5848    0.4274 O.3       1 <0>        -0.3083
     12 C9         -6.5849    0.1341   -0.3580 C.3       1 <0>         0.0216
     13 N1         -0.5464    3.0583    0.9270 N.am      1 <0>        -0.7354
     14 C10         0.4500    3.7470    1.5179 C.2       1 <0>         0.5627
     15 O2          1.4268    3.1601    1.9409 O.2       1 <0>        -0.5101
     16 C11         0.3550    5.2163    1.6517 C.ar      1 <0>        -0.1000
     17 C12        -0.7059    5.9067    1.0629 C.ar      1 <0>        -0.0916
     18 C13        -0.7914    7.2769    1.1959 C.ar      1 <0>        -0.1144
     19 C14         0.1773    7.9684    1.9018 C.ar      1 <0>        -0.0970
     20 C15         1.2343    7.2910    2.4828 C.ar      1 <0>        -0.1077
     21 C16         1.3286    5.9197    2.3622 C.ar      1 <0>        -0.0576
     22 C17         2.4802    5.1833    2.9966 C.3       1 <0>         0.1591
     23 N2          3.5271    4.9594    1.9966 N.pl3     1 <0>        -0.3581
     24 C18         4.8180    5.3235    2.0862 C.2       1 <0>         0.2415
     25 N3          5.4245    4.9419    0.9916 N.2       1 <0>        -0.5472
     26 C19         4.5556    4.3409    0.1796 C.2       1 <0>         0.1787
     27 N4          3.3801    4.3273    0.7511 N.2       1 <0>        -0.2815
     28 H2          1.3497    1.6831   -0.3969 H         1 <0>         0.0718
     29 H3         -0.1740    1.6712   -1.3482 H         1 <0>         0.0591
     30 H4          0.4095    0.1621   -0.5679 H         1 <0>         0.0673
     31 H5         -2.5755    2.5879   -0.5499 H         1 <0>         0.1304
     32 H6         -4.8367    1.6310   -0.7204 H         1 <0>         0.1412
     33 H7         -1.3742   -0.6664    1.9313 H         1 <0>         0.1457
     34 H8         -7.5472   -0.3986   -0.3449 H         1 <0>         0.1069
     35 H9         -6.2227    0.2115   -1.3938 H         1 <0>         0.0601
     36 H10        -6.7184    1.1427    0.0601 H         1 <0>         0.0598
     37 H11        -1.4304    3.5894    0.5443 H         1 <0>         0.4122
     38 H12        -1.4602    5.3686    0.5080 H         1 <0>         0.1264
     39 H13        -1.6141    7.8118    0.7447 H         1 <0>         0.1317
     40 H14         0.1081    9.0418    1.9992 H         1 <0>         0.1311
     41 H15         1.9871    7.8366    3.0324 H         1 <0>         0.1310
     42 H16         2.8865    5.7821    3.8250 H         1 <0>         0.1029
     43 H17         2.1284    4.2150    3.3822 H         1 <0>         0.1263
     44 H18         5.2753    5.8389    2.9179 H         1 <0>         0.2142
     45 H19         4.7855    3.9309   -0.7927 H         1 <0>         0.2101
@<TRIPOS>BOND
     1    1    2 1
     2    1   28 1
     3    1   29 1
     4    1   30 1
     5    2    3 1
     6    2    4 1
     7    2   13 1
     8    4    9 ar
     9    4    5 ar
    10    5    6 ar
    11    5   31 1
    12    6    7 ar
    13    6   32 1
    14    7    8 ar
    15    7   11 1
    16    8    9 ar
    17    8   10 1
    18    9   33 1
    19   11   12 1
    20   12   34 1
    21   12   35 1
    22   12   36 1
    23   13   14 am
    24   13   37 1
    25   14   15 2
    26   14   16 1
    27   16   21 ar
    28   16   17 ar
    29   17   18 ar
    30   17   38 1
    31   18   19 ar
    32   18   39 1
    33   19   20 ar
    34   19   40 1
    35   20   21 ar
    36   20   41 1
    37   21   22 1
    38   22   23 1
    39   22   42 1
    40   22   43 1
    41   23   27 1
    42   23   24 1
    43   24   25 2
    44   24   44 1
    45   25   26 1
    46   26   27 2
    47   26   45 1
@<TRIPOS>MOLECULE
ZINC19458662
   45    47     0     0     0
SMALL
USER_CHARGES
N-[(1S)-1-(3-fluoro-4-methoxy-phenyl)ethyl]-2-(1,2,4-triazol-1-ylmethyl)benzamide
@<TRIPOS>ATOM
      1 C1         -2.9868    4.5419    1.1947 C.3       1 <0>        -0.1594
      2 C2         -2.3727    4.4077   -0.2002 C.3       1 <0>         0.1933
      3 H1         -3.0589    3.8889   -0.8858 H         1 <0>         0.1031
      4 C3         -2.0496    5.7768   -0.7406 C.ar      1 <0>        -0.1016
      5 C4         -2.9048    6.3820   -1.6428 C.ar      1 <0>        -0.0737
      6 C5         -2.6120    7.6375   -2.1401 C.ar      1 <0>        -0.1757
      7 C6         -1.4588    8.2918   -1.7340 C.ar      1 <0>         0.0993
      8 C7         -0.6005    7.6826   -0.8275 C.ar      1 <0>         0.0753
      9 C8         -0.9014    6.4278   -0.3290 C.ar      1 <0>        -0.1131
     10 F1          0.5238    8.3170   -0.4291 F         1 <0>        -0.1291
     11 O1         -1.1691    9.5273   -2.2217 O.3       1 <0>        -0.3081
     12 C9         -2.0972   10.0925   -3.1497 C.3       1 <0>         0.0211
     13 N1         -1.1449    3.6126   -0.1188 N.am      1 <0>        -0.7307
     14 C10        -1.2096    2.2670   -0.1590 C.2       1 <0>         0.5685
     15 O2         -2.2866    1.7131   -0.2628 O.2       1 <0>        -0.5427
     16 C11         0.0295    1.4646   -0.0769 C.ar      1 <0>        -0.1214
     17 C12         1.2746    2.0958   -0.0746 C.ar      1 <0>        -0.0888
     18 C13         2.4269    1.3410   -0.0035 C.ar      1 <0>        -0.1156
     19 C14         2.3506   -0.0390    0.0660 C.ar      1 <0>        -0.0916
     20 C15         1.1199   -0.6708    0.0637 C.ar      1 <0>        -0.0965
     21 C16        -0.0404    0.0725   -0.0070 C.ar      1 <0>        -0.0485
     22 C17        -1.3802   -0.6174   -0.0084 C.3       1 <0>         0.1608
     23 N2         -1.9814   -0.5191    1.3240 N.pl3     1 <0>        -0.3651
     24 C18        -3.1937   -0.0231    1.6263 C.2       1 <0>         0.2814
     25 N3         -3.3580   -0.1135    2.9211 N.2       1 <0>        -0.5566
     26 C19        -2.2770   -0.6595    3.4768 C.2       1 <0>         0.1938
     27 N4         -1.4082   -0.9301    2.5384 N.2       1 <0>        -0.3247
     28 H2         -3.2226    3.5425    1.5892 H         1 <0>         0.0688
     29 H3         -3.9087    5.1389    1.1336 H         1 <0>         0.0714
     30 H4         -2.2706    5.0407    1.8642 H         1 <0>         0.0599
     31 H5         -3.8032    5.8728   -1.9590 H         1 <0>         0.1371
     32 H6         -3.2808    8.1089   -2.8450 H         1 <0>         0.1424
     33 H7         -0.2370    5.9547    0.3790 H         1 <0>         0.1394
     34 H8         -1.7441   11.0863   -3.4622 H         1 <0>         0.1074
     35 H9         -3.0829   10.1875   -2.6707 H         1 <0>         0.0607
     36 H10        -2.1791    9.4388   -4.0306 H         1 <0>         0.0604
     37 H11        -0.1703    4.1139   -0.0249 H         1 <0>         0.4168
     38 H12         1.3355    3.1727   -0.1288 H         1 <0>         0.1260
     39 H13         3.3908    1.8281   -0.0021 H         1 <0>         0.1326
     40 H14         3.2558   -0.6253    0.1218 H         1 <0>         0.1322
     41 H15         1.0672   -1.7481    0.1178 H         1 <0>         0.1329
     42 H16        -2.0400   -0.1355   -0.7449 H         1 <0>         0.1394
     43 H17        -1.2469   -1.6767   -0.2733 H         1 <0>         0.0903
     44 H18        -3.9074    0.3802    0.9231 H         1 <0>         0.2161
     45 H19        -2.1423   -0.8512    4.5311 H         1 <0>         0.2123
@<TRIPOS>BOND
     1    1    2 1
     2    1   28 1
     3    1   29 1
     4    1   30 1
     5    2    3 1
     6    2    4 1
     7    2   13 1
     8    4    9 ar
     9    4    5 ar
    10    5    6 ar
    11    5   31 1
    12    6    7 ar
    13    6   32 1
    14    7    8 ar
    15    7   11 1
    16    8    9 ar
    17    8   10 1
    18    9   33 1
    19   11   12 1
    20   12   34 1
    21   12   35 1
    22   12   36 1
    23   13   14 am
    24   13   37 1
    25   14   15 2
    26   14   16 1
    27   16   21 ar
    28   16   17 ar
    29   17   18 ar
    30   17   38 1
    31   18   19 ar
    32   18   39 1
    33   19   20 ar
    34   19   40 1
    35   20   21 ar
    36   20   41 1
    37   21   22 1
    38   22   23 1
    39   22   42 1
    40   22   43 1
    41   23   27 1
    42   23   24 1
    43   24   25 2
    44   24   44 1
    45   25   26 1
    46   26   27 2
    47   26   45 1
@<TRIPOS>MOLECULE
ZINC19717389
   56    58     0     0     0
SMALL
USER_CHARGES

@<TRIPOS>ATOM
      1 C1         -0.0187    1.5258    0.0104 C.3       1 <0>        -0.1520
      2 C2          0.0021   -0.0041    0.0020 C.3       1 <0>        -0.0191
      3 C3          0.7421   -0.5109    1.2415 C.3       1 <0>        -0.1414
      4 C4         -1.4333   -0.5336    0.0129 C.3       1 <0>        -0.1431
      5 C5          0.7074   -0.4901   -1.2379 C.ar      1 <0>        -0.1197
      6 C6          1.2168    0.4192   -2.1449 C.ar      1 <0>         0.0124
      7 C7          1.8635   -0.0260   -3.2827 C.ar      1 <0>        -0.7125
      8 C8          2.0028   -1.3819   -3.5159 C.ar      1 <0>         0.0156
      9 C9          1.4958   -2.2950   -2.6121 C.ar      1 <0>        -0.2267
     10 C10         0.8509   -1.8506   -1.4666 C.ar      1 <0>         0.1894
     11 O1          0.3561   -2.7470   -0.5730 O.3       1 <0>        -0.2999
     12 C11         0.5403   -4.1318   -0.8735 C.3       1 <0>         0.0178
     13 S1          2.5109    1.1363   -4.4381 S.o2      1 <0>         2.6926
     14 O2          2.5896    0.4654   -5.6882 O.2       1 <0>        -0.9554
     15 O3          1.7721    2.3374   -4.2632 O.2       1 <0>        -0.9523
     16 N1          4.0675    1.4671   -3.9797 N.pl3     1 <0>        -0.9964
     17 C12         4.3555    2.5630   -3.0444 C.3       1 <0>         0.1155
     18 C13         5.4003    3.4884   -3.6760 C.3       1 <0>        -0.1303
     19 C14         6.6270    2.6667   -4.0785 C.3       1 <0>        -0.1175
     20 C15         6.2220    1.6167   -5.1155 C.3       1 <0>        -0.1167
     21 H1          5.7906    2.1120   -5.9854 H         1 <0>         0.0872
     22 C16         5.1861    0.6665   -4.4959 C.3       1 <0>         0.1253
     23 C17         7.4553    0.8180   -5.5421 C.3       1 <0>         0.1085
     24 N2          8.3951    1.7034   -6.2342 N.pl3     1 <0>        -0.4567
     25 C18         8.4276    1.9625   -7.5778 C.2       1 <0>        -0.0552
     26 C19         9.4412    2.8249   -7.7839 C.2       1 <0>        -0.0294
     27 N3         10.0121    3.0853   -6.5984 N.2       1 <0>        -0.4951
     28 C20         9.3875    2.4209   -5.6649 C.2       1 <0>         0.1814
     29 H2          1.0039    1.9031    0.0027 H         1 <0>         0.0591
     30 H3         -0.5459    1.8868   -0.8726 H         1 <0>         0.0618
     31 H4         -0.5289    1.8773    0.9072 H         1 <0>         0.0646
     32 H5          0.2319   -0.1594    2.1383 H         1 <0>         0.0596
     33 H6          0.7568   -1.6008    1.2356 H         1 <0>         0.0679
     34 H7          1.7647   -0.1336    1.2338 H         1 <0>         0.0522
     35 H8         -1.9605   -0.1726   -0.8702 H         1 <0>         0.0534
     36 H9         -1.4185   -1.6235    0.0069 H         1 <0>         0.0681
     37 H10        -1.9435   -0.1821    0.9097 H         1 <0>         0.0599
     38 H11         1.1093    1.4787   -1.9650 H         1 <0>         0.1490
     39 H12         2.5082   -1.7272   -4.4058 H         1 <0>         0.1409
     40 H13         1.6048   -3.3538   -2.7947 H         1 <0>         0.1391
     41 H14         1.6059   -4.3491   -0.9468 H         1 <0>         0.0598
     42 H15         0.0997   -4.7372   -0.0813 H         1 <0>         0.1058
     43 H16         0.0557   -4.3655   -1.8215 H         1 <0>         0.0603
     44 H17         3.4423    3.1241   -2.8466 H         1 <0>         0.0957
     45 H18         4.7452    2.1546   -2.1120 H         1 <0>         0.0729
     46 H19         4.9766    3.9661   -4.5594 H         1 <0>         0.0699
     47 H20         5.6939    4.2513   -2.9549 H         1 <0>         0.0810
     48 H21         7.3820    3.3268   -4.5057 H         1 <0>         0.0716
     49 H22         7.0356    2.1695   -3.1987 H         1 <0>         0.0690
     50 H23         5.6421    0.1066   -3.6793 H         1 <0>         0.0765
     51 H24         4.8209   -0.0242   -5.2560 H         1 <0>         0.0972
     52 H25         7.9368    0.3947   -4.6606 H         1 <0>         0.0979
     53 H26         7.1531    0.0135   -6.2126 H         1 <0>         0.0970
     54 H27         7.7675    1.5537   -8.3285 H         1 <0>         0.1735
     55 H28         9.7418    3.2350   -8.7368 H         1 <0>         0.1687
     56 H29         9.6264    2.4396   -4.6118 H         1 <0>         0.2014
@<TRIPOS>BOND
     1    1    2 1
     2    1   29 1
     3    1   30 1
     4    1   31 1
     5    2    3 1
     6    2    4 1
     7    2    5 1
     8    3   32 1
     9    3   33 1
    10    3   34 1
    11    4   35 1
    12    4   36 1
    13    4   37 1
    14    5   10 ar
    15    5    6 ar
    16    6    7 ar
    17    6   38 1
    18    7    8 ar
    19    7   13 1
    20    8    9 ar
    21    8   39 1
    22    9   10 ar
    23    9   40 1
    24   10   11 1
    25   11   12 1
    26   12   41 1
    27   12   42 1
    28   12   43 1
    29   13   14 2
    30   13   15 2
    31   13   16 1
    32   16   22 1
    33   16   17 1
    34   17   18 1
    35   17   44 1
    36   17   45 1
    37   18   19 1
    38   18   46 1
    39   18   47 1
    40   19   20 1
    41   19   48 1
    42   19   49 1
    43   20   21 1
    44   20   22 1
    45   20   23 1
    46   22   50 1
    47   22   51 1
    48   23   24 1
    49   23   52 1
    50   23   53 1
    51   24   28 1
    52   24   25 1
    53   25   26 2
    54   25   54 1
    55   26   27 1
    56   26   55 1
    57   27   28 2
    58   28   56 1
@<TRIPOS>MOLECULE
ZINC19717389
   57    59     0     0     0
SMALL
USER_CHARGES

@<TRIPOS>ATOM
      1 C1         -0.0187    1.5258    0.0104 C.3       1 <0>        -0.1518
      2 C2          0.0021   -0.0041    0.0020 C.3       1 <0>        -0.0201
      3 C3          0.7421   -0.5109    1.2415 C.3       1 <0>        -0.1417
      4 C4         -1.4333   -0.5336    0.0129 C.3       1 <0>        -0.1447
      5 C5          0.7074   -0.4901   -1.2379 C.ar      1 <0>        -0.1171
      6 C6          1.2168    0.4192   -2.1449 C.ar      1 <0>         0.0120
      7 C7          1.8635   -0.0260   -3.2827 C.ar      1 <0>        -0.7161
      8 C8          2.0028   -1.3819   -3.5159 C.ar      1 <0>         0.0144
      9 C9          1.4958   -2.2950   -2.6121 C.ar      1 <0>        -0.2265
     10 C10         0.8509   -1.8506   -1.4666 C.ar      1 <0>         0.1940
     11 O1          0.3561   -2.7470   -0.5730 O.3       1 <0>        -0.2978
     12 C11         0.5403   -4.1318   -0.8735 C.3       1 <0>         0.0170
     13 S1          2.5109    1.1363   -4.4381 S.o2      1 <0>         2.6930
     14 O2          2.5896    0.4654   -5.6882 O.2       1 <0>        -0.9549
     15 O3          1.7721    2.3374   -4.2632 O.2       1 <0>        -0.9473
     16 N1          4.0675    1.4671   -3.9797 N.pl3     1 <0>        -0.9988
     17 C12         4.3555    2.5630   -3.0444 C.3       1 <0>         0.1121
     18 C13         5.4003    3.4884   -3.6760 C.3       1 <0>        -0.1316
     19 C14         6.6270    2.6667   -4.0785 C.3       1 <0>        -0.1207
     20 C15         6.2220    1.6167   -5.1155 C.3       1 <0>        -0.1243
     21 H1          5.7906    2.1120   -5.9854 H         1 <0>         0.0970
     22 C16         5.1861    0.6665   -4.4959 C.3       1 <0>         0.1256
     23 C17         7.4553    0.8180   -5.5421 C.3       1 <0>         0.0947
     24 N2          8.3951    1.7034   -6.2342 N.pl3     1 <0>        -0.4039
     25 C18         8.4273    1.9629   -7.5778 C.2       1 <0>         0.0274
     26 C19         9.4410    2.8251   -7.7839 C.2       1 <0>         0.0041
     27 N3         10.0123    3.0850   -6.5985 N.pl3     1 <0>        -0.4761
     28 C20         9.3878    2.4205   -5.6649 C.cat     1 <0>         0.2848
     29 H2          1.0039    1.9031    0.0027 H         1 <0>         0.0576
     30 H3         -0.5459    1.8868   -0.8726 H         1 <0>         0.0618
     31 H4         -0.5289    1.8773    0.9072 H         1 <0>         0.0664
     32 H5          0.2319   -0.1594    2.1383 H         1 <0>         0.0615
     33 H6          0.7568   -1.6008    1.2356 H         1 <0>         0.0684
     34 H7          1.7647   -0.1336    1.2338 H         1 <0>         0.0511
     35 H8         -1.9605   -0.1726   -0.8702 H         1 <0>         0.0540
     36 H9         -1.4185   -1.6235    0.0069 H         1 <0>         0.0687
     37 H10        -1.9435   -0.1821    0.9097 H         1 <0>         0.0620
     38 H11         1.1093    1.4787   -1.9650 H         1 <0>         0.1491
     39 H12         2.5082   -1.7272   -4.4058 H         1 <0>         0.1397
     40 H13         1.6048   -3.3538   -2.7947 H         1 <0>         0.1404
     41 H14         1.6059   -4.3491   -0.9468 H         1 <0>         0.0601
     42 H15         0.0997   -4.7372   -0.0813 H         1 <0>         0.1083
     43 H16         0.0557   -4.3655   -1.8215 H         1 <0>         0.0616
     44 H17         3.4423    3.1241   -2.8466 H         1 <0>         0.1017
     45 H18         4.7452    2.1546   -2.1120 H         1 <0>         0.0768
     46 H19         4.9766    3.9661   -4.5594 H         1 <0>         0.0728
     47 H20         5.6939    4.2513   -2.9549 H         1 <0>         0.0863
     48 H21         7.3820    3.3268   -4.5057 H         1 <0>         0.0580
     49 H22         7.0356    2.1695   -3.1987 H         1 <0>         0.0784
     50 H23         5.6421    0.1066   -3.6793 H         1 <0>         0.0820
     51 H24         4.8209   -0.0242   -5.2560 H         1 <0>         0.1035
     52 H25         7.9368    0.3947   -4.6606 H         1 <0>         0.1258
     53 H26         7.1531    0.0135   -6.2126 H         1 <0>         0.1304
     54 H27         7.7669    1.5544   -8.3284 H         1 <0>         0.2237
     55 H28         9.7414    3.2355   -8.7367 H         1 <0>         0.2240
     56 H29         9.6270    2.4389   -4.6119 H         1 <0>         0.2579
     57 H30        10.7679    3.6765   -6.4569 H         1 <0>         0.4652
@<TRIPOS>BOND
     1    1    2 1
     2    1   29 1
     3    1   30 1
     4    1   31 1
     5    2    3 1
     6    2    4 1
     7    2    5 1
     8    3   32 1
     9    3   33 1
    10    3   34 1
    11    4   35 1
    12    4   36 1
    13    4   37 1
    14    5   10 ar
    15    5    6 ar
    16    6    7 ar
    17    6   38 1
    18    7    8 ar
    19    7   13 1
    20    8    9 ar
    21    8   39 1
    22    9   10 ar
    23    9   40 1
    24   10   11 1
    25   11   12 1
    26   12   41 1
    27   12   42 1
    28   12   43 1
    29   13   14 2
    30   13   15 2
    31   13   16 1
    32   16   22 1
    33   16   17 1
    34   17   18 1
    35   17   44 1
    36   17   45 1
    37   18   19 1
    38   18   46 1
    39   18   47 1
    40   19   20 1
    41   19   48 1
    42   19   49 1
    43   20   21 1
    44   20   22 1
    45   20   23 1
    46   22   50 1
    47   22   51 1
    48   23   24 1
    49   23   52 1
    50   23   53 1
    51   24   28 1
    52   24   25 1
    53   25   26 2
    54   25   54 1
    55   26   27 1
    56   26   55 1
    57   27   28 2
    58   27   57 1
    59   28   56 1
@<TRIPOS>MOLECULE
ZINC19717390
   56    58     0     0     0
SMALL
USER_CHARGES

@<TRIPOS>ATOM
      1 C1         -0.0187    1.5258    0.0104 C.3       1 <0>        -0.1516
      2 C2          0.0021   -0.0041    0.0020 C.3       1 <0>        -0.0187
      3 C3          0.7421   -0.5109    1.2415 C.3       1 <0>        -0.1413
      4 C4         -1.4333   -0.5336    0.0129 C.3       1 <0>        -0.1430
      5 C5          0.7074   -0.4901   -1.2379 C.ar      1 <0>        -0.1193
      6 C6          1.2168    0.4192   -2.1449 C.ar      1 <0>         0.0126
      7 C7          1.8635   -0.0260   -3.2827 C.ar      1 <0>        -0.7126
      8 C8          2.0028   -1.3819   -3.5159 C.ar      1 <0>         0.0154
      9 C9          1.4958   -2.2950   -2.6121 C.ar      1 <0>        -0.2262
     10 C10         0.8509   -1.8506   -1.4666 C.ar      1 <0>         0.1900
     11 O1          0.3561   -2.7470   -0.5730 O.3       1 <0>        -0.2999
     12 C11         0.5403   -4.1318   -0.8735 C.3       1 <0>         0.0179
     13 S1          2.5109    1.1363   -4.4381 S.o2      1 <0>         2.6926
     14 O2          2.5896    0.4654   -5.6882 O.2       1 <0>        -0.9548
     15 O3          1.7721    2.3374   -4.2632 O.2       1 <0>        -0.9523
     16 N1          4.0675    1.4671   -3.9797 N.pl3     1 <0>        -0.9949
     17 C12         4.3556    2.5630   -3.0445 C.3       1 <0>         0.1184
     18 C13         5.1848    2.0124   -1.8801 C.3       1 <0>        -0.1341
     19 C14         6.4294    1.3130   -2.4313 C.3       1 <0>        -0.1151
     20 C15         6.0066    0.1409   -3.3199 C.3       1 <0>        -0.1207
     21 H1          5.4012   -0.5555   -2.7397 H         1 <0>         0.0849
     22 C16         5.1861    0.6665   -4.4959 C.3       1 <0>         0.1279
     23 C17         7.2515   -0.5781   -3.8434 C.3       1 <0>         0.1079
     24 N2          7.9737   -1.1834   -2.7217 N.pl3     1 <0>        -0.4557
     25 C18         8.9561   -0.5919   -1.9741 C.2       1 <0>        -0.0535
     26 C19         9.3427   -1.4956   -1.0536 C.2       1 <0>        -0.0300
     27 N3          8.6162   -2.6085   -1.2341 N.2       1 <0>        -0.4947
     28 C20         7.7906   -2.4271   -2.2283 C.2       1 <0>         0.1807
     29 H2          1.0039    1.9031    0.0027 H         1 <0>         0.0587
     30 H3         -0.5459    1.8868   -0.8726 H         1 <0>         0.0617
     31 H4         -0.5289    1.8773    0.9072 H         1 <0>         0.0644
     32 H5          0.2319   -0.1594    2.1383 H         1 <0>         0.0594
     33 H6          0.7568   -1.6008    1.2356 H         1 <0>         0.0681
     34 H7          1.7647   -0.1336    1.2338 H         1 <0>         0.0518
     35 H8         -1.9605   -0.1726   -0.8702 H         1 <0>         0.0533
     36 H9         -1.4185   -1.6235    0.0069 H         1 <0>         0.0681
     37 H10        -1.9435   -0.1821    0.9097 H         1 <0>         0.0597
     38 H11         1.1093    1.4787   -1.9650 H         1 <0>         0.1481
     39 H12         2.5082   -1.7272   -4.4058 H         1 <0>         0.1399
     40 H13         1.6048   -3.3538   -2.7947 H         1 <0>         0.1388
     41 H14         1.6059   -4.3491   -0.9468 H         1 <0>         0.0601
     42 H15         0.0997   -4.7372   -0.0813 H         1 <0>         0.1059
     43 H16         0.0557   -4.3655   -1.8215 H         1 <0>         0.0602
     44 H17         4.9186    3.3427   -3.5575 H         1 <0>         0.0788
     45 H18         3.4204    2.9746   -2.6647 H         1 <0>         0.0924
     46 H19         5.4868    2.8325   -1.2287 H         1 <0>         0.0798
     47 H20         4.5871    1.2984   -1.3135 H         1 <0>         0.0677
     48 H21         7.0140    2.0213   -3.0184 H         1 <0>         0.0685
     49 H22         7.0338    0.9417   -1.6037 H         1 <0>         0.0714
     50 H23         4.7987   -0.1730   -5.0733 H         1 <0>         0.0944
     51 H24         5.8184    1.2880   -5.1299 H         1 <0>         0.0817
     52 H25         6.9532   -1.3564   -4.5458 H         1 <0>         0.0987
     53 H26         7.8994    0.1382   -4.3485 H         1 <0>         0.0972
     54 H27         9.3463    0.4074   -2.0989 H         1 <0>         0.1724
     55 H28        10.1042   -1.3497   -0.3018 H         1 <0>         0.1681
     56 H29         7.0804   -3.1523   -2.5971 H         1 <0>         0.2010
@<TRIPOS>BOND
     1    1    2 1
     2    1   29 1
     3    1   30 1
     4    1   31 1
     5    2    3 1
     6    2    4 1
     7    2    5 1
     8    3   32 1
     9    3   33 1
    10    3   34 1
    11    4   35 1
    12    4   36 1
    13    4   37 1
    14    5   10 ar
    15    5    6 ar
    16    6    7 ar
    17    6   38 1
    18    7    8 ar
    19    7   13 1
    20    8    9 ar
    21    8   39 1
    22    9   10 ar
    23    9   40 1
    24   10   11 1
    25   11   12 1
    26   12   41 1
    27   12   42 1
    28   12   43 1
    29   13   14 2
    30   13   15 2
    31   13   16 1
    32   16   22 1
    33   16   17 1
    34   17   18 1
    35   17   44 1
    36   17   45 1
    37   18   19 1
    38   18   46 1
    39   18   47 1
    40   19   20 1
    41   19   48 1
    42   19   49 1
    43   20   21 1
    44   20   22 1
    45   20   23 1
    46   22   50 1
    47   22   51 1
    48   23   24 1
    49   23   52 1
    50   23   53 1
    51   24   28 1
    52   24   25 1
    53   25   26 2
    54   25   54 1
    55   26   27 1
    56   26   55 1
    57   27   28 2
    58   28   56 1
@<TRIPOS>MOLECULE
ZINC19717390
   57    59     0     0     0
SMALL
USER_CHARGES

@<TRIPOS>ATOM
      1 C1         -0.0187    1.5258    0.0104 C.3       1 <0>        -0.1527
      2 C2          0.0021   -0.0041    0.0020 C.3       1 <0>        -0.0202
      3 C3          0.7421   -0.5109    1.2415 C.3       1 <0>        -0.1401
      4 C4         -1.4333   -0.5336    0.0129 C.3       1 <0>        -0.1452
      5 C5          0.7074   -0.4901   -1.2379 C.ar      1 <0>        -0.1158
      6 C6          1.2168    0.4192   -2.1449 C.ar      1 <0>         0.0130
      7 C7          1.8635   -0.0260   -3.2827 C.ar      1 <0>        -0.7140
      8 C8          2.0028   -1.3819   -3.5159 C.ar      1 <0>         0.0113
      9 C9          1.4958   -2.2950   -2.6121 C.ar      1 <0>        -0.2288
     10 C10         0.8509   -1.8506   -1.4666 C.ar      1 <0>         0.1910
     11 O1          0.3561   -2.7470   -0.5730 O.3       1 <0>        -0.2981
     12 C11         0.5403   -4.1318   -0.8735 C.3       1 <0>         0.0182
     13 S1          2.5109    1.1363   -4.4381 S.o2      1 <0>         2.6902
     14 O2          2.5896    0.4654   -5.6882 O.2       1 <0>        -0.9506
     15 O3          1.7721    2.3374   -4.2632 O.2       1 <0>        -0.9439
     16 N1          4.0675    1.4671   -3.9797 N.pl3     1 <0>        -0.9962
     17 C12         4.3556    2.5630   -3.0445 C.3       1 <0>         0.1145
     18 C13         5.1848    2.0124   -1.8801 C.3       1 <0>        -0.1349
     19 C14         6.4294    1.3130   -2.4313 C.3       1 <0>        -0.1194
     20 C15         6.0066    0.1409   -3.3199 C.3       1 <0>        -0.1272
     21 H1          5.4012   -0.5555   -2.7397 H         1 <0>         0.0922
     22 C16         5.1861    0.6665   -4.4959 C.3       1 <0>         0.1278
     23 C17         7.2515   -0.5781   -3.8434 C.3       1 <0>         0.0939
     24 N2          7.9737   -1.1834   -2.7217 N.pl3     1 <0>        -0.4034
     25 C18         8.9557   -0.5917   -1.9738 C.2       1 <0>         0.0268
     26 C19         9.3425   -1.4955   -1.0534 C.2       1 <0>         0.0038
     27 N3          8.6164   -2.6086   -1.2343 N.pl3     1 <0>        -0.4761
     28 C20         7.7909   -2.4273   -2.2286 C.cat     1 <0>         0.2865
     29 H2          1.0039    1.9031    0.0027 H         1 <0>         0.0572
     30 H3         -0.5459    1.8868   -0.8726 H         1 <0>         0.0630
     31 H4         -0.5289    1.8773    0.9072 H         1 <0>         0.0670
     32 H5          0.2319   -0.1594    2.1383 H         1 <0>         0.0620
     33 H6          0.7568   -1.6008    1.2356 H         1 <0>         0.0674
     34 H7          1.7647   -0.1336    1.2338 H         1 <0>         0.0489
     35 H8         -1.9605   -0.1726   -0.8702 H         1 <0>         0.0550
     36 H9         -1.4185   -1.6235    0.0069 H         1 <0>         0.0683
     37 H10        -1.9435   -0.1821    0.9097 H         1 <0>         0.0625
     38 H11         1.1093    1.4787   -1.9650 H         1 <0>         0.1496
     39 H12         2.5082   -1.7272   -4.4058 H         1 <0>         0.1392
     40 H13         1.6048   -3.3538   -2.7947 H         1 <0>         0.1385
     41 H14         1.6059   -4.3491   -0.9468 H         1 <0>         0.0566
     42 H15         0.0997   -4.7372   -0.0813 H         1 <0>         0.1081
     43 H16         0.0557   -4.3655   -1.8215 H         1 <0>         0.0622
     44 H17         4.9186    3.3427   -3.5575 H         1 <0>         0.0828
     45 H18         3.4204    2.9746   -2.6647 H         1 <0>         0.0981
     46 H19         5.4868    2.8325   -1.2287 H         1 <0>         0.0861
     47 H20         4.5871    1.2984   -1.3135 H         1 <0>         0.0697
     48 H21         7.0140    2.0213   -3.0184 H         1 <0>         0.0787
     49 H22         7.0338    0.9417   -1.6037 H         1 <0>         0.0628
     50 H23         4.7987   -0.1730   -5.0733 H         1 <0>         0.0998
     51 H24         5.8184    1.2880   -5.1299 H         1 <0>         0.0874
     52 H25         6.9532   -1.3564   -4.5458 H         1 <0>         0.1270
     53 H26         7.8994    0.1382   -4.3485 H         1 <0>         0.1303
     54 H27         9.3457    0.4077   -2.0983 H         1 <0>         0.2224
     55 H28        10.1038   -1.3495   -0.3014 H         1 <0>         0.2236
     56 H29         7.0810   -3.1526   -2.5977 H         1 <0>         0.2582
     57 H30         8.6906   -3.4193   -0.7068 H         1 <0>         0.4651
@<TRIPOS>BOND
     1    1    2 1
     2    1   29 1
     3    1   30 1
     4    1   31 1
     5    2    3 1
     6    2    4 1
     7    2    5 1
     8    3   32 1
     9    3   33 1
    10    3   34 1
    11    4   35 1
    12    4   36 1
    13    4   37 1
    14    5   10 ar
    15    5    6 ar
    16    6    7 ar
    17    6   38 1
    18    7    8 ar
    19    7   13 1
    20    8    9 ar
    21    8   39 1
    22    9   10 ar
    23    9   40 1
    24   10   11 1
    25   11   12 1
    26   12   41 1
    27   12   42 1
    28   12   43 1
    29   13   14 2
    30   13   15 2
    31   13   16 1
    32   16   22 1
    33   16   17 1
    34   17   18 1
    35   17   44 1
    36   17   45 1
    37   18   19 1
    38   18   46 1
    39   18   47 1
    40   19   20 1
    41   19   48 1
    42   19   49 1
    43   20   21 1
    44   20   22 1
    45   20   23 1
    46   22   50 1
    47   22   51 1
    48   23   24 1
    49   23   52 1
    50   23   53 1
    51   24   28 1
    52   24   25 1
    53   25   26 2
    54   25   54 1
    55   26   27 1
    56   26   55 1
    57   27   28 2
    58   27   57 1
    59   28   56 1
@<TRIPOS>MOLECULE
ZINC19720037
   52    55     0     0     0
SMALL
USER_CHARGES
1-[3-[5-(7-methoxy-3,4-dihydro-2H-1,5-benzodioxepin-8-yl)imidazol-1-yl]propyl]-2-methyl-imidazole
@<TRIPOS>ATOM
      1 C1         -6.9693    5.7714    6.7018 C.3       1 <0>        -0.1173
      2 C2         -6.7306    6.5700    5.4463 C.cat     1 <0>         0.3021
      3 N1         -7.6440    7.2040    4.7630 N.pl3     1 <0>        -0.4926
      4 C3         -7.0710    7.8041    3.7091 C.2       1 <0>         0.0155
      5 C4         -5.7516    7.5366    3.7439 C.2       1 <0>         0.0215
      6 N2         -5.5360    6.7489    4.8424 N.pl3     1 <0>        -0.4092
      7 C5         -4.2488    6.2064    5.2840 C.3       1 <0>         0.0923
      8 C6         -4.0818    4.7850    4.7430 C.3       1 <0>        -0.1586
      9 C7         -2.7375    4.2184    5.2042 C.3       1 <0>         0.1046
     10 N3         -2.5776    2.8575    4.6861 N.pl3     1 <0>        -0.4623
     11 C8         -2.8730    1.7049    5.3396 C.2       1 <0>         0.1913
     12 N4         -2.5928    0.6946    4.5615 N.2       1 <0>        -0.4829
     13 C9         -2.1195    1.1455    3.3937 C.2       1 <0>         0.0205
     14 C10        -2.1027    2.5051    3.4433 C.2       1 <0>         0.0201
     15 C11        -1.6558    3.4238    2.3742 C.ar      1 <0>        -0.0465
     16 C12        -0.7649    4.4585    2.6676 C.ar      1 <0>        -0.0744
     17 C13        -0.3575    5.3156    1.6637 C.ar      1 <0>         0.0332
     18 C14        -0.8254    5.1483    0.3663 C.ar      1 <0>         0.1180
     19 C15        -1.7045    4.1202    0.0665 C.ar      1 <0>        -0.2045
     20 C16        -2.1201    3.2547    1.0651 C.ar      1 <0>         0.1611
     21 O1         -2.9827    2.2451    0.7745 O.3       1 <0>        -0.2995
     22 C17        -3.4202    2.1356   -0.5815 C.3       1 <0>         0.0176
     23 O2         -0.4136    6.0046   -0.6136 O.3       1 <0>        -0.3192
     24 C18         0.9627    5.9129   -0.9865 C.3       1 <0>         0.0595
     25 C19         1.8308    6.7431   -0.0540 C.3       1 <0>        -0.1900
     26 C20         1.8145    6.2173    1.3727 C.3       1 <0>         0.0542
     27 O3          0.5088    6.3345    1.9413 O.3       1 <0>        -0.3191
     28 H1         -8.0386    5.8023    6.9582 H         1 <0>         0.1169
     29 H2         -6.3818    6.2008    7.5267 H         1 <0>         0.1199
     30 H3         -6.6617    4.7282    6.5368 H         1 <0>         0.1179
     31 H4         -7.5781    8.4016    2.9660 H         1 <0>         0.2215
     32 H5         -5.0070    7.8763    3.0392 H         1 <0>         0.2210
     33 H6         -3.4341    6.8410    4.9052 H         1 <0>         0.1299
     34 H7         -4.2171    6.1864    6.3834 H         1 <0>         0.1240
     35 H8         -4.8965    4.1504    5.1218 H         1 <0>         0.0872
     36 H9         -4.1135    4.8050    3.6436 H         1 <0>         0.0902
     37 H10        -1.9228    4.8530    4.8254 H         1 <0>         0.1010
     38 H11        -2.7058    4.1983    6.3036 H         1 <0>         0.1077
     39 H12        -3.2702    1.6349    6.3414 H         1 <0>         0.2086
     40 H13        -1.8056    0.5369    2.5585 H         1 <0>         0.1728
     41 H14        -0.3996    4.5905    3.6753 H         1 <0>         0.1393
     42 H15        -2.0654    3.9942   -0.9436 H         1 <0>         0.1476
     43 H16        -4.1093    1.2835   -0.6768 H         1 <0>         0.1093
     44 H17        -2.5501    1.9785   -1.2359 H         1 <0>         0.0632
     45 H18        -3.9379    3.0605   -0.8755 H         1 <0>         0.0584
     46 H19         1.2878    4.8634   -0.9333 H         1 <0>         0.0623
     47 H20         1.0897    6.2844   -2.0140 H         1 <0>         0.1126
     48 H21         2.8713    6.7270   -0.4105 H         1 <0>         0.0977
     49 H22         1.4645    7.7802   -0.0384 H         1 <0>         0.0869
     50 H23         2.1091    5.1575    1.3763 H         1 <0>         0.0598
     51 H24         2.5214    6.7964    1.9850 H         1 <0>         0.1093
     52 H25        -8.6929    7.1814    5.0937 H         1 <0>         0.4995
@<TRIPOS>BOND
     1    1    2 1
     2    1   28 1
     3    1   29 1
     4    1   30 1
     5    2    6 1
     6    2    3 2
     7    3    4 1
     8    3   52 1
     9    4    5 2
    10    4   31 1
    11    5    6 1
    12    5   32 1
    13    6    7 1
    14    7    8 1
    15    7   33 1
    16    7   34 1
    17    8    9 1
    18    8   35 1
    19    8   36 1
    20    9   10 1
    21    9   37 1
    22    9   38 1
    23   10   14 1
    24   10   11 1
    25   11   12 2
    26   11   39 1
    27   12   13 1
    28   13   14 2
    29   13   40 1
    30   14   15 1
    31   15   20 ar
    32   15   16 ar
    33   16   17 ar
    34   16   41 1
    35   17   27 1
    36   17   18 ar
    37   18   19 ar
    38   18   23 1
    39   19   20 ar
    40   19   42 1
    41   20   21 1
    42   21   22 1
    43   22   43 1
    44   22   44 1
    45   22   45 1
    46   23   24 1
    47   24   25 1
    48   24   46 1
    49   24   47 1
    50   25   26 1
    51   25   48 1
    52   25   49 1
    53   26   27 1
    54   26   50 1
    55   26   51 1
@<TRIPOS>MOLECULE
ZINC19720037
   51    54     0     0     0
SMALL
USER_CHARGES
1-[3-[5-(7-methoxy-3,4-dihydro-2H-1,5-benzodioxepin-8-yl)imidazol-1-yl]propyl]-2-methyl-imidazole
@<TRIPOS>ATOM
      1 C1         -6.9693    5.7714    6.7018 C.3       1 <0>        -0.0731
      2 C2         -6.7306    6.5700    5.4463 C.2       1 <0>         0.2050
      3 N1         -7.6440    7.2040    4.7630 N.2       1 <0>        -0.4905
      4 C3         -7.0710    7.8041    3.7091 C.2       1 <0>        -0.0260
      5 C4         -5.7516    7.5366    3.7439 C.2       1 <0>        -0.0569
      6 N2         -5.5360    6.7489    4.8424 N.pl3     1 <0>        -0.4561
      7 C5         -4.2488    6.2064    5.2840 C.3       1 <0>         0.1064
      8 C6         -4.0818    4.7850    4.7430 C.3       1 <0>        -0.1512
      9 C7         -2.7375    4.2184    5.2042 C.3       1 <0>         0.1031
     10 N3         -2.5776    2.8575    4.6861 N.pl3     1 <0>        -0.4554
     11 C8         -2.8730    1.7049    5.3396 C.2       1 <0>         0.1914
     12 N4         -2.5928    0.6946    4.5615 N.2       1 <0>        -0.4892
     13 C9         -2.1195    1.1455    3.3937 C.2       1 <0>         0.0144
     14 C10        -2.1027    2.5051    3.4433 C.2       1 <0>         0.0197
     15 C11        -1.6558    3.4238    2.3742 C.ar      1 <0>        -0.0411
     16 C12        -0.7649    4.4585    2.6676 C.ar      1 <0>        -0.0721
     17 C13        -0.3575    5.3156    1.6637 C.ar      1 <0>         0.0333
     18 C14        -0.8254    5.1483    0.3663 C.ar      1 <0>         0.1152
     19 C15        -1.7045    4.1202    0.0665 C.ar      1 <0>        -0.2041
     20 C16        -2.1201    3.2547    1.0651 C.ar      1 <0>         0.1617
     21 O1         -2.9827    2.2451    0.7745 O.3       1 <0>        -0.2979
     22 C17        -3.4202    2.1356   -0.5815 C.3       1 <0>         0.0184
     23 O2         -0.4136    6.0046   -0.6136 O.3       1 <0>        -0.3178
     24 C18         0.9627    5.9129   -0.9865 C.3       1 <0>         0.0599
     25 C19         1.8308    6.7431   -0.0540 C.3       1 <0>        -0.1895
     26 C20         1.8145    6.2173    1.3727 C.3       1 <0>         0.0542
     27 O3          0.5088    6.3345    1.9413 O.3       1 <0>        -0.3168
     28 H1         -8.0386    5.8023    6.9582 H         1 <0>         0.0946
     29 H2         -6.3818    6.2008    7.5267 H         1 <0>         0.0767
     30 H3         -6.6617    4.7282    6.5368 H         1 <0>         0.0751
     31 H4         -7.5781    8.4016    2.9660 H         1 <0>         0.1701
     32 H5         -5.0070    7.8763    3.0392 H         1 <0>         0.1734
     33 H6         -3.4341    6.8410    4.9052 H         1 <0>         0.0984
     34 H7         -4.2171    6.1864    6.3834 H         1 <0>         0.0979
     35 H8         -4.8965    4.1504    5.1218 H         1 <0>         0.0817
     36 H9         -4.1135    4.8050    3.6436 H         1 <0>         0.0805
     37 H10        -1.9228    4.8530    4.8254 H         1 <0>         0.0960
     38 H11        -2.7058    4.1983    6.3036 H         1 <0>         0.1037
     39 H12        -3.2702    1.6349    6.3414 H         1 <0>         0.2073
     40 H13        -1.8056    0.5369    2.5585 H         1 <0>         0.1702
     41 H14        -0.3996    4.5905    3.6753 H         1 <0>         0.1395
     42 H15        -2.0654    3.9942   -0.9436 H         1 <0>         0.1465
     43 H16        -4.1093    1.2835   -0.6768 H         1 <0>         0.1076
     44 H17        -2.5501    1.9785   -1.2359 H         1 <0>         0.0603
     45 H18        -3.9379    3.0605   -0.8755 H         1 <0>         0.0594
     46 H19         1.2878    4.8634   -0.9333 H         1 <0>         0.0606
     47 H20         1.0897    6.2844   -2.0140 H         1 <0>         0.1097
     48 H21         2.8713    6.7270   -0.4105 H         1 <0>         0.0944
     49 H22         1.4645    7.7802   -0.0384 H         1 <0>         0.0866
     50 H23         2.1091    5.1575    1.3763 H         1 <0>         0.0583
     51 H24         2.5214    6.7964    1.9850 H         1 <0>         0.1068
@<TRIPOS>BOND
     1    1    2 1
     2    1   28 1
     3    1   29 1
     4    1   30 1
     5    2    6 1
     6    2    3 2
     7    3    4 1
     8    4    5 2
     9    4   31 1
    10    5    6 1
    11    5   32 1
    12    6    7 1
    13    7    8 1
    14    7   33 1
    15    7   34 1
    16    8    9 1
    17    8   35 1
    18    8   36 1
    19    9   10 1
    20    9   37 1
    21    9   38 1
    22   10   14 1
    23   10   11 1
    24   11   12 2
    25   11   39 1
    26   12   13 1
    27   13   14 2
    28   13   40 1
    29   14   15 1
    30   15   20 ar
    31   15   16 ar
    32   16   17 ar
    33   16   41 1
    34   17   27 1
    35   17   18 ar
    36   18   19 ar
    37   18   23 1
    38   19   20 ar
    39   19   42 1
    40   20   21 1
    41   21   22 1
    42   22   43 1
    43   22   44 1
    44   22   45 1
    45   23   24 1
    46   24   25 1
    47   24   46 1
    48   24   47 1
    49   25   26 1
    50   25   48 1
    51   25   49 1
    52   26   27 1
    53   26   50 1
    54   26   51 1
@<TRIPOS>MOLECULE
ZINC19720037
   53    56     0     0     0
SMALL
USER_CHARGES
1-[3-[5-(7-methoxy-3,4-dihydro-2H-1,5-benzodioxepin-8-yl)imidazol-1-yl]propyl]-2-methyl-imidazole
@<TRIPOS>ATOM
      1 C1         -6.9693    5.7714    6.7018 C.3       1 <0>        -0.1171
      2 C2         -6.7306    6.5700    5.4463 C.cat     1 <0>         0.3021
      3 N1         -7.6440    7.2040    4.7630 N.pl3     1 <0>        -0.4891
      4 C3         -7.0710    7.8041    3.7091 C.2       1 <0>         0.0230
      5 C4         -5.7516    7.5366    3.7439 C.2       1 <0>         0.0197
      6 N2         -5.5360    6.7489    4.8424 N.pl3     1 <0>        -0.4157
      7 C5         -4.2488    6.2064    5.2840 C.3       1 <0>         0.0946
      8 C6         -4.0818    4.7850    4.7430 C.3       1 <0>        -0.1647
      9 C7         -2.7375    4.2184    5.2042 C.3       1 <0>         0.0917
     10 N3         -2.5776    2.8575    4.6861 N.pl3     1 <0>        -0.4174
     11 C8         -2.8730    1.7049    5.3396 C.cat     1 <0>         0.2760
     12 N4         -2.5928    0.6946    4.5615 N.pl3     1 <0>        -0.4804
     13 C9         -2.1195    1.1455    3.3937 C.2       1 <0>         0.0397
     14 C10        -2.1027    2.5051    3.4433 C.2       1 <0>         0.1188
     15 C11        -1.6558    3.4238    2.3742 C.ar      1 <0>        -0.1039
     16 C12        -0.7649    4.4585    2.6676 C.ar      1 <0>        -0.0605
     17 C13        -0.3575    5.3156    1.6637 C.ar      1 <0>         0.0390
     18 C14        -0.8254    5.1483    0.3663 C.ar      1 <0>         0.1495
     19 C15        -1.7045    4.1202    0.0665 C.ar      1 <0>        -0.2048
     20 C16        -2.1201    3.2547    1.0651 C.ar      1 <0>         0.1805
     21 O1         -2.9827    2.2451    0.7745 O.3       1 <0>        -0.3118
     22 C17        -3.4202    2.1356   -0.5815 C.3       1 <0>         0.0146
     23 O2         -0.4136    6.0046   -0.6136 O.3       1 <0>        -0.3166
     24 C18         0.9627    5.9129   -0.9865 C.3       1 <0>         0.0599
     25 C19         1.8308    6.7431   -0.0540 C.3       1 <0>        -0.1941
     26 C20         1.8145    6.2173    1.3727 C.3       1 <0>         0.0544
     27 O3          0.5088    6.3345    1.9413 O.3       1 <0>        -0.3165
     28 H1         -8.0386    5.8023    6.9582 H         1 <0>         0.1202
     29 H2         -6.3818    6.2008    7.5267 H         1 <0>         0.1217
     30 H3         -6.6617    4.7282    6.5368 H         1 <0>         0.1136
     31 H4         -7.5781    8.4016    2.9660 H         1 <0>         0.2243
     32 H5         -5.0070    7.8763    3.0392 H         1 <0>         0.2229
     33 H6         -3.4341    6.8410    4.9052 H         1 <0>         0.1344
     34 H7         -4.2171    6.1864    6.3834 H         1 <0>         0.1281
     35 H8         -4.8965    4.1504    5.1218 H         1 <0>         0.0937
     36 H9         -4.1135    4.8050    3.6436 H         1 <0>         0.0990
     37 H10        -1.9228    4.8530    4.8254 H         1 <0>         0.1285
     38 H11        -2.7058    4.1983    6.3036 H         1 <0>         0.1337
     39 H12        -3.2702    1.6349    6.3414 H         1 <0>         0.2607
     40 H13        -1.8056    0.5369    2.5585 H         1 <0>         0.2222
     41 H14        -0.3996    4.5905    3.6753 H         1 <0>         0.1449
     42 H15        -2.0654    3.9942   -0.9436 H         1 <0>         0.1570
     43 H16        -4.1093    1.2835   -0.6768 H         1 <0>         0.1156
     44 H17        -2.5501    1.9785   -1.2359 H         1 <0>         0.0708
     45 H18        -3.9379    3.0605   -0.8755 H         1 <0>         0.0665
     46 H19         1.2878    4.8634   -0.9333 H         1 <0>         0.0654
     47 H20         1.0897    6.2844   -2.0140 H         1 <0>         0.1210
     48 H21         2.8713    6.7270   -0.4105 H         1 <0>         0.1049
     49 H22         1.4645    7.7802   -0.0384 H         1 <0>         0.0918
     50 H23         2.1091    5.1575    1.3763 H         1 <0>         0.0616
     51 H24         2.5214    6.7964    1.9850 H         1 <0>         0.1162
     52 H25        -8.6929    7.1814    5.0937 H         1 <0>         0.5033
     53 H26        -2.7596   -0.3339    4.9140 H         1 <0>         0.5076
@<TRIPOS>BOND
     1    1    2 1
     2    1   28 1
     3    1   29 1
     4    1   30 1
     5    2    6 1
     6    2    3 2
     7    3    4 1
     8    3   52 1
     9    4    5 2
    10    4   31 1
    11    5    6 1
    12    5   32 1
    13    6    7 1
    14    7    8 1
    15    7   33 1
    16    7   34 1
    17    8    9 1
    18    8   35 1
    19    8   36 1
    20    9   10 1
    21    9   37 1
    22    9   38 1
    23   10   14 1
    24   10   11 1
    25   11   12 2
    26   11   39 1
    27   12   13 1
    28   12   53 1
    29   13   14 2
    30   13   40 1
    31   14   15 1
    32   15   20 ar
    33   15   16 ar
    34   16   17 ar
    35   16   41 1
    36   17   27 1
    37   17   18 ar
    38   18   19 ar
    39   18   23 1
    40   19   20 ar
    41   19   42 1
    42   20   21 1
    43   21   22 1
    44   22   43 1
    45   22   44 1
    46   22   45 1
    47   23   24 1
    48   24   25 1
    49   24   46 1
    50   24   47 1
    51   25   26 1
    52   25   48 1
    53   25   49 1
    54   26   27 1
    55   26   50 1
    56   26   51 1
@<TRIPOS>MOLECULE
ZINC12143560
   42    44     0     0     0
SMALL
USER_CHARGES

@<TRIPOS>ATOM
      1 C1         -0.0173    1.4248    0.0099 C.3       1 <0>         0.0213
      2 O1          0.0021   -0.0041    0.0020 O.3       1 <0>        -0.3094
      3 C2          0.6058   -0.6071   -1.0557 C.ar      1 <0>         0.1859
      4 C3          1.1730    0.1607   -2.0624 C.ar      1 <0>        -0.2289
      5 C4          1.7865   -0.4547   -3.1363 C.ar      1 <0>         0.0220
      6 C5          1.8352   -1.8346   -3.2086 C.ar      1 <0>        -0.7175
      7 C6          1.2702   -2.6021   -2.2068 C.ar      1 <0>         0.0183
      8 C7          0.6609   -1.9915   -1.1277 C.ar      1 <0>        -0.1710
      9 S1          2.6179   -2.6165   -4.5800 S.o2      1 <0>         2.6943
     10 O2          2.0512   -3.9154   -4.6847 O.2       1 <0>        -0.9518
     11 O3          2.5875   -1.6833   -5.6512 O.2       1 <0>        -0.9510
     12 N1          4.2112   -2.8262   -4.1801 N.pl3     1 <0>        -1.0006
     13 C8          5.2106   -1.7889   -4.4812 C.3       1 <0>         0.0808
     14 C9          6.3888   -2.4488   -5.2066 C.3       1 <0>         0.0542
     15 O4          6.8453   -3.5674   -4.4423 O.3       1 <0>        -0.3672
     16 C10         5.8739   -4.6045   -4.2854 C.3       1 <0>         0.0642
     17 H1          5.5497   -4.9513   -5.2666 H         1 <0>         0.0752
     18 C11         4.6683   -4.0526   -3.5077 C.3       1 <0>         0.0904
     19 C12         6.4914   -5.7699   -3.5099 C.3       1 <0>         0.1138
     20 N2          7.5700   -6.3665   -4.3017 N.pl3     1 <0>        -0.4576
     21 C13         7.4448   -7.3845   -5.2081 C.2       1 <0>        -0.0635
     22 C14         8.6751   -7.6191   -5.7030 C.2       1 <0>        -0.0269
     23 N3          9.5282   -6.7674   -5.1149 N.2       1 <0>        -0.4995
     24 C15         8.8725   -6.0107   -4.2780 C.2       1 <0>         0.2009
     25 H2          1.0053    1.8021    0.0021 H         1 <0>         0.0614
     26 H3         -0.5445    1.7859   -0.8732 H         1 <0>         0.0618
     27 H4         -0.5275    1.7763    0.9067 H         1 <0>         0.1075
     28 H5          1.1347    1.2385   -2.0068 H         1 <0>         0.1403
     29 H6          2.2283    0.1425   -3.9203 H         1 <0>         0.1428
     30 H7          1.3092   -3.6798   -2.2657 H         1 <0>         0.1469
     31 H8          0.2237   -2.5913   -0.3432 H         1 <0>         0.1435
     32 H9          4.7666   -1.0259   -5.1206 H         1 <0>         0.1064
     33 H10         5.5586   -1.3343   -3.5537 H         1 <0>         0.0824
     34 H11         6.0665   -2.7877   -6.1912 H         1 <0>         0.0598
     35 H12         7.1989   -1.7278   -5.3161 H         1 <0>         0.1131
     36 H13         4.9627   -3.8220   -2.4838 H         1 <0>         0.0860
     37 H14         3.8651   -4.7894   -3.5021 H         1 <0>         0.1081
     38 H15         6.8935   -5.4050   -2.5648 H         1 <0>         0.1070
     39 H16         5.7266   -6.5214   -3.3133 H         1 <0>         0.1122
     40 H17         6.5344   -7.9007   -5.4747 H         1 <0>         0.1732
     41 H18         8.9300   -8.3626   -6.4437 H         1 <0>         0.1683
     42 H19         9.3010   -5.2308   -3.6659 H         1 <0>         0.2029
@<TRIPOS>BOND
     1    1    2 1
     2    1   25 1
     3    1   26 1
     4    1   27 1
     5    2    3 1
     6    3    8 ar
     7    3    4 ar
     8    4    5 ar
     9    4   28 1
    10    5    6 ar
    11    5   29 1
    12    6    7 ar
    13    6    9 1
    14    7    8 ar
    15    7   30 1
    16    8   31 1
    17    9   10 2
    18    9   11 2
    19    9   12 1
    20   12   18 1
    21   12   13 1
    22   13   14 1
    23   13   32 1
    24   13   33 1
    25   14   15 1
    26   14   34 1
    27   14   35 1
    28   15   16 1
    29   16   17 1
    30   16   18 1
    31   16   19 1
    32   18   36 1
    33   18   37 1
    34   19   20 1
    35   19   38 1
    36   19   39 1
    37   20   24 1
    38   20   21 1
    39   21   22 2
    40   21   40 1
    41   22   23 1
    42   22   41 1
    43   23   24 2
    44   24   42 1
@<TRIPOS>MOLECULE
ZINC12143560
   43    45     0     0     0
SMALL
USER_CHARGES

@<TRIPOS>ATOM
      1 C1         -0.0173    1.4248    0.0099 C.3       1 <0>         0.0202
      2 O1          0.0021   -0.0041    0.0020 O.3       1 <0>        -0.3073
      3 C2          0.6258   -0.6184    1.0415 C.ar      1 <0>         0.1911
      4 C3          1.2022    0.1384    2.0513 C.ar      1 <0>        -0.2280
      5 C4          1.8353   -0.4884    3.1070 C.ar      1 <0>         0.0224
      6 C5          1.8951   -1.8688    3.1577 C.ar      1 <0>        -0.7214
      7 C6          1.3218   -2.6253    2.1523 C.ar      1 <0>         0.0171
      8 C7          0.6822   -2.0034    1.0976 C.ar      1 <0>        -0.1707
      9 S1          2.7038   -2.6653    4.5054 S.o2      1 <0>         2.6945
     10 O2          3.0980   -3.9492    4.0411 O.2       1 <0>        -0.9507
     11 O3          3.6322   -1.7279    5.0333 O.2       1 <0>        -0.9461
     12 N1          1.5645   -2.9163    5.6808 N.pl3     1 <0>        -1.0026
     13 C8          1.3097   -1.9034    6.7173 C.3       1 <0>         0.0782
     14 C9          1.3595   -2.5901    8.0870 C.3       1 <0>         0.0565
     15 O4          0.4869   -3.7225    8.0777 O.3       1 <0>        -0.3811
     16 C10         0.8525   -4.7355    7.1375 C.3       1 <0>         0.0573
     17 H1          1.8697   -5.0705    7.3404 H         1 <0>         0.0847
     18 C11         0.7728   -4.1562    5.7159 C.3       1 <0>         0.0913
     19 C12        -0.1095   -5.9187    7.2611 C.3       1 <0>         0.1022
     20 N2          0.0465   -6.5393    8.5789 N.pl3     1 <0>        -0.4072
     21 C13         0.9102   -7.5504    8.9034 C.2       1 <0>         0.0218
     22 C14         0.7276   -7.8142   10.2113 C.2       1 <0>         0.0035
     23 N3         -0.2217   -6.9867   10.6729 N.pl3     1 <0>        -0.4790
     24 C15        -0.6308   -6.2167    9.7019 C.cat     1 <0>         0.3065
     25 H2          1.0053    1.8021    0.0021 H         1 <0>         0.0635
     26 H3         -0.5445    1.7859   -0.8732 H         1 <0>         0.1101
     27 H4         -0.5275    1.7763    0.9067 H         1 <0>         0.0622
     28 H5          1.1564    1.2167    2.0118 H         1 <0>         0.1422
     29 H6          2.2842    0.1003    3.8934 H         1 <0>         0.1428
     30 H7          1.3701   -3.7035    2.1940 H         1 <0>         0.1458
     31 H8          0.2307   -2.5948    0.3148 H         1 <0>         0.1448
     32 H9          2.0734   -1.1273    6.6678 H         1 <0>         0.1122
     33 H10         0.3254   -1.4609    6.5641 H         1 <0>         0.0863
     34 H11         2.3785   -2.9174    8.2934 H         1 <0>         0.0644
     35 H12         1.0383   -1.8893    8.8575 H         1 <0>         0.1190
     36 H13        -0.2646   -3.9366    5.4635 H         1 <0>         0.0908
     37 H14         1.1809   -4.8726    5.0029 H         1 <0>         0.1137
     38 H15        -1.1347   -5.5673    7.1441 H         1 <0>         0.1341
     39 H16         0.1141   -6.6514    6.4857 H         1 <0>         0.1438
     40 H17         1.6045   -8.0424    8.2383 H         1 <0>         0.2233
     41 H18         1.2534   -8.5611   10.7876 H         1 <0>         0.2233
     42 H19        -1.3874   -5.4503    9.7823 H         1 <0>         0.2595
     43 H20        -0.5498   -6.9619   11.5854 H         1 <0>         0.4651
@<TRIPOS>BOND
     1    1    2 1
     2    1   25 1
     3    1   26 1
     4    1   27 1
     5    2    3 1
     6    3    8 ar
     7    3    4 ar
     8    4    5 ar
     9    4   28 1
    10    5    6 ar
    11    5   29 1
    12    6    7 ar
    13    6    9 1
    14    7    8 ar
    15    7   30 1
    16    8   31 1
    17    9   10 2
    18    9   11 2
    19    9   12 1
    20   12   18 1
    21   12   13 1
    22   13   14 1
    23   13   32 1
    24   13   33 1
    25   14   15 1
    26   14   34 1
    27   14   35 1
    28   15   16 1
    29   16   17 1
    30   16   18 1
    31   16   19 1
    32   18   36 1
    33   18   37 1
    34   19   20 1
    35   19   38 1
    36   19   39 1
    37   20   24 1
    38   20   21 1
    39   21   22 2
    40   21   40 1
    41   22   23 1
    42   22   41 1
    43   23   24 2
    44   23   43 1
    45   24   42 1
