@<TRIPOS>MOLECULE
ZINC06722236
   58    61     0     0     0
SMALL
USER_CHARGES
N-[(1S)-1-(1H-indol-3-ylmethyl)-2-oxo-2-(4-pyridylamino)ethyl]-4-methyl-cyclohexane-1-carboxamide
@<TRIPOS>ATOM
      1 C1         -4.7484    6.4244    3.2693 C.3       1 <0>        -0.1456
      2 C2         -6.0404    5.7729    2.7722 C.3       1 <0>        -0.0907
      3 C3         -6.3508    4.5405    3.6241 C.3       1 <0>        -0.1269
      4 C4         -7.6428    3.8890    3.1269 C.3       1 <0>        -0.0969
      5 C5         -7.4726    3.4691    1.6655 C.3       1 <0>        -0.1057
      6 C6         -7.1623    4.7015    0.8136 C.3       1 <0>        -0.1073
      7 C7         -5.8703    5.3530    1.3108 C.3       1 <0>        -0.1214
      8 C8         -6.3382    2.4833    1.5549 C.2       1 <0>         0.5337
      9 O1         -5.7260    2.1495    2.5473 O.2       1 <0>        -0.5323
     10 N1         -6.0038    1.9727    0.3533 N.am      1 <0>        -0.7034
     11 C9         -4.9010    1.0144    0.2458 C.3       1 <0>         0.1389
     12 H1         -4.8807    0.3826    1.1338 H         1 <0>         0.1201
     13 C10        -5.1017    0.1429   -0.9956 C.3       1 <0>        -0.0468
     14 C11        -6.3428   -0.6950   -0.8258 C.2       1 <0>        -0.1786
     15 C12        -6.3986   -1.9558   -0.3685 C.2       1 <0>         0.0666
     16 N2         -7.6963   -2.3895   -0.3530 N.pl3     1 <0>        -0.5926
     17 H2         -7.9867   -3.2681   -0.0622 H         1 <0>         0.4180
     18 C13        -8.5284   -1.3930   -0.8118 C.ar      1 <0>         0.0951
     19 C14        -7.7177   -0.2857   -1.1226 C.ar      1 <0>        -0.0924
     20 C15        -8.2962    0.8827   -1.6214 C.ar      1 <0>        -0.0786
     21 C16        -9.6500    0.9486   -1.7957 C.ar      1 <0>        -0.1389
     22 C17       -10.4546   -0.1389   -1.4852 C.ar      1 <0>        -0.0982
     23 C18        -9.9040   -1.3036   -0.9966 C.ar      1 <0>        -0.1260
     24 C19        -3.5967    1.7604    0.1302 C.2       1 <0>         0.5031
     25 O2         -3.5891    2.9732    0.1370 O.2       1 <0>        -0.4948
     26 N3         -2.4386    1.0799    0.0193 N.am      1 <0>        -0.6714
     27 C20        -1.2233    1.7657    0.0227 C.ar      1 <0>         0.1932
     28 C21        -0.1354    1.2962   -0.7115 C.ar      1 <0>        -0.2035
     29 C22         1.0470    2.0064   -0.6863 C.ar      1 <0>         0.1181
     30 N4          1.1565    3.1129    0.0245 N.ar      1 <0>        -0.4972
     31 C23         0.1515    3.5864    0.7368 C.ar      1 <0>         0.1185
     32 C24        -1.0641    2.9349    0.7649 C.ar      1 <0>        -0.1751
     33 H3         -3.9279    5.7114    3.1894 H         1 <0>         0.0531
     34 H4         -4.5273    7.3023    2.6624 H         1 <0>         0.0519
     35 H5         -4.8697    6.7235    4.3105 H         1 <0>         0.0523
     36 H6         -6.8610    6.4859    2.8521 H         1 <0>         0.0642
     37 H7         -6.4720    4.8396    4.6652 H         1 <0>         0.0565
     38 H8         -5.5302    3.8275    3.5441 H         1 <0>         0.0901
     39 H9         -8.4634    4.6020    3.2069 H         1 <0>         0.0671
     40 H10        -7.8639    3.0110    3.7338 H         1 <0>         0.0662
     41 H11        -8.3931    3.0050    1.3113 H         1 <0>         0.0953
     42 H12        -7.0411    4.4024   -0.2275 H         1 <0>         0.0629
     43 H13        -7.9828    5.4145    0.8936 H         1 <0>         0.0734
     44 H14        -5.6492    6.2310    0.7038 H         1 <0>         0.0609
     45 H15        -5.0497    4.6400    1.2308 H         1 <0>         0.0770
     46 H16        -6.4934    2.2397   -0.4404 H         1 <0>         0.4026
     47 H17        -5.2109    0.7802   -1.8732 H         1 <0>         0.0850
     48 H18        -4.2380   -0.5092   -1.1253 H         1 <0>         0.0902
     49 H19        -5.5455   -2.5412   -0.0589 H         1 <0>         0.1711
     50 H20        -7.6764    1.7330   -1.8649 H         1 <0>         0.1153
     51 H21       -10.0975    1.8542   -2.1777 H         1 <0>         0.1239
     52 H22       -11.5230   -0.0713   -1.6277 H         1 <0>         0.1262
     53 H23       -10.5385   -2.1443   -0.7576 H         1 <0>         0.1202
     54 H24        -2.4500    0.1135   -0.0628 H         1 <0>         0.4131
     55 H25        -0.2184    0.3916   -1.2956 H         1 <0>         0.1377
     56 H26         1.8937    1.6526   -1.2557 H         1 <0>         0.1594
     57 H27         0.2823    4.4957    1.3046 H         1 <0>         0.1586
     58 H28        -1.8826    3.3280    1.3497 H         1 <0>         0.1449
@<TRIPOS>BOND
     1    1    2 1
     2    1   33 1
     3    1   34 1
     4    1   35 1
     5    2    7 1
     6    2    3 1
     7    2   36 1
     8    3    4 1
     9    3   37 1
    10    3   38 1
    11    4    5 1
    12    4   39 1
    13    4   40 1
    14    5    6 1
    15    5    8 1
    16    5   41 1
    17    6    7 1
    18    6   42 1
    19    6   43 1
    20    7   44 1
    21    7   45 1
    22    8    9 2
    23    8   10 am
    24   10   11 1
    25   10   46 1
    26   11   12 1
    27   11   13 1
    28   11   24 1
    29   13   14 1
    30   13   47 1
    31   13   48 1
    32   14   19 1
    33   14   15 2
    34   15   16 1
    35   15   49 1
    36   16   17 1
    37   16   18 1
    38   18   23 ar
    39   18   19 ar
    40   19   20 ar
    41   20   21 ar
    42   20   50 1
    43   21   22 ar
    44   21   51 1
    45   22   23 ar
    46   22   52 1
    47   23   53 1
    48   24   25 2
    49   24   26 am
    50   26   27 1
    51   26   54 1
    52   27   32 ar
    53   27   28 ar
    54   28   29 ar
    55   28   55 1
    56   29   30 ar
    57   29   56 1
    58   30   31 ar
    59   31   32 ar
    60   31   57 1
    61   32   58 1
@<TRIPOS>MOLECULE
ZINC06722241
   58    61     0     0     0
SMALL
USER_CHARGES
N-[(1R)-1-(1H-indol-3-ylmethyl)-2-oxo-2-(4-pyridylamino)ethyl]-4-methyl-cyclohexane-1-carboxamide
@<TRIPOS>ATOM
      1 C1         -1.4072    4.2790    1.9798 C.3       1 <0>        -0.1458
      2 C2         -0.7410    3.7436    0.7108 C.3       1 <0>        -0.0908
      3 C3         -0.5953    2.2240    0.8135 C.3       1 <0>        -0.1270
      4 C4          0.0709    1.6887   -0.4555 C.3       1 <0>        -0.0976
      5 C5         -0.7915    2.0374   -1.6703 C.3       1 <0>        -0.1052
      6 C6         -0.9372    3.5570   -1.7729 C.3       1 <0>        -0.1073
      7 C7         -1.6034    4.0924   -0.5039 C.3       1 <0>        -0.1214
      8 C8         -2.1536    1.4115   -1.5156 C.2       1 <0>         0.5321
      9 O1         -2.4094    0.7515   -0.5308 O.2       1 <0>        -0.5280
     10 N1         -3.0875    1.5852   -2.4717 N.am      1 <0>        -0.7053
     11 C9         -4.4116    0.9767   -2.3214 C.3       1 <0>         0.1391
     12 H1         -4.3142    0.0138   -1.8199 H         1 <0>         0.1214
     13 C10        -5.0383    0.7715   -3.7020 C.3       1 <0>        -0.0460
     14 C11        -4.2247   -0.2312   -4.4790 C.2       1 <0>        -0.1755
     15 C12        -3.2507    0.0427   -5.3612 C.2       1 <0>         0.0658
     16 N2         -2.7372   -1.1210   -5.8656 N.pl3     1 <0>        -0.5926
     17 H2         -2.0222   -1.1777   -6.5186 H         1 <0>         0.4176
     18 C13        -3.3906   -2.1995   -5.3124 C.ar      1 <0>         0.0965
     19 C14        -4.3510   -1.6894   -4.4196 C.ar      1 <0>        -0.0985
     20 C15        -5.1720   -2.5638   -3.7054 C.ar      1 <0>        -0.0744
     21 C16        -5.0382   -3.9130   -3.8776 C.ar      1 <0>        -0.1415
     22 C17        -4.0927   -4.4211   -4.7573 C.ar      1 <0>        -0.0971
     23 C18        -3.2720   -3.5760   -5.4721 C.ar      1 <0>        -0.1287
     24 C19        -5.2912    1.8841   -1.5004 C.2       1 <0>         0.5039
     25 O2         -4.8549    2.9355   -1.0820 O.2       1 <0>        -0.4962
     26 N3         -6.5626    1.5271   -1.2310 N.am      1 <0>        -0.6711
     27 C20        -7.3425    2.3123   -0.3810 C.ar      1 <0>         0.1933
     28 C21        -6.7659    3.0039    0.6830 C.ar      1 <0>        -0.1751
     29 C22        -7.5709    3.7731    1.4976 C.ar      1 <0>         0.1183
     30 N4         -8.8711    3.8502    1.2854 N.ar      1 <0>        -0.4972
     31 C23        -9.4549    3.2065    0.2922 C.ar      1 <0>         0.1181
     32 C24        -8.7193    2.4205   -0.5705 C.ar      1 <0>        -0.2032
     33 H3         -2.3924    3.8263    2.0917 H         1 <0>         0.0534
     34 H4         -0.7928    4.0306    2.8452 H         1 <0>         0.0525
     35 H5         -1.5110    5.3616    1.9067 H         1 <0>         0.0519
     36 H6          0.2442    4.1964    0.5990 H         1 <0>         0.0640
     37 H7         -1.5805    1.7713    0.9253 H         1 <0>         0.0903
     38 H8          0.0191    1.9756    1.6789 H         1 <0>         0.0570
     39 H9          0.1747    0.6061   -0.3824 H         1 <0>         0.0667
     40 H10         1.0561    2.1414   -0.5674 H         1 <0>         0.0669
     41 H11        -0.3169    1.6560   -2.5744 H         1 <0>         0.0933
     42 H12         0.0480    4.0097   -1.8848 H         1 <0>         0.0727
     43 H13        -1.5516    3.8054   -2.6383 H         1 <0>         0.0636
     44 H14        -1.7072    5.1749   -0.5771 H         1 <0>         0.0609
     45 H15        -2.5886    3.6396   -0.3921 H         1 <0>         0.0775
     46 H16        -2.8829    2.1131   -3.2594 H         1 <0>         0.4021
     47 H17        -6.0573    0.4018   -3.5872 H         1 <0>         0.0901
     48 H18        -5.0543    1.7202   -4.2384 H         1 <0>         0.0849
     49 H19        -2.9200    1.0347   -5.6314 H         1 <0>         0.1681
     50 H20        -5.9101   -2.1756   -3.0193 H         1 <0>         0.1195
     51 H21        -5.6733   -4.5891   -3.3244 H         1 <0>         0.1234
     52 H22        -3.9990   -5.4897   -4.8827 H         1 <0>         0.1260
     53 H23        -2.5388   -3.9812   -6.1537 H         1 <0>         0.1201
     54 H24        -6.9355    0.7245   -1.6280 H         1 <0>         0.4137
     55 H25        -5.7031    2.9418    0.8648 H         1 <0>         0.1447
     56 H26        -7.1322    4.3153    2.3221 H         1 <0>         0.1585
     57 H27       -10.5222    3.2959    0.1532 H         1 <0>         0.1595
     58 H28        -9.2034    1.8961   -1.3811 H         1 <0>         0.1380
@<TRIPOS>BOND
     1    1    2 1
     2    1   33 1
     3    1   34 1
     4    1   35 1
     5    2    7 1
     6    2    3 1
     7    2   36 1
     8    3    4 1
     9    3   37 1
    10    3   38 1
    11    4    5 1
    12    4   39 1
    13    4   40 1
    14    5    6 1
    15    5    8 1
    16    5   41 1
    17    6    7 1
    18    6   42 1
    19    6   43 1
    20    7   44 1
    21    7   45 1
    22    8    9 2
    23    8   10 am
    24   10   11 1
    25   10   46 1
    26   11   12 1
    27   11   13 1
    28   11   24 1
    29   13   14 1
    30   13   47 1
    31   13   48 1
    32   14   19 1
    33   14   15 2
    34   15   16 1
    35   15   49 1
    36   16   17 1
    37   16   18 1
    38   18   23 ar
    39   18   19 ar
    40   19   20 ar
    41   20   21 ar
    42   20   50 1
    43   21   22 ar
    44   21   51 1
    45   22   23 ar
    46   22   52 1
    47   23   53 1
    48   24   25 2
    49   24   26 am
    50   26   27 1
    51   26   54 1
    52   27   32 ar
    53   27   28 ar
    54   28   29 ar
    55   28   55 1
    56   29   30 ar
    57   29   56 1
    58   30   31 ar
    59   31   32 ar
    60   31   57 1
    61   32   58 1
