@<TRIPOS>MOLECULE
ZINC00007460
   40    43     0     0     0
SMALL
USER_CHARGES

@<TRIPOS>ATOM
      1 C1          0.0099    1.3100   -0.6665 C.ar      1 <0>        -0.0873
      2 C2          1.1932    2.0449   -0.6736 C.ar      1 <0>        -0.1031
      3 C3          2.3989    1.4389   -0.4755 C.ar      1 <0>        -0.0878
      4 C4          2.4464    0.0575   -0.2619 C.ar      1 <0>        -0.1050
      5 C5          1.2413   -0.6922   -0.2545 C.ar      1 <0>        -0.0366
      6 C6          0.0201   -0.0377   -0.4614 C.ar      1 <0>        -0.1000
      7 C7          1.3338   -2.0791   -0.0357 C.ar      1 <0>         0.0670
      8 N1          2.5164   -2.6188    0.1508 N.ar      1 <0>        -0.2122
      9 N2          3.6082   -1.9490    0.1455 N.ar      1 <0>        -0.3148
     10 C8          3.6557   -0.6424   -0.0488 C.ar      1 <0>         0.3624
     11 N3          4.8682    0.0284   -0.0441 N.pl3     1 <0>        -0.6425
     12 C9          6.0641   -0.6900    0.0467 C.ar      1 <0>         0.1605
     13 C10         6.1747   -1.9364   -0.5565 C.ar      1 <0>        -0.1016
     14 C11         7.3572   -2.6438   -0.4652 C.ar      1 <0>        -0.0857
     15 C12         8.4313   -2.1122    0.2268 C.ar      1 <0>        -0.0509
     16 C13         8.3240   -0.8708    0.8288 C.ar      1 <0>        -0.0880
     17 C14         7.1459   -0.1562    0.7354 C.ar      1 <0>        -0.1365
     18 Cl1         9.9160   -3.0048    0.3406 Cl        1 <0>        -0.0690
     19 C15         0.0926   -2.9335   -0.0150 C.3       1 <0>        -0.0232
     20 C16        -0.1981   -3.4309   -1.4076 C.ar      1 <0>        -0.0363
     21 C17        -0.9979   -2.6976   -2.2706 C.ar      1 <0>        -0.1703
     22 C18        -1.2425   -3.1855   -3.5404 C.ar      1 <0>         0.0995
     23 N4         -0.7257   -4.3333   -3.9331 N.ar      1 <0>        -0.4856
     24 C19         0.0392   -5.0571   -3.1393 C.ar      1 <0>         0.1005
     25 C20         0.3326   -4.6300   -1.8581 C.ar      1 <0>        -0.1573
     26 H1         -0.9311    1.8168   -0.8216 H         1 <0>         0.1364
     27 H2          1.1553    3.1115   -0.8389 H         1 <0>         0.1355
     28 H3          3.3089    2.0205   -0.4838 H         1 <0>         0.1315
     29 H4         -0.9047   -0.5955   -0.4580 H         1 <0>         0.1411
     30 H5          4.8872    0.9963   -0.1038 H         1 <0>         0.4199
     31 H6          5.3365   -2.3519   -1.0962 H         1 <0>         0.1422
     32 H7          7.4438   -3.6128   -0.9340 H         1 <0>         0.1376
     33 H8          9.1638   -0.4583    1.3683 H         1 <0>         0.1380
     34 H9          7.0641    0.8146    1.2016 H         1 <0>         0.1341
     35 H10         0.2476   -3.7836    0.6494 H         1 <0>         0.1044
     36 H11        -0.7500   -2.3417    0.3426 H         1 <0>         0.0975
     37 H12        -1.4246   -1.7571   -1.9546 H         1 <0>         0.1331
     38 H13        -1.8645   -2.6203   -4.2187 H         1 <0>         0.1558
     39 H14         0.4444   -5.9925   -3.4961 H         1 <0>         0.1573
     40 H15         0.9637   -5.2248   -1.2145 H         1 <0>         0.1397
@<TRIPOS>BOND
     1    1    6 ar
     2    1    2 ar
     3    1   26 1
     4    2    3 ar
     5    2   27 1
     6    3    4 ar
     7    3   28 1
     8    4   10 ar
     9    4    5 ar
    10    5    6 ar
    11    5    7 ar
    12    6   29 1
    13    7    8 ar
    14    7   19 1
    15    8    9 ar
    16    9   10 ar
    17   10   11 1
    18   11   12 1
    19   11   30 1
    20   12   17 ar
    21   12   13 ar
    22   13   14 ar
    23   13   31 1
    24   14   15 ar
    25   14   32 1
    26   15   16 ar
    27   15   18 1
    28   16   17 ar
    29   16   33 1
    30   17   34 1
    31   19   20 1
    32   19   35 1
    33   19   36 1
    34   20   25 ar
    35   20   21 ar
    36   21   22 ar
    37   21   37 1
    38   22   23 ar
    39   22   38 1
    40   23   24 ar
    41   24   25 ar
    42   24   39 1
    43   25   40 1
@<TRIPOS>MOLECULE
ZINC24044436
   76    80     0     0     0
SMALL
USER_CHARGES
1-[5-tert-butyl-2-(p-tolyl)pyrazol-3-yl]-3-[4-(2-morpholinoethoxy)-1-naphthyl]urea
@<TRIPOS>ATOM
      1 C1          3.3307    9.5387   -0.3298 C.3       1 <0>        -0.1193
      2 C2          2.0898    8.6848   -0.2813 C.ar      1 <0>        -0.0892
      3 C3          0.9612    9.0673   -0.9828 C.ar      1 <0>        -0.0934
      4 C4         -0.1775    8.2868   -0.9403 C.ar      1 <0>        -0.1062
      5 C5         -0.1884    7.1174   -0.1919 C.ar      1 <0>         0.1564
      6 C6          0.9444    6.7392    0.5163 C.ar      1 <0>        -0.1500
      7 C7          2.0821    7.5207    0.4649 C.ar      1 <0>        -0.0924
      8 N1         -1.3424    6.3233   -0.1469 N.pl3     1 <0>        -0.3448
      9 C8         -1.3788    4.9645   -0.0790 C.2       1 <0>         0.3309
     10 C9         -2.6878    4.5925   -0.0483 C.2       1 <0>        -0.2629
     11 C10        -3.4651    5.7529   -0.1047 C.2       1 <0>         0.1115
     12 N2         -2.6643    6.7861   -0.1672 N.2       1 <0>        -0.2779
     13 C11        -4.9712    5.8052   -0.0954 C.3       1 <0>         0.0134
     14 C12        -5.4824    5.5257    1.3193 C.3       1 <0>        -0.1388
     15 C13        -5.4360    7.1933   -0.5406 C.3       1 <0>        -0.1390
     16 C14        -5.5242    4.7499   -1.0553 C.3       1 <0>        -0.1399
     17 N3         -0.2771    4.1104   -0.0417 N.am      1 <0>        -0.6731
     18 C15        -0.4603    2.7771    0.0314 C.2       1 <0>         0.7165
     19 O1         -1.5862    2.3190    0.0649 O.2       1 <0>        -0.5445
     20 N4          0.6045    1.9516    0.0675 N.am      1 <0>        -0.6819
     21 C16         0.4162    0.5655    0.0407 C.ar      1 <0>         0.1254
     22 C17        -0.6813    0.0024    0.6542 C.ar      1 <0>        -0.0743
     23 C18        -0.8835   -1.3742    0.6299 C.ar      1 <0>        -0.2061
     24 C19         0.0048   -2.2051    0.0082 C.ar      1 <0>         0.1395
     25 C20         1.1426   -1.6672   -0.6254 C.ar      1 <0>        -0.0565
     26 C21         1.3517   -0.2661   -0.6096 C.ar      1 <0>        -0.0251
     27 C22         2.4862    0.2686   -1.2409 C.ar      1 <0>        -0.1232
     28 C23         3.3687   -0.5639   -1.8588 C.ar      1 <0>        -0.0971
     29 C24         3.1636   -1.9422   -1.8742 C.ar      1 <0>        -0.1313
     30 C25         2.0750   -2.4951   -1.2724 C.ar      1 <0>        -0.0739
     31 O2         -0.2080   -3.5475    0.0012 O.3       1 <0>        -0.2916
     32 C26        -1.3823   -4.0216    0.6634 C.3       1 <0>         0.0605
     33 C27        -1.4510   -5.5459    0.5508 C.3       1 <0>         0.0539
     34 N5         -0.3065   -6.1409    1.2538 N.3       1 <0>        -0.5287
     35 C28        -0.1978   -7.5776    0.9617 C.3       1 <0>         0.0167
     36 C29         1.0390   -8.1436    1.6645 C.3       1 <0>         0.0615
     37 O3          0.9456   -7.8818    3.0674 O.3       1 <0>        -0.3849
     38 C30         0.8389   -6.4921    3.3879 C.3       1 <0>         0.0625
     39 C31        -0.3999   -5.9094    2.7026 C.3       1 <0>         0.0120
     40 H1          3.1476   10.4156   -0.9682 H         1 <0>         0.0687
     41 H2          4.1639    8.9515   -0.7434 H         1 <0>         0.0732
     42 H3          3.5863    9.8722    0.6868 H         1 <0>         0.0734
     43 H4          0.9703    9.9770   -1.5648 H         1 <0>         0.1335
     44 H5         -1.0587    8.5861   -1.4884 H         1 <0>         0.1355
     45 H6          0.9374    5.8324    1.1029 H         1 <0>         0.1262
     46 H7          2.9651    7.2245    1.0118 H         1 <0>         0.1343
     47 H8         -3.0598    3.5802    0.0092 H         1 <0>         0.1784
     48 H9         -6.5817    5.5639    1.3261 H         1 <0>         0.0656
     49 H10        -5.0849    6.2845    2.0094 H         1 <0>         0.0565
     50 H11        -5.1481    4.5278    1.6395 H         1 <0>         0.0614
     51 H12        -6.5353    7.2315   -0.5338 H         1 <0>         0.0604
     52 H13        -5.0684    7.3943   -1.5577 H         1 <0>         0.0568
     53 H14        -5.0385    7.9519    0.1496 H         1 <0>         0.0614
     54 H15        -6.6235    4.7882   -1.0484 H         1 <0>         0.0647
     55 H16        -5.1900    3.7520   -0.7351 H         1 <0>         0.0637
     56 H17        -5.1566    4.9509   -2.0724 H         1 <0>         0.0570
     57 H18         0.7414    4.5248   -0.0719 H         1 <0>         0.4294
     58 H19         1.6215    2.3677    0.1180 H         1 <0>         0.4280
     59 H20        -1.3959    0.6376    1.1566 H         1 <0>         0.1450
     60 H21        -1.7537   -1.7925    1.1139 H         1 <0>         0.1296
     61 H22         2.6580    1.3348   -1.2361 H         1 <0>         0.1222
     62 H23         4.2405   -0.1501   -2.3437 H         1 <0>         0.1243
     63 H24         3.8790   -2.5810   -2.3706 H         1 <0>         0.1250
     64 H25         1.9286   -3.5650   -1.2926 H         1 <0>         0.1353
     65 H26        -1.3465   -3.7335    1.7244 H         1 <0>         0.0659
     66 H27        -2.2726   -3.5787    0.1931 H         1 <0>         0.0716
     67 H28        -2.3868   -5.9052    1.0039 H         1 <0>         0.0605
     68 H29        -1.4216   -5.8370   -0.5096 H         1 <0>         0.0912
     69 H30        -1.0977   -8.0949    1.3258 H         1 <0>         0.0437
     70 H31        -0.1044   -7.7249   -0.1244 H         1 <0>         0.0891
     71 H32         1.0925   -9.2291    1.4949 H         1 <0>         0.1001
     72 H33         1.9424   -7.6643    1.2595 H         1 <0>         0.0618
     73 H34         0.7475   -6.3731    4.4776 H         1 <0>         0.0994
     74 H35         1.7375   -5.9645    3.0355 H         1 <0>         0.0616
     75 H36        -0.4553   -4.8284    2.8983 H         1 <0>         0.0869
     76 H37        -1.3031   -6.3997    3.0948 H         1 <0>         0.0443
@<TRIPOS>BOND
     1    1    2 1
     2    1   40 1
     3    1   41 1
     4    1   42 1
     5    2    7 ar
     6    2    3 ar
     7    3    4 ar
     8    3   43 1
     9    4    5 ar
    10    4   44 1
    11    5    6 ar
    12    5    8 1
    13    6    7 ar
    14    6   45 1
    15    7   46 1
    16    8   12 1
    17    8    9 1
    18    9   10 2
    19    9   17 1
    20   10   11 1
    21   10   47 1
    22   11   12 2
    23   11   13 1
    24   13   14 1
    25   13   15 1
    26   13   16 1
    27   14   48 1
    28   14   49 1
    29   14   50 1
    30   15   51 1
    31   15   52 1
    32   15   53 1
    33   16   54 1
    34   16   55 1
    35   16   56 1
    36   17   18 am
    37   17   57 1
    38   18   19 2
    39   18   20 am
    40   20   21 1
    41   20   58 1
    42   21   26 ar
    43   21   22 ar
    44   22   23 ar
    45   22   59 1
    46   23   24 ar
    47   23   60 1
    48   24   25 ar
    49   24   31 1
    50   25   30 ar
    51   25   26 ar
    52   26   27 ar
    53   27   28 ar
    54   27   61 1
    55   28   29 ar
    56   28   62 1
    57   29   30 ar
    58   29   63 1
    59   30   64 1
    60   31   32 1
    61   32   33 1
    62   32   65 1
    63   32   66 1
    64   33   34 1
    65   33   67 1
    66   33   68 1
    67   34   39 1
    68   34   35 1
    69   35   36 1
    70   35   69 1
    71   35   70 1
    72   36   37 1
    73   36   71 1
    74   36   72 1
    75   37   38 1
    76   38   39 1
    77   38   73 1
    78   38   74 1
    79   39   75 1
    80   39   76 1
@<TRIPOS>MOLECULE
ZINC13493055
   37    40     0     0     0
SMALL
USER_CHARGES
5-(2,6-dichlorophenyl)-2-(2,4-difluorophenyl)sulfanyl-pyrimido[6,1-f]pyridazin-6-one
@<TRIPOS>ATOM
      1 C1          0.7819    4.3410    0.0524 C.ar      1 <0>        -0.0865
      2 C2         -0.4275    5.0027   -0.0644 C.ar      1 <0>        -0.1052
      3 C3         -1.6103    4.2903   -0.0692 C.ar      1 <0>        -0.0078
      4 C4         -1.5836    2.8981    0.0381 C.ar      1 <0>        -0.0051
      5 C5         -0.3594    2.2372    0.1611 C.ar      1 <0>        -0.0079
      6 C6          0.8156    2.9624    0.1649 C.ar      1 <0>        -0.1052
      7 Cl1        -0.3147    0.5075    0.3018 Cl        1 <0>        -0.0496
      8 C7         -2.8461    2.1276    0.0266 C.2       1 <0>        -0.1962
      9 C8         -3.3978    1.6608   -1.1750 C.2       1 <0>         0.1634
     10 C9         -2.7630    1.9018   -2.4066 C.2       1 <0>        -0.0494
     11 C10        -3.3310    1.4261   -3.5469 C.2       1 <0>        -0.1079
     12 C11        -4.5373    0.6985   -3.4809 C.2       1 <0>         0.1181
     13 N1         -5.1260    0.4712   -2.3297 N.2       1 <0>        -0.2574
     14 N2         -4.5673    0.9472   -1.1371 N.pl3     1 <0>        -0.3270
     15 C12        -5.1778    0.7109    0.0511 C.2       1 <0>         0.4228
     16 N3         -4.6823    1.1412    1.1775 N.2       1 <0>        -0.5427
     17 C13        -3.5381    1.8434    1.2263 C.2       1 <0>         0.5151
     18 O1         -3.0989    2.2338    2.2995 O.2       1 <0>        -0.4890
     19 S1         -5.2649    0.0865   -4.9643 S.3       1 <0>         0.1498
     20 C14        -6.6196   -0.8905   -4.4031 C.ar      1 <0>        -0.2138
     21 C15        -7.9169   -0.4067   -4.5085 C.ar      1 <0>         0.0058
     22 C16        -8.9776   -1.1741   -4.0680 C.ar      1 <0>        -0.1725
     23 C17        -8.7491   -2.4257   -3.5211 C.ar      1 <0>         0.1750
     24 C18        -7.4569   -2.9119   -3.4142 C.ar      1 <0>        -0.2011
     25 C19        -6.3919   -2.1502   -3.8590 C.ar      1 <0>         0.1941
     26 F1         -5.1316   -2.6265   -3.7599 F         1 <0>        -0.1130
     27 F2         -9.7887   -3.1735   -3.0908 F         1 <0>        -0.1191
     28 Cl2        -3.1267    5.1227   -0.2165 Cl        1 <0>        -0.0501
     29 H1          1.7040    4.9031    0.0556 H         1 <0>         0.1468
     30 H2         -0.4464    6.0789   -0.1525 H         1 <0>         0.1450
     31 H3          1.7632    2.4523    0.2554 H         1 <0>         0.1450
     32 H4         -1.8394    2.4601   -2.4465 H         1 <0>         0.1694
     33 H5         -2.8589    1.6049   -4.5017 H         1 <0>         0.1688
     34 H6         -6.1009    0.1504    0.0642 H         1 <0>         0.2171
     35 H7         -8.0965    0.5691   -4.9351 H         1 <0>         0.1572
     36 H8         -9.9865   -0.7976   -4.1504 H         1 <0>         0.1548
     37 H9         -7.2812   -3.8884   -2.9877 H         1 <0>         0.1586
@<TRIPOS>BOND
     1    1    6 ar
     2    1    2 ar
     3    1   29 1
     4    2    3 ar
     5    2   30 1
     6    3    4 ar
     7    3   28 1
     8    4    5 ar
     9    4    8 1
    10    5    6 ar
    11    5    7 1
    12    6   31 1
    13    8   17 1
    14    8    9 2
    15    9   14 1
    16    9   10 1
    17   10   11 2
    18   10   32 1
    19   11   12 1
    20   11   33 1
    21   12   13 2
    22   12   19 1
    23   13   14 1
    24   14   15 1
    25   15   16 2
    26   15   34 1
    27   16   17 1
    28   17   18 2
    29   19   20 1
    30   20   25 ar
    31   20   21 ar
    32   21   22 ar
    33   21   35 1
    34   22   23 ar
    35   22   36 1
    36   23   24 ar
    37   23   27 1
    38   24   25 ar
    39   24   37 1
    40   25   26 1
@<TRIPOS>MOLECULE
ZINC03966243
   84    88     0     0     0
SMALL
USER_CHARGES
N-(4-isopropoxyphenyl)-4-[6-methoxy-7-[3-(1-piperidyl)propoxy]quinazolin-4-yl]-piperazine-1-carboxamide
@<TRIPOS>ATOM
      1 C1          6.7701    4.5264   -1.2575 C.3       1 <0>        -0.1499
      2 C2          6.4967    3.0958   -0.7889 C.3       1 <0>         0.0769
      3 C3          7.4744    2.7298    0.3295 C.3       1 <0>        -0.1825
      4 O1          5.1571    3.0025   -0.3001 O.3       1 <0>        -0.3102
      5 C4          4.5717    1.7757   -0.3338 C.ar      1 <0>         0.1230
      6 C5          5.3083    0.6665   -0.7228 C.ar      1 <0>        -0.1923
      7 C6          4.7144   -0.5798   -0.7568 C.ar      1 <0>        -0.0743
      8 C7          3.3799   -0.7224   -0.4016 C.ar      1 <0>         0.1159
      9 C8          2.6432    0.3881   -0.0124 C.ar      1 <0>        -0.1027
     10 C9          3.2383    1.6338    0.0213 C.ar      1 <0>        -0.1355
     11 N1          2.7765   -1.9869   -0.4364 N.am      1 <0>        -0.6831
     12 C10         3.4836   -3.0808   -0.0903 C.2       1 <0>         0.7095
     13 O2          4.6669   -2.9820    0.1717 O.2       1 <0>        -0.5659
     14 N2          2.8793   -4.2842   -0.0346 N.am      1 <0>        -0.6302
     15 C11         1.4784   -4.4454   -0.4527 C.3       1 <0>         0.1163
     16 C12         1.4049   -5.6100   -1.4530 C.3       1 <0>         0.0464
     17 N3          2.0146   -6.8039   -0.8522 N.pl3     1 <0>        -0.4805
     18 C13         3.4424   -6.5929   -0.5788 C.3       1 <0>         0.0482
     19 C14         3.6012   -5.4698    0.4515 C.3       1 <0>         0.1328
     20 C15         1.8226   -7.9122   -1.6510 C.ar      1 <0>         0.3962
     21 C16         0.6195   -8.6545   -1.5866 C.ar      1 <0>        -0.1386
     22 C17        -0.4268   -8.2967   -0.7272 C.ar      1 <0>        -0.1287
     23 C18        -1.5707   -9.0425   -0.7073 C.ar      1 <0>         0.1093
     24 C19        -1.7117  -10.1606   -1.5416 C.ar      1 <0>         0.1588
     25 C20        -0.6998  -10.5302   -2.3993 C.ar      1 <0>        -0.1794
     26 C21         0.4818   -9.7794   -2.4366 C.ar      1 <0>         0.1794
     27 N4          1.4973  -10.0975   -3.2547 N.ar      1 <0>        -0.5194
     28 C22         2.5920   -9.3751   -3.2679 C.ar      1 <0>         0.3256
     29 N5          2.7631   -8.3137   -2.4959 N.ar      1 <0>        -0.5577
     30 O3         -2.8592  -10.8868   -1.5038 O.3       1 <0>        -0.2941
     31 C23        -2.9427  -12.0141   -2.3780 C.3       1 <0>         0.0564
     32 C24        -4.2971  -12.7020   -2.1952 C.3       1 <0>        -0.1506
     33 C25        -4.3865  -13.9090   -3.1312 C.3       1 <0>        -0.0020
     34 C26        -5.8040  -15.1525   -1.6130 C.3       1 <0>        -0.0079
     35 C27        -7.2186  -15.7022   -1.4158 C.3       1 <0>        -0.1471
     36 C28        -7.5007  -16.7656   -2.4807 C.3       1 <0>        -0.1398
     37 C29        -7.3247  -16.1452   -3.8695 C.3       1 <0>        -0.1477
     38 C30        -5.9070  -15.5827   -3.9956 C.3       1 <0>        -0.0015
     39 O4         -2.5839   -8.6973    0.1313 O.3       1 <0>        -0.3038
     40 C31        -2.3802   -7.5484    0.9564 C.3       1 <0>         0.0216
     41 H1          6.6397    5.2137   -0.4216 H         1 <0>         0.0680
     42 H2          7.7918    4.5976   -1.6304 H         1 <0>         0.0781
     43 H3          6.0735    4.7871   -2.0543 H         1 <0>         0.0652
     44 H4          6.6271    2.4085   -1.6248 H         1 <0>         0.0735
     45 H5          7.2796    1.7107    0.6634 H         1 <0>         0.0633
     46 H6          8.4962    2.8010   -0.0433 H         1 <0>         0.0733
     47 H7          7.3440    3.4171    1.1654 H         1 <0>         0.0686
     48 H8          6.3476    0.7769   -0.9947 H         1 <0>         0.1332
     49 H9          5.2879   -1.4432   -1.0601 H         1 <0>         0.1408
     50 H10         1.6050    0.2778    0.2637 H         1 <0>         0.1308
     51 H11         2.6653    2.4978    0.3240 H         1 <0>         0.1354
     52 H12         1.8499   -2.0748   -0.7096 H         1 <0>         0.4030
     53 H13         0.8598   -4.6663    0.4171 H         1 <0>         0.0856
     54 H14         1.1308   -3.5290   -0.9296 H         1 <0>         0.0889
     55 H15         1.9431   -5.3458   -2.3633 H         1 <0>         0.0616
     56 H16         0.3620   -5.8162   -1.6938 H         1 <0>         0.0941
     57 H17         3.9521   -6.3150   -1.5013 H         1 <0>         0.0689
     58 H18         3.8770   -7.5117   -0.1852 H         1 <0>         0.0954
     59 H19         4.6578   -5.2309    0.5728 H         1 <0>         0.1082
     60 H20         3.1850   -5.7851    1.4083 H         1 <0>         0.0782
     61 H21        -0.3280   -7.4373   -0.0806 H         1 <0>         0.1573
     62 H22        -0.8167  -11.3925   -3.0389 H         1 <0>         0.1519
     63 H23         3.3895   -9.6593   -3.9384 H         1 <0>         0.1992
     64 H24        -2.8407  -11.6812   -3.4109 H         1 <0>         0.0778
     65 H25        -2.1435  -12.7168   -2.1421 H         1 <0>         0.0777
     66 H26        -4.3991  -13.0349   -1.1623 H         1 <0>         0.1002
     67 H27        -5.0963  -11.9993   -2.4311 H         1 <0>         0.1003
     68 H28        -4.2845  -13.5761   -4.1641 H         1 <0>         0.1340
     69 H29        -3.5873  -14.6117   -2.8953 H         1 <0>         0.1355
     70 H30        -5.0816  -15.9614   -1.5040 H         1 <0>         0.1310
     71 H31        -5.6051  -14.3849   -0.8651 H         1 <0>         0.1299
     72 H32        -7.9407  -14.8913   -1.5110 H         1 <0>         0.0877
     73 H33        -7.3012  -16.1486   -0.4248 H         1 <0>         0.1122
     74 H34        -8.5225  -17.1289   -2.3709 H         1 <0>         0.0942
     75 H35        -6.8042  -17.5956   -2.3615 H         1 <0>         0.0818
     76 H36        -8.0484  -15.3413   -4.0033 H         1 <0>         0.0877
     77 H37        -7.4825  -16.9083   -4.6316 H         1 <0>         0.1125
     78 H38        -5.7830  -15.1275   -4.9782 H         1 <0>         0.1289
     79 H39        -5.1842  -16.3896   -3.8752 H         1 <0>         0.1307
     80 H40        -3.2625   -7.3845    1.5752 H         1 <0>         0.1075
     81 H41        -1.5126   -7.7098    1.5962 H         1 <0>         0.0622
     82 H42        -2.2103   -6.6748    0.3272 H         1 <0>         0.0599
     83 N6         -5.7075  -14.5479   -2.9586 N.4       1 <0>        -0.3926
     84 H43        -6.4386  -13.8336   -3.0559 H         1 <0>         0.4277
@<TRIPOS>BOND
     1    1    2 1
     2    1   41 1
     3    1   42 1
     4    1   43 1
     5    2    3 1
     6    2    4 1
     7    2   44 1
     8    3   45 1
     9    3   46 1
    10    3   47 1
    11    4    5 1
    12    5   10 ar
    13    5    6 ar
    14    6    7 ar
    15    6   48 1
    16    7    8 ar
    17    7   49 1
    18    8    9 ar
    19    8   11 1
    20    9   10 ar
    21    9   50 1
    22   10   51 1
    23   11   12 am
    24   11   52 1
    25   12   13 2
    26   12   14 am
    27   14   19 1
    28   14   15 1
    29   15   16 1
    30   15   53 1
    31   15   54 1
    32   16   17 1
    33   16   55 1
    34   16   56 1
    35   17   18 1
    36   17   20 1
    37   18   19 1
    38   18   57 1
    39   18   58 1
    40   19   59 1
    41   19   60 1
    42   20   29 ar
    43   20   21 ar
    44   21   26 ar
    45   21   22 ar
    46   22   23 ar
    47   22   61 1
    48   23   24 ar
    49   23   39 1
    50   24   25 ar
    51   24   30 1
    52   25   26 ar
    53   25   62 1
    54   26   27 ar
    55   27   28 ar
    56   28   29 ar
    57   28   63 1
    58   30   31 1
    59   31   32 1
    60   31   64 1
    61   31   65 1
    62   32   33 1
    63   32   66 1
    64   32   67 1
    65   33   68 1
    66   33   69 1
    67   33   83 1
    68   34   35 1
    69   34   70 1
    70   34   71 1
    71   34   83 1
    72   35   36 1
    73   35   72 1
    74   35   73 1
    75   36   37 1
    76   36   74 1
    77   36   75 1
    78   37   38 1
    79   37   76 1
    80   37   77 1
    81   38   78 1
    82   38   79 1
    83   38   83 1
    84   39   40 1
    85   40   80 1
    86   40   81 1
    87   40   82 1
    88   83   84 1
@<TRIPOS>MOLECULE
ZINC01493878
   48    50     0     0     0
SMALL
USER_CHARGES

@<TRIPOS>ATOM
      1 C1         -1.0955   -5.0083   -6.9234 C.3       1 <0>         0.0847
      2 N1         -1.5520   -4.3038   -5.7228 N.am      1 <0>        -0.7137
      3 C2         -1.8827   -5.0004   -4.6175 C.2       1 <0>         0.5696
      4 O1         -1.8023   -6.2129   -4.6168 O.2       1 <0>        -0.5284
      5 C3         -2.3445   -4.2878   -3.4031 C.ar      1 <0>         0.1129
      6 C4         -2.6788   -5.0128   -2.2640 C.ar      1 <0>        -0.1883
      7 C5         -3.1110   -4.3279   -1.1310 C.ar      1 <0>         0.1595
      8 C6         -3.1903   -2.9389   -1.1877 C.ar      1 <0>        -0.1766
      9 C7         -2.8404   -2.2885   -2.3571 C.ar      1 <0>         0.1349
     10 N2         -2.4302   -2.9626   -3.4105 N.ar      1 <0>        -0.4815
     11 O2         -3.4471   -4.9979    0.0005 O.3       1 <0>        -0.2437
     12 C8         -3.4462   -6.3570   -0.0383 C.ar      1 <0>         0.0568
     13 C9         -2.2447   -7.0505   -0.0178 C.ar      1 <0>        -0.1074
     14 C10        -2.2431   -8.4307   -0.0577 C.ar      1 <0>        -0.1009
     15 C11        -3.4442   -9.1246   -0.1179 C.ar      1 <0>         0.1671
     16 C12        -4.6464   -8.4301   -0.1379 C.ar      1 <0>        -0.1272
     17 C13        -4.6469   -7.0500   -0.0928 C.ar      1 <0>        -0.0940
     18 N3         -3.4432  -10.5252   -0.1588 N.am      1 <0>        -0.6776
     19 C14        -2.5108  -11.2187    0.5239 C.2       1 <0>         0.7077
     20 O3         -1.6217  -10.6297    1.1080 O.2       1 <0>        -0.5493
     21 N4         -2.5639  -12.5649    0.5593 N.am      1 <0>        -0.6795
     22 C15        -1.6655  -13.2800    1.3600 C.ar      1 <0>         0.1700
     23 C16        -1.2529  -12.7583    2.5792 C.ar      1 <0>        -0.0742
     24 C17        -0.3670  -13.4659    3.3674 C.ar      1 <0>        -0.0871
     25 C18         0.1097  -14.6941    2.9434 C.ar      1 <0>        -0.0077
     26 C19        -0.2993  -15.2159    1.7290 C.ar      1 <0>        -0.1564
     27 C20        -1.1898  -14.5147    0.9394 C.ar      1 <0>        -0.0879
     28 C21         0.2222  -16.5533    1.2702 C.3       1 <0>         0.5112
     29 F1         -0.3299  -16.8663    0.0234 F         1 <0>        -0.1743
     30 F2          1.6160  -16.4983    1.1626 F         1 <0>        -0.1671
     31 F3         -0.1354  -17.5367    2.1987 F         1 <0>        -0.1677
     32 Cl1         1.2234  -15.5812    3.9366 Cl        1 <0>        -0.0394
     33 H1         -0.8760   -4.2843   -7.7081 H         1 <0>         0.0803
     34 H2         -0.1948   -5.5764   -6.6909 H         1 <0>         0.0631
     35 H3         -1.8761   -5.6883   -7.2645 H         1 <0>         0.0629
     36 H4         -1.6162   -3.3359   -5.7233 H         1 <0>         0.4141
     37 H5         -2.6047   -6.0902   -2.2584 H         1 <0>         0.1546
     38 H6         -3.5217   -2.3755   -0.3280 H         1 <0>         0.1523
     39 H7         -2.9005   -1.2112   -2.4052 H         1 <0>         0.1747
     40 H8         -1.3104   -6.5106    0.0290 H         1 <0>         0.1364
     41 H9         -1.3078   -8.9704   -0.0424 H         1 <0>         0.1514
     42 H10        -5.5809   -8.9693   -0.1851 H         1 <0>         0.1386
     43 H11        -5.5820   -6.5098   -0.1039 H         1 <0>         0.1400
     44 H12        -4.1137  -10.9957   -0.6785 H         1 <0>         0.4131
     45 H13        -3.2246  -13.0383    0.0299 H         1 <0>         0.4146
     46 H14        -1.6244  -11.7997    2.9103 H         1 <0>         0.1546
     47 H15        -0.0456  -13.0604    4.3154 H         1 <0>         0.1524
     48 H16        -1.5123  -14.9245   -0.0064 H         1 <0>         0.1525
@<TRIPOS>BOND
     1    1    2 1
     2    1   33 1
     3    1   34 1
     4    1   35 1
     5    2    3 am
     6    2   36 1
     7    3    4 2
     8    3    5 1
     9    5   10 ar
    10    5    6 ar
    11    6    7 ar
    12    6   37 1
    13    7    8 ar
    14    7   11 1
    15    8    9 ar
    16    8   38 1
    17    9   10 ar
    18    9   39 1
    19   11   12 1
    20   12   17 ar
    21   12   13 ar
    22   13   14 ar
    23   13   40 1
    24   14   15 ar
    25   14   41 1
    26   15   16 ar
    27   15   18 1
    28   16   17 ar
    29   16   42 1
    30   17   43 1
    31   18   19 am
    32   18   44 1
    33   19   20 2
    34   19   21 am
    35   21   22 1
    36   21   45 1
    37   22   27 ar
    38   22   23 ar
    39   23   24 ar
    40   23   46 1
    41   24   25 ar
    42   24   47 1
    43   25   26 ar
    44   25   32 1
    45   26   27 ar
    46   26   28 1
    47   27   48 1
    48   28   29 1
    49   28   30 1
    50   28   31 1
@<TRIPOS>MOLECULE
ZINC21982951
   60    63     0     0     0
SMALL
USER_CHARGES

@<TRIPOS>ATOM
      1 C1         -2.0700    1.6928    0.2333 C.3       1 <0>        -0.1170
      2 C2         -1.6482    0.2604    0.0301 C.ar      1 <0>        -0.0813
      3 C3         -1.8479   -0.3525   -1.1919 C.ar      1 <0>        -0.1034
      4 C4         -1.4615   -1.6665   -1.3798 C.ar      1 <0>        -0.0990
      5 C5         -0.8738   -2.3725   -0.3459 C.ar      1 <0>        -0.1046
      6 C6         -0.6714   -1.7660    0.8791 C.ar      1 <0>        -0.0220
      7 C7         -1.0534   -0.4428    1.0688 C.ar      1 <0>         0.1347
      8 N1         -0.8441    0.1769    2.3055 N.am      1 <0>        -0.6659
      9 C8         -1.2819   -0.4110    3.4365 C.2       1 <0>         0.6018
     10 O1         -1.7689   -1.5261    3.3939 O.2       1 <0>        -0.4722
     11 C9         -1.1720    0.2905    4.7149 C.2       1 <0>        -0.2635
     12 C10        -1.5472   -0.1201    5.9866 C.2       1 <0>         0.1512
     13 N2         -1.3262    0.7270    6.9599 N.2       1 <0>        -0.5510
     14 C11        -0.7756    1.9070    6.7361 C.2       1 <0>         0.2513
     15 S1         -0.5107    1.9100    5.0742 S.3       1 <0>         0.2445
     16 N3         -0.4817    2.8997    7.6498 N.pl3     1 <0>        -0.5870
     17 C12        -0.6908    2.6801    9.0050 C.ar      1 <0>         0.4543
     18 C13        -1.0534    1.4192    9.4679 C.ar      1 <0>        -0.2926
     19 C14        -1.2512    1.2508   10.8352 C.ar      1 <0>         0.4935
     20 N4         -1.0875    2.2952   11.6453 N.ar      1 <0>        -0.5328
     21 C15        -0.7435    3.4737   11.1677 C.ar      1 <0>         0.4541
     22 N5         -0.5417    3.6719    9.8809 N.ar      1 <0>        -0.5672
     23 C16        -0.5694    4.6273   12.1217 C.3       1 <0>        -0.1251
     24 N6         -1.6138    0.0143   11.3464 N.pl3     1 <0>        -0.5370
     25 C17        -2.0559   -0.1253   12.7422 C.3       1 <0>         0.1090
     26 C18        -3.3866   -0.8852   12.7576 C.3       1 <0>         0.0383
     27 N7         -3.2335   -2.1493   12.0251 N.3       1 <0>        -0.5289
     28 C19        -2.9165   -1.9105   10.6107 C.3       1 <0>         0.0343
     29 C20        -1.5725   -1.1917   10.5056 C.3       1 <0>         0.1057
     30 C21        -4.4334   -2.9856   12.1619 C.3       1 <0>         0.0545
     31 C22        -4.1483   -4.3816   11.6043 C.3       1 <0>         0.0776
     32 O2         -3.1500   -5.0191   12.4038 O.3       1 <0>        -0.5606
     33 Cl1         0.0658   -2.6526    2.1768 Cl        1 <0>        -0.0453
     34 H1         -1.2464    2.3553   -0.0328 H         1 <0>         0.0773
     35 H2         -2.9308    1.9112   -0.3987 H         1 <0>         0.0785
     36 H3         -2.3379    1.8478    1.2784 H         1 <0>         0.0640
     37 H4         -2.3069    0.1956   -2.0014 H         1 <0>         0.1372
     38 H5         -1.6193   -2.1430   -2.3361 H         1 <0>         0.1391
     39 H6         -0.5731   -3.3989   -0.4959 H         1 <0>         0.1403
     40 H7         -0.3838    1.0296    2.3489 H         1 <0>         0.4083
     41 H8         -1.9972   -1.0858    6.1634 H         1 <0>         0.2027
     42 H9         -0.1293    3.7505    7.3451 H         1 <0>         0.4460
     43 H10        -1.1784    0.5927    8.7841 H         1 <0>         0.2218
     44 H11         0.4644    4.6619   12.4652 H         1 <0>         0.1245
     45 H12        -0.8146    5.5596   11.6130 H         1 <0>         0.1071
     46 H13        -1.2322    4.4948   12.9768 H         1 <0>         0.1273
     47 H14        -1.3096   -0.6823   13.3087 H         1 <0>         0.0989
     48 H15        -2.1929    0.8619   13.1834 H         1 <0>         0.1094
     49 H16        -3.6740   -1.0944   13.7880 H         1 <0>         0.1036
     50 H17        -4.1569   -0.2794   12.2806 H         1 <0>         0.0428
     51 H18        -2.8631   -2.8634   10.0841 H         1 <0>         0.1043
     52 H19        -3.6935   -1.2904   10.1636 H         1 <0>         0.0450
     53 H20        -1.3900   -0.9091    9.4688 H         1 <0>         0.1029
     54 H21        -0.7788   -1.8532   10.8529 H         1 <0>         0.1042
     55 H22        -4.7041   -3.0633   13.2149 H         1 <0>         0.0912
     56 H23        -5.2561   -2.5340   11.6075 H         1 <0>         0.0533
     57 H24        -5.0627   -4.9745   11.6240 H         1 <0>         0.0547
     58 H25        -3.7921   -4.2970   10.5776 H         1 <0>         0.0454
     59 H26        -2.9188   -5.9101   12.1076 H         1 <0>         0.3805
     60 H27        -0.2852    4.5531    9.5669 H         1 <0>         0.4414
@<TRIPOS>BOND
     1    1    2 1
     2    1   34 1
     3    1   35 1
     4    1   36 1
     5    2    7 ar
     6    2    3 ar
     7    3    4 ar
     8    3   37 1
     9    4    5 ar
    10    4   38 1
    11    5    6 ar
    12    5   39 1
    13    6    7 ar
    14    6   33 1
    15    7    8 1
    16    8    9 am
    17    8   40 1
    18    9   10 2
    19    9   11 1
    20   11   15 1
    21   11   12 2
    22   12   13 1
    23   12   41 1
    24   13   14 2
    25   14   15 1
    26   14   16 1
    27   16   17 1
    28   16   42 1
    29   17   22 ar
    30   17   18 ar
    31   18   19 ar
    32   18   43 1
    33   19   20 ar
    34   19   24 1
    35   20   21 ar
    36   21   22 ar
    37   21   23 1
    38   22   60 1
    39   23   44 1
    40   23   45 1
    41   23   46 1
    42   24   29 1
    43   24   25 1
    44   25   26 1
    45   25   47 1
    46   25   48 1
    47   26   27 1
    48   26   49 1
    49   26   50 1
    50   27   28 1
    51   27   30 1
    52   28   29 1
    53   28   51 1
    54   28   52 1
    55   29   53 1
    56   29   54 1
    57   30   31 1
    58   30   55 1
    59   30   56 1
    60   31   32 1
    61   31   57 1
    62   31   58 1
    63   32   59 1
@<TRIPOS>MOLECULE
ZINC21982951
   60    63     0     0     0
SMALL
USER_CHARGES

@<TRIPOS>ATOM
      1 C1          3.2739    6.6585    1.8418 C.3       1 <0>        -0.1168
      2 C2          2.5810    7.9910    1.9663 C.ar      1 <0>        -0.0823
      3 C3          2.8983    9.0189    1.0995 C.ar      1 <0>        -0.1038
      4 C4          2.2635   10.2419    1.2126 C.ar      1 <0>        -0.1008
      5 C5          1.3088   10.4411    2.1933 C.ar      1 <0>        -0.1049
      6 C6          0.9869    9.4175    3.0639 C.ar      1 <0>        -0.0226
      7 C7          1.6192    8.1849    2.9486 C.ar      1 <0>         0.1373
      8 N1          1.2913    7.1440    3.8238 N.am      1 <0>        -0.6678
      9 C8          1.3128    7.3511    5.1554 C.2       1 <0>         0.6036
     10 O1          1.5184    8.4680    5.5945 O.2       1 <0>        -0.4759
     11 C9          1.0891    6.2346    6.0728 C.2       1 <0>        -0.2694
     12 C10         1.0619    6.2190    7.4604 C.2       1 <0>         0.1522
     13 N2          0.8357    5.0596    8.0247 N.2       1 <0>        -0.5060
     14 C11         0.6446    3.9678    7.3056 C.2       1 <0>         0.2464
     15 S1          0.7674    4.5141    5.7185 S.3       1 <0>         0.2029
     16 N3          0.3973    2.6842    7.7505 N.pl3     1 <0>        -0.5650
     17 C12         0.2197    2.4414    9.1063 C.ar      1 <0>         0.4999
     18 C13        -0.1342    1.1736    9.5555 C.ar      1 <0>        -0.3181
     19 C14        -0.3003    0.9817   10.9244 C.ar      1 <0>         0.4940
     20 N4         -0.1157    2.0114   11.7481 N.ar      1 <0>        -0.5712
     21 C15         0.2193    3.1978   11.2829 C.ar      1 <0>         0.4509
     22 N5          0.3911    3.4178    9.9956 N.ar      1 <0>        -0.4879
     23 C16         0.4179    4.3344   12.2523 C.3       1 <0>        -0.1253
     24 N6         -0.6531   -0.2629   11.4224 N.pl3     1 <0>        -0.5744
     25 C17        -0.9639   -0.4449   12.8484 C.3       1 <0>         0.1013
     26 C18        -2.3114   -1.1652   12.9649 C.3       1 <0>         0.0387
     27 N7         -2.2712   -2.4031   12.1749 N.3       1 <0>        -0.5277
     28 C19        -2.0835   -2.1176   10.7462 C.3       1 <0>         0.0305
     29 C20        -0.7325   -1.4351   10.5377 C.3       1 <0>         0.1149
     30 C21        -3.4796   -3.2085   12.3965 C.3       1 <0>         0.0543
     31 C22        -3.2958   -4.5889   11.7629 C.3       1 <0>         0.0774
     32 O2         -2.2472   -5.2869   12.4378 O.3       1 <0>        -0.5615
     33 Cl1        -0.2110    9.6681    4.2952 Cl        1 <0>        -0.0453
     34 H1          2.7121    6.0191    1.1609 H         1 <0>         0.0767
     35 H2          4.2810    6.8077    1.4524 H         1 <0>         0.0779
     36 H3          3.3298    6.1850    2.8220 H         1 <0>         0.0648
     37 H4          3.6435    8.8670    0.3327 H         1 <0>         0.1365
     38 H5          2.5139   11.0437    0.5337 H         1 <0>         0.1383
     39 H6          0.8148   11.3976    2.2790 H         1 <0>         0.1396
     40 H7          1.0484    6.2731    3.4723 H         1 <0>         0.4083
     41 H8          1.2191    7.1147    8.0430 H         1 <0>         0.1979
     42 H9          0.3477    1.9521    7.1161 H         1 <0>         0.4525
     43 H10        -0.2767    0.3593    8.8606 H         1 <0>         0.1835
     44 H11         1.4596    4.3615   12.5720 H         1 <0>         0.1250
     45 H12         0.1626    5.2758   11.7656 H         1 <0>         0.1301
     46 H13        -0.2249    4.1881   13.1203 H         1 <0>         0.1049
     47 H14        -0.1857   -1.0458   13.3190 H         1 <0>         0.1119
     48 H15        -1.0251    0.5276   13.3369 H         1 <0>         0.0843
     49 H16        -2.5057   -1.4068   14.0099 H         1 <0>         0.1076
     50 H17        -3.1034   -0.5184   12.5874 H         1 <0>         0.0465
     51 H18        -2.1124   -3.0499   10.1822 H         1 <0>         0.1076
     52 H19        -2.8786   -1.4576   10.3996 H         1 <0>         0.0467
     53 H20        -0.6409   -1.1170    9.4992 H         1 <0>         0.1034
     54 H21         0.0684   -2.1330   10.7819 H         1 <0>         0.1075
     55 H22        -3.6507   -3.3200   13.4672 H         1 <0>         0.0925
     56 H23        -4.3362   -2.7111   11.9416 H         1 <0>         0.0553
     57 H24        -4.2233   -5.1548   11.8494 H         1 <0>         0.0565
     58 H25        -3.0370   -4.4741   10.7103 H         1 <0>         0.0456
     59 H26        -2.0752   -6.1719   12.0881 H         1 <0>         0.3821
     60 H27        -0.2297    1.8867   12.7033 H         1 <0>         0.4392
@<TRIPOS>BOND
     1    1    2 1
     2    1   34 1
     3    1   35 1
     4    1   36 1
     5    2    7 ar
     6    2    3 ar
     7    3    4 ar
     8    3   37 1
     9    4    5 ar
    10    4   38 1
    11    5    6 ar
    12    5   39 1
    13    6    7 ar
    14    6   33 1
    15    7    8 1
    16    8    9 am
    17    8   40 1
    18    9   10 2
    19    9   11 1
    20   11   15 1
    21   11   12 2
    22   12   13 1
    23   12   41 1
    24   13   14 2
    25   14   15 1
    26   14   16 1
    27   16   17 1
    28   16   42 1
    29   17   18 ar
    30   17   22 ar
    31   18   43 1
    32   18   19 ar
    33   19   24 1
    34   19   20 ar
    35   20   60 1
    36   20   21 ar
    37   21   23 1
    38   21   22 ar
    39   23   44 1
    40   23   45 1
    41   23   46 1
    42   24   29 1
    43   24   25 1
    44   25   26 1
    45   25   47 1
    46   25   48 1
    47   26   27 1
    48   26   49 1
    49   26   50 1
    50   27   28 1
    51   27   30 1
    52   28   29 1
    53   28   51 1
    54   28   52 1
    55   29   53 1
    56   29   54 1
    57   30   31 1
    58   30   55 1
    59   30   56 1
    60   31   32 1
    61   31   57 1
    62   31   58 1
    63   32   59 1
@<TRIPOS>MOLECULE
ZINC21982951
   59    62     0     0     0
SMALL
USER_CHARGES

@<TRIPOS>ATOM
      1 C1          3.4106    6.6420    1.8847 C.3       1 <0>        -0.1165
      2 C2          2.6976    7.9659    1.9845 C.ar      1 <0>        -0.0852
      3 C3          3.0204    8.9921    1.1176 C.ar      1 <0>        -0.1055
      4 C4          2.3672   10.2073    1.2080 C.ar      1 <0>        -0.1070
      5 C5          1.3885   10.4004    2.1660 C.ar      1 <0>        -0.1064
      6 C6          1.0609    9.3785    3.0365 C.ar      1 <0>        -0.0243
      7 C7          1.7118    8.1536    2.9438 C.ar      1 <0>         0.1460
      8 N1          1.3783    7.1144    3.8189 N.am      1 <0>        -0.6734
      9 C8          1.3676    7.3308    5.1492 C.2       1 <0>         0.6131
     10 O1          1.5489    8.4533    5.5848 O.2       1 <0>        -0.4899
     11 C9          1.1384    6.2176    6.0693 C.2       1 <0>        -0.3092
     12 C10         1.0807    6.2111    7.4561 C.2       1 <0>         0.1722
     13 N2          0.8573    5.0526    8.0233 N.2       1 <0>        -0.5180
     14 C11         0.6966    3.9535    7.3079 C.2       1 <0>         0.3121
     15 S1          0.8472    4.4907    5.7202 S.3       1 <0>         0.1340
     16 N3          0.4564    2.6698    7.7563 N.pl3     1 <0>        -0.5904
     17 C12         0.2490    2.4343    9.1091 C.ar      1 <0>         0.4412
     18 C13        -0.1036    1.1661    9.5586 C.ar      1 <0>        -0.3412
     19 C14        -0.3003    0.9817   10.9244 C.ar      1 <0>         0.4686
     20 N4         -0.1450    2.0186   11.7452 N.ar      1 <0>        -0.5923
     21 C15         0.1898    3.2050   11.2799 C.ar      1 <0>         0.3946
     22 N5          0.3901    3.4182    9.9956 N.ar      1 <0>        -0.5459
     23 C16         0.3546    4.3498   12.2460 C.3       1 <0>        -0.0834
     24 N6         -0.6531   -0.2629   11.4224 N.pl3     1 <0>        -0.5966
     25 C17        -1.0693   -0.4249   12.8237 C.3       1 <0>         0.1300
     26 C18        -2.3993   -1.1856   12.8517 C.3       1 <0>         0.0401
     27 N7         -2.2595   -2.4378   12.0965 N.3       1 <0>        -0.5276
     28 C19        -1.9688   -2.1765   10.6804 C.3       1 <0>         0.0363
     29 C20        -0.6270   -1.4554   10.5619 C.3       1 <0>         0.1269
     30 C21        -3.4565   -3.2768   12.2420 C.3       1 <0>         0.0537
     31 C22        -3.1814   -4.6636   11.6572 C.3       1 <0>         0.0792
     32 O2         -2.1684   -5.3132   12.4279 O.3       1 <0>        -0.5589
     33 Cl1        -0.1672    9.6214    4.2392 Cl        1 <0>        -0.0433
     34 H1          2.8725    5.9906    1.1961 H         1 <0>         0.0754
     35 H2          4.4240    6.8020    1.5166 H         1 <0>         0.0754
     36 H3          3.4510    6.1760    2.8692 H         1 <0>         0.0676
     37 H4          3.7844    8.8450    0.3685 H         1 <0>         0.1337
     38 H5          2.6220   11.0077    0.5292 H         1 <0>         0.1350
     39 H6          0.8801   11.3508    2.2339 H         1 <0>         0.1371
     40 H7          1.1547    6.2381    3.4683 H         1 <0>         0.4085
     41 H8          1.2132    7.1127    8.0357 H         1 <0>         0.1884
     42 H9          0.4325    1.9325    7.1264 H         1 <0>         0.4387
     43 H10        -0.2220    0.3459    8.8660 H         1 <0>         0.1413
     44 H11         1.3882    4.3890   12.5900 H         1 <0>         0.0870
     45 H12         0.1021    5.2855   11.7470 H         1 <0>         0.0890
     46 H13        -0.3072    4.2031   13.0995 H         1 <0>         0.0846
     47 H14        -0.3126   -0.9904   13.3674 H         1 <0>         0.0744
     48 H15        -1.1984    0.5551   13.2831 H         1 <0>         0.1008
     49 H16        -2.6676   -1.4113   13.8837 H         1 <0>         0.0903
     50 H17        -3.1785   -0.5727   12.3986 H         1 <0>         0.0372
     51 H18        -1.9249   -3.1208   10.1378 H         1 <0>         0.0905
     52 H19        -2.7540   -1.5497   10.2576 H         1 <0>         0.0380
     53 H20        -0.4638   -1.1563    9.5265 H         1 <0>         0.0877
     54 H21         0.1731   -2.1219   10.8840 H         1 <0>         0.0802
     55 H22        -3.7077   -3.3713   13.2985 H         1 <0>         0.0861
     56 H23        -4.2894   -2.8169   11.7102 H         1 <0>         0.0487
     57 H24        -4.0952   -5.2572   11.6843 H         1 <0>         0.0498
     58 H25        -2.8443   -4.5626   10.6256 H         1 <0>         0.0451
     59 H26        -1.9426   -6.1994   12.1134 H         1 <0>         0.3762
@<TRIPOS>BOND
     1    1    2 1
     2    1   34 1
     3    1   35 1
     4    1   36 1
     5    2    7 ar
     6    2    3 ar
     7    3    4 ar
     8    3   37 1
     9    4    5 ar
    10    4   38 1
    11    5    6 ar
    12    5   39 1
    13    6    7 ar
    14    6   33 1
    15    7    8 1
    16    8    9 am
    17    8   40 1
    18    9   10 2
    19    9   11 1
    20   11   15 1
    21   11   12 2
    22   12   13 1
    23   12   41 1
    24   13   14 2
    25   14   15 1
    26   14   16 1
    27   16   17 1
    28   16   42 1
    29   17   18 ar
    30   17   22 ar
    31   18   43 1
    32   18   19 ar
    33   19   24 1
    34   19   20 ar
    35   20   21 ar
    36   21   23 1
    37   21   22 ar
    38   23   44 1
    39   23   45 1
    40   23   46 1
    41   24   29 1
    42   24   25 1
    43   25   26 1
    44   25   47 1
    45   25   48 1
    46   26   27 1
    47   26   49 1
    48   26   50 1
    49   27   28 1
    50   27   30 1
    51   28   29 1
    52   28   51 1
    53   28   52 1
    54   29   53 1
    55   29   54 1
    56   30   31 1
    57   30   55 1
    58   30   56 1
    59   31   32 1
    60   31   57 1
    61   31   58 1
    62   32   59 1
@<TRIPOS>MOLECULE
ZINC21982951
   61    64     0     0     0
SMALL
USER_CHARGES

@<TRIPOS>ATOM
      1 C1          3.2770    6.6581    1.8427 C.3       1 <0>        -0.1166
      2 C2          2.5837    7.9904    1.9667 C.ar      1 <0>        -0.0814
      3 C3          2.9012    9.0183    1.0999 C.ar      1 <0>        -0.1028
      4 C4          2.2660   10.2411    1.2125 C.ar      1 <0>        -0.0975
      5 C5          1.3108   10.4402    2.1928 C.ar      1 <0>        -0.1039
      6 C6          0.9888    9.4167    3.0634 C.ar      1 <0>        -0.0218
      7 C7          1.6215    8.1842    2.9485 C.ar      1 <0>         0.1327
      8 N1          1.2933    7.1433    3.8237 N.am      1 <0>        -0.6648
      9 C8          1.3141    7.3507    5.1552 C.2       1 <0>         0.5983
     10 O1          1.5193    8.4677    5.5943 O.2       1 <0>        -0.4690
     11 C9          1.0903    6.2342    6.0727 C.2       1 <0>        -0.2500
     12 C10         1.0624    6.2188    7.4604 C.2       1 <0>         0.1439
     13 N2          0.8362    5.0594    8.0246 N.2       1 <0>        -0.4984
     14 C11         0.6458    3.9675    7.3056 C.2       1 <0>         0.2172
     15 S1          0.7692    4.5136    5.7185 S.3       1 <0>         0.2242
     16 N3          0.3986    2.6839    7.7506 N.pl3     1 <0>        -0.5513
     17 C12         0.2203    2.4413    9.1063 C.ar      1 <0>         0.5098
     18 C13        -0.1335    1.1734    9.5556 C.ar      1 <0>        -0.3097
     19 C14        -0.3003    0.9817   10.9244 C.ar      1 <0>         0.4927
     20 N4         -0.1163    2.0116   11.7481 N.ar      1 <0>        -0.5695
     21 C15         0.2187    3.1980   11.2828 C.ar      1 <0>         0.4589
     22 N5          0.3911    3.4178    9.9956 N.ar      1 <0>        -0.4762
     23 C16         0.4165    4.3348   12.2521 C.3       1 <0>        -0.1303
     24 N6         -0.6531   -0.2629   11.4224 N.pl3     1 <0>        -0.6123
     25 C17        -0.9643   -0.4465   12.8484 C.3       1 <0>         0.0782
     26 C18        -2.3027   -1.1838   12.9625 C.3       1 <0>        -0.0204
     27 N7         -2.2406   -2.4311   12.1903 N.4       1 <0>        -0.3852
     28 C19        -2.0770   -2.1279   10.7629 C.3       1 <0>        -0.0304
     29 C20        -0.7330   -1.4363   10.5388 C.3       1 <0>         0.0932
     30 C21        -3.4827   -3.1900   12.3886 C.3       1 <0>        -0.0061
     31 C22        -3.3702   -4.5448   11.6865 C.3       1 <0>         0.0434
     32 O2         -2.3479   -5.3224   12.3128 O.3       1 <0>        -0.5819
     33 Cl1        -0.2098    9.6671    4.2940 Cl        1 <0>        -0.0466
     34 H1          2.7157    6.0184    1.1617 H         1 <0>         0.0770
     35 H2          4.2843    6.8074    1.4538 H         1 <0>         0.0791
     36 H3          3.3325    6.1847    2.8230 H         1 <0>         0.0631
     37 H4          3.6468    8.8665    0.3335 H         1 <0>         0.1380
     38 H5          2.5166   11.0428    0.5336 H         1 <0>         0.1401
     39 H6          0.8165   11.3966    2.2780 H         1 <0>         0.1410
     40 H7          1.0508    6.2723    3.4722 H         1 <0>         0.4077
     41 H8          1.2191    7.1146    8.0429 H         1 <0>         0.2016
     42 H9          0.3494    1.9517    7.1163 H         1 <0>         0.4545
     43 H10        -0.2756    0.3590    8.8607 H         1 <0>         0.1860
     44 H11         1.4581    4.3621   12.5724 H         1 <0>         0.1309
     45 H12         0.1613    5.2760   11.7653 H         1 <0>         0.1358
     46 H13        -0.2267    4.1885   13.1199 H         1 <0>         0.1083
     47 H14        -0.1795   -1.0367   13.3215 H         1 <0>         0.1249
     48 H15        -1.0392    0.5259   13.3352 H         1 <0>         0.1232
     49 H16        -2.5028   -1.4138   14.0090 H         1 <0>         0.1602
     50 H17        -3.0999   -0.5526   12.5701 H         1 <0>         0.1410
     51 H18        -2.1110   -3.0537   10.1885 H         1 <0>         0.1585
     52 H19        -2.8811   -1.4682   10.4370 H         1 <0>         0.1418
     53 H20        -0.6550   -1.1179    9.4992 H         1 <0>         0.1416
     54 H21         0.0756   -2.1281   10.7747 H         1 <0>         0.1211
     55 H22        -3.6469   -3.3459   13.4548 H         1 <0>         0.1465
     56 H23        -4.3202   -2.6321   11.9697 H         1 <0>         0.1464
     57 H24        -4.3221   -5.0710   11.7578 H         1 <0>         0.1026
     58 H25        -3.1180   -4.3904   10.6374 H         1 <0>         0.0719
     59 H26        -2.2211   -6.1961   11.9183 H         1 <0>         0.4154
     60 H27        -0.2308    1.8869   12.7032 H         1 <0>         0.4393
     61 H28        -1.4578   -2.9831   12.5075 H         1 <0>         0.4359
@<TRIPOS>BOND
     1    1    2 1
     2    1   34 1
     3    1   35 1
     4    1   36 1
     5    2    7 ar
     6    2    3 ar
     7    3    4 ar
     8    3   37 1
     9    4    5 ar
    10    4   38 1
    11    5    6 ar
    12    5   39 1
    13    6    7 ar
    14    6   33 1
    15    7    8 1
    16    8    9 am
    17    8   40 1
    18    9   10 2
    19    9   11 1
    20   11   15 1
    21   11   12 2
    22   12   13 1
    23   12   41 1
    24   13   14 2
    25   14   15 1
    26   14   16 1
    27   16   17 1
    28   16   42 1
    29   17   18 ar
    30   17   22 ar
    31   18   43 1
    32   18   19 ar
    33   19   24 1
    34   19   20 ar
    35   20   60 1
    36   20   21 ar
    37   21   23 1
    38   21   22 ar
    39   23   44 1
    40   23   45 1
    41   23   46 1
    42   24   29 1
    43   24   25 1
    44   25   26 1
    45   25   47 1
    46   25   48 1
    47   26   27 1
    48   26   49 1
    49   26   50 1
    50   27   28 1
    51   27   30 1
    52   27   61 1
    53   28   29 1
    54   28   51 1
    55   28   52 1
    56   29   53 1
    57   29   54 1
    58   30   31 1
    59   30   55 1
    60   30   56 1
    61   31   32 1
    62   31   57 1
    63   31   58 1
    64   32   59 1
@<TRIPOS>MOLECULE
ZINC01912572
   43    45     0     0     0
SMALL
USER_CHARGES
2-(4-pyridylmethylamino)-N-[3-(trifluoromethyl)phenyl]-benzamide
@<TRIPOS>ATOM
      1 C1         -0.1765    9.4460    0.4719 C.ar      1 <0>        -0.1891
      2 C2          1.0103   10.1618    0.4963 C.ar      1 <0>        -0.0333
      3 C3          2.2211    9.5112    0.3781 C.ar      1 <0>        -0.2111
      4 C4          2.2581    8.1291    0.2392 C.ar      1 <0>         0.2834
      5 C5          1.0579    7.4020    0.2088 C.ar      1 <0>        -0.2347
      6 C6         -0.1603    8.0760    0.3297 C.ar      1 <0>        -0.0328
      7 C7          1.0825    5.9361    0.0563 C.2       1 <0>         0.5755
      8 O1          2.1438    5.3424    0.0572 O.2       1 <0>        -0.5298
      9 N1         -0.0712    5.2537   -0.0842 N.am      1 <0>        -0.6685
     10 C8         -0.0569    3.8557   -0.1198 C.ar      1 <0>         0.1487
     11 C9         -0.9819    3.1697   -0.8966 C.ar      1 <0>        -0.1140
     12 C10        -0.9653    1.7893   -0.9293 C.ar      1 <0>        -0.0973
     13 C11        -0.0295    1.0898   -0.1892 C.ar      1 <0>        -0.0884
     14 C12         0.8889    1.7694    0.5895 C.ar      1 <0>        -0.1623
     15 C13         0.8817    3.1503    0.6217 C.ar      1 <0>        -0.0727
     16 C14         1.9025    1.0029    1.3995 C.3       1 <0>         0.5089
     17 F1          1.7164   -0.3694    1.2014 F         1 <0>        -0.1757
     18 F2          3.1921    1.3620    0.9932 F         1 <0>        -0.1730
     19 F3          1.7400    1.3045    2.7559 F         1 <0>        -0.1759
     20 N2          3.4759    7.4713    0.1258 N.pl3     1 <0>        -0.7210
     21 C15         4.7169    8.2416    0.0138 C.3       1 <0>         0.1559
     22 C16         5.8862    7.2972   -0.0958 C.ar      1 <0>        -0.0632
     23 C17         6.5494    6.8542    1.0384 C.ar      1 <0>        -0.1534
     24 C18         7.6149    5.9851    0.8991 C.ar      1 <0>         0.1000
     25 N3          8.0078    5.5855   -0.2946 N.ar      1 <0>        -0.4783
     26 C19         7.4038    5.9899   -1.3949 C.ar      1 <0>         0.0998
     27 C20         6.3280    6.8554   -1.3335 C.ar      1 <0>        -0.1530
     28 H1         -1.1189    9.9652    0.5652 H         1 <0>         0.1274
     29 H2          0.9869   11.2356    0.6089 H         1 <0>         0.1286
     30 H3          3.1413   10.0762    0.3984 H         1 <0>         0.1298
     31 H4         -1.0880    7.5233    0.3121 H         1 <0>         0.1236
     32 H5         -0.9115    5.7322   -0.1606 H         1 <0>         0.4152
     33 H6         -1.7129    3.7154   -1.4748 H         1 <0>         0.1372
     34 H7         -1.6842    1.2554   -1.5330 H         1 <0>         0.1417
     35 H8         -0.0189    0.0102   -0.2161 H         1 <0>         0.1414
     36 H9          1.6021    3.6807    1.2267 H         1 <0>         0.1454
     37 H10         3.5047    6.5017    0.1208 H         1 <0>         0.4213
     38 H11         4.6744    8.8719   -0.8745 H         1 <0>         0.0766
     39 H12         4.8371    8.8676    0.8980 H         1 <0>         0.0767
     40 H13         6.2351    7.1814    2.0184 H         1 <0>         0.1367
     41 H14         8.1346    5.6327    1.7777 H         1 <0>         0.1589
     42 H15         7.7541    5.6411   -2.3551 H         1 <0>         0.1586
     43 H16         5.8380    7.1836   -2.2382 H         1 <0>         0.1361
@<TRIPOS>BOND
     1    1    6 ar
     2    1    2 ar
     3    1   28 1
     4    2    3 ar
     5    2   29 1
     6    3    4 ar
     7    3   30 1
     8    4    5 ar
     9    4   20 1
    10    5    6 ar
    11    5    7 1
    12    6   31 1
    13    7    8 2
    14    7    9 am
    15    9   10 1
    16    9   32 1
    17   10   15 ar
    18   10   11 ar
    19   11   12 ar
    20   11   33 1
    21   12   13 ar
    22   12   34 1
    23   13   14 ar
    24   13   35 1
    25   14   15 ar
    26   14   16 1
    27   15   36 1
    28   16   17 1
    29   16   18 1
    30   16   19 1
    31   20   21 1
    32   20   37 1
    33   21   22 1
    34   21   38 1
    35   21   39 1
    36   22   27 ar
    37   22   23 ar
    38   23   24 ar
    39   23   40 1
    40   24   25 ar
    41   24   41 1
    42   25   26 ar
    43   26   27 ar
    44   26   42 1
    45   27   43 1
@<TRIPOS>MOLECULE
ZINC03964325
   57    59     0     0     0
SMALL
USER_CHARGES

@<TRIPOS>ATOM
      1 C1          0.1489    2.0884    0.1150 C.3       1 <0>        -0.1876
      2 C2          0.1348    0.5603    0.1888 C.3       1 <0>        -0.0191
      3 N1         -1.2520    0.0881    0.2979 N.4       1 <0>        -0.3822
      4 C3         -1.9779    0.4111   -0.9377 C.3       1 <0>        -0.0142
      5 C4         -3.4549    0.0484   -0.7712 C.3       1 <0>        -0.1895
      6 C5         -1.2593   -1.3663    0.5041 C.3       1 <0>        -0.0265
      7 C6         -0.6131   -1.6936    1.8518 C.3       1 <0>         0.0952
      8 N2         -0.6203   -3.1440    2.0575 N.am      1 <0>        -0.7289
      9 C7         -0.0988   -3.6675    3.1846 C.2       1 <0>         0.6111
     10 O1          0.3779   -2.9358    4.0309 O.2       1 <0>        -0.5184
     11 C8         -0.1061   -5.1270    3.3915 C.2       1 <0>        -0.2420
     12 C9          0.9071   -6.0320    3.0089 C.2       1 <0>        -0.0577
     13 C10         0.4868   -7.2892    3.3960 C.2       1 <0>        -0.0075
     14 N3         -0.7476   -7.1595    3.9982 N.pl3     1 <0>        -0.4910
     15 H1         -1.2731   -7.8879    4.3645 H         1 <0>         0.4270
     16 C11        -1.1044   -5.8642    4.0022 C.2       1 <0>         0.1158
     17 C12        -2.3825   -5.3072    4.5743 C.3       1 <0>        -0.0999
     18 C13         1.1957   -8.4957    3.2079 C.2       1 <0>         0.0729
     19 C14         0.5100   -9.6674    2.9570 C.2       1 <0>        -0.1889
     20 C15         1.0648  -11.0377    2.8871 C.ar      1 <0>        -0.0736
     21 C16         2.3472  -11.5557    3.0375 C.ar      1 <0>        -0.1000
     22 C17         2.5553  -12.9162    2.9116 C.ar      1 <0>         0.0861
     23 C18         1.4888  -13.7593    2.6366 C.ar      1 <0>        -0.1139
     24 C19         0.2139  -13.2531    2.4856 C.ar      1 <0>        -0.1021
     25 C20        -0.0144  -11.8871    2.6092 C.ar      1 <0>         0.1282
     26 N4         -1.1765  -11.1301    2.5069 N.am      1 <0>        -0.6466
     27 C21        -0.9294   -9.8245    2.7079 C.2       1 <0>         0.5595
     28 O2         -1.7538   -8.9280    2.6842 O.2       1 <0>        -0.5156
     29 F1          3.7984  -13.4252    3.0561 F         1 <0>        -0.1318
     30 C22         2.1990   -5.6919    2.3116 C.3       1 <0>        -0.0931
     31 H2          1.1793    2.4435    0.1331 H         1 <0>         0.1076
     32 H3         -0.3308    2.4121   -0.8087 H         1 <0>         0.0811
     33 H4         -0.3916    2.4984    0.9682 H         1 <0>         0.0809
     34 H5          0.5888    0.1488   -0.7126 H         1 <0>         0.1317
     35 H6          0.6996    0.2334    1.0619 H         1 <0>         0.1337
     36 H7         -1.8867    1.4775   -1.1444 H         1 <0>         0.1351
     37 H8         -1.5554   -0.1571   -1.7664 H         1 <0>         0.1307
     38 H9         -3.5537   -1.0316   -0.6617 H         1 <0>         0.0802
     39 H10        -3.8523    0.5414    0.1160 H         1 <0>         0.0808
     40 H11        -4.0109    0.3769   -1.6492 H         1 <0>         0.1074
     41 H12        -2.2871   -1.7292    0.4963 H         1 <0>         0.1397
     42 H13        -0.6973   -1.8494   -0.2952 H         1 <0>         0.1376
     43 H14         0.4147   -1.3306    1.8596 H         1 <0>         0.0893
     44 H15        -1.1751   -1.2105    2.6511 H         1 <0>         0.0890
     45 H16        -1.0005   -3.7277    1.3824 H         1 <0>         0.4099
     46 H17        -3.1529   -5.3000    3.8032 H         1 <0>         0.0840
     47 H18        -2.7087   -5.9289    5.4080 H         1 <0>         0.0782
     48 H19        -2.2103   -4.2898    4.9254 H         1 <0>         0.0840
     49 H20         2.2744   -8.5020    3.2604 H         1 <0>         0.1589
     50 H21         3.1765  -10.8977    3.2512 H         1 <0>         0.1436
     51 H22         1.6578  -14.8215    2.5394 H         1 <0>         0.1485
     52 H23        -0.6084  -13.9196    2.2712 H         1 <0>         0.1415
     53 H24        -2.0541  -11.4980    2.3189 H         1 <0>         0.4217
     54 H25         2.9686   -5.4822    3.0545 H         1 <0>         0.0785
     55 H26         2.5107   -6.5337    1.6932 H         1 <0>         0.0726
     56 H27         2.0522   -4.8138    1.6827 H         1 <0>         0.0634
     57 H28        -1.7009    0.5410    1.0799 H         1 <0>         0.4247
@<TRIPOS>BOND
     1    1    2 1
     2    1   31 1
     3    1   32 1
     4    1   33 1
     5    2    3 1
     6    2   34 1
     7    2   35 1
     8    3    4 1
     9    3    6 1
    10    3   57 1
    11    4    5 1
    12    4   36 1
    13    4   37 1
    14    5   38 1
    15    5   39 1
    16    5   40 1
    17    6    7 1
    18    6   41 1
    19    6   42 1
    20    7    8 1
    21    7   43 1
    22    7   44 1
    23    8    9 am
    24    8   45 1
    25    9   10 2
    26    9   11 1
    27   11   16 2
    28   11   12 1
    29   12   13 2
    30   12   30 1
    31   13   14 1
    32   13   18 1
    33   14   15 1
    34   14   16 1
    35   16   17 1
    36   17   46 1
    37   17   47 1
    38   17   48 1
    39   18   19 2
    40   18   49 1
    41   19   27 1
    42   19   20 1
    43   20   25 ar
    44   20   21 ar
    45   21   22 ar
    46   21   50 1
    47   22   23 ar
    48   22   29 1
    49   23   24 ar
    50   23   51 1
    51   24   25 ar
    52   24   52 1
    53   25   26 1
    54   26   27 am
    55   26   53 1
    56   27   28 2
    57   30   54 1
    58   30   55 1
    59   30   56 1
@<TRIPOS>MOLECULE
ZINC03814434
   62    69     0     0     0
SMALL
USER_CHARGES

@<TRIPOS>ATOM
      1 C1         -0.1295    1.5952   -0.2973 C.3       1 <0>        -0.1687
      2 C2         -0.0862    0.0696   -0.1900 C.3       1 <0>         0.3342
      3 C3          0.5692   -0.4501   -1.4637 C.3       1 <0>         0.0405
      4 H1          1.4796    0.1159   -1.6612 H         1 <0>         0.1372
      5 C4          0.9167   -1.9328   -1.2889 C.3       1 <0>        -0.0061
      6 H2          1.3963   -2.3075   -2.1932 H         1 <0>         0.1555
      7 C5          1.8785   -2.0596   -0.1021 C.3       1 <0>        -0.1827
      8 C6          1.2061   -1.5198    1.1541 C.3       1 <0>         0.2999
      9 H3          1.9797   -1.4243    1.9161 H         1 <0>         0.1550
     10 O1          0.6555   -0.2442    0.9666 O.3       1 <0>        -0.3234
     11 N1          0.2189   -2.4746    1.6600 N.pl3     1 <0>        -0.5366
     12 C7          0.4705   -3.5508    2.4739 C.ar      1 <0>         0.1469
     13 C8          1.6649   -4.0152    3.0240 C.ar      1 <0>        -0.1522
     14 C9          1.5948   -5.1456    3.8201 C.ar      1 <0>        -0.0582
     15 C10         0.4006   -5.7997    4.0696 C.ar      1 <0>        -0.1457
     16 C11        -0.7984   -5.3597    3.5358 C.ar      1 <0>        -0.0280
     17 C12        -0.7487   -4.2198    2.7307 C.ar      1 <0>        -0.1131
     18 C13        -1.7893   -3.4830    2.0197 C.ar      1 <0>         0.0276
     19 C14        -1.1442   -2.4197    1.3841 C.ar      1 <0>         0.0376
     20 C15        -1.8806   -1.5095    0.6175 C.ar      1 <0>         0.0894
     21 N2         -1.4718   -0.3951   -0.1095 N.pl3     1 <0>        -0.5183
     22 C16        -2.5611    0.1913   -0.7090 C.ar      1 <0>         0.1618
     23 C17        -2.6521    1.3277   -1.5118 C.ar      1 <0>        -0.1305
     24 C18        -3.9109    1.6745   -1.9733 C.ar      1 <0>        -0.0737
     25 C19        -5.0393    0.9368   -1.6616 C.ar      1 <0>        -0.1358
     26 C20        -4.9745   -0.1955   -0.8662 C.ar      1 <0>        -0.0503
     27 C21        -3.7147   -0.5596   -0.3919 C.ar      1 <0>        -0.1042
     28 C22        -3.2693   -1.6660    0.4845 C.ar      1 <0>        -0.0360
     29 C23        -3.9084   -2.7313    1.1102 C.ar      1 <0>        -0.0288
     30 C24        -3.1873   -3.6421    1.8754 C.ar      1 <0>        -0.1255
     31 C25        -4.1221   -4.6480    2.4030 C.2       1 <0>         0.5632
     32 O2         -3.8062   -5.5851    3.1110 O.2       1 <0>        -0.5106
     33 N3         -5.3744   -4.3851    1.9926 N.am      1 <0>        -0.7162
     34 C26        -5.3495   -3.1771    1.1601 C.3       1 <0>         0.1358
     35 N4         -0.3067   -2.7008   -1.0216 N.4       1 <0>        -0.5252
     36 C27         0.0145   -4.1336   -0.9773 C.3       1 <0>        -0.0497
     37 O3         -0.3340   -0.2979   -2.5607 O.3       1 <0>        -0.3614
     38 C28         0.3101   -0.0933   -3.8198 C.3       1 <0>         0.0162
     39 H4          0.8261    2.0094    0.0240 H         1 <0>         0.0984
     40 H5         -0.3202    1.8814   -1.3317 H         1 <0>         0.1036
     41 H6         -0.9255    1.9818    0.3392 H         1 <0>         0.0921
     42 H7          2.1370   -3.1081    0.0458 H         1 <0>         0.1233
     43 H8          2.7835   -1.4869   -0.3048 H         1 <0>         0.1455
     44 H9          2.6036   -3.5149    2.8368 H         1 <0>         0.1365
     45 H10         2.5026   -5.5304    4.2610 H         1 <0>         0.1359
     46 H11         0.4045   -6.6780    4.6980 H         1 <0>         0.1352
     47 H12        -1.7278   -5.8736    3.7323 H         1 <0>         0.1600
     48 H13        -1.7792    1.9122   -1.7624 H         1 <0>         0.1440
     49 H14        -4.0153    2.5500   -2.5970 H         1 <0>         0.1336
     50 H15        -5.9967    1.2527   -2.0488 H         1 <0>         0.1332
     51 H16        -5.8575   -0.7687   -0.6249 H         1 <0>         0.1415
     52 H17        -6.1628   -4.9065    2.2103 H         1 <0>         0.4348
     53 H18        -5.9671   -2.3994    1.6094 H         1 <0>         0.1115
     54 H19        -5.7060   -3.4063    0.1559 H         1 <0>         0.1103
     55 H20        -0.6958   -2.4158   -0.1353 H         1 <0>         0.4186
     56 H21         0.4349   -4.4415   -1.9347 H         1 <0>         0.1256
     57 H22         0.7403   -4.3189   -0.1854 H         1 <0>         0.1191
     58 H23        -0.8932   -4.7035   -0.7789 H         1 <0>         0.1256
     59 H24         0.9168    0.8112   -3.7748 H         1 <0>         0.0633
     60 H25         0.9482   -0.9479   -4.0446 H         1 <0>         0.0514
     61 H26        -0.4433    0.0130   -4.6003 H         1 <0>         0.1100
     62 H27        -0.9785   -2.5293   -1.7546 H         1 <0>         0.4274
@<TRIPOS>BOND
     1    1    2 1
     2    1   39 1
     3    1   40 1
     4    1   41 1
     5    2   10 1
     6    2   21 1
     7    2    3 1
     8    3    4 1
     9    3    5 1
    10    3   37 1
    11    5    6 1
    12    5    7 1
    13    5   35 1
    14    7    8 1
    15    7   42 1
    16    7   43 1
    17    8    9 1
    18    8   10 1
    19    8   11 1
    20   11   19 1
    21   11   12 1
    22   12   17 ar
    23   12   13 ar
    24   13   14 ar
    25   13   44 1
    26   14   15 ar
    27   14   45 1
    28   15   16 ar
    29   15   46 1
    30   16   17 ar
    31   16   47 1
    32   17   18 1
    33   18   30 ar
    34   18   19 ar
    35   19   20 ar
    36   20   28 ar
    37   20   21 1
    38   21   22 1
    39   22   27 ar
    40   22   23 ar
    41   23   24 ar
    42   23   48 1
    43   24   25 ar
    44   24   49 1
    45   25   26 ar
    46   25   50 1
    47   26   27 ar
    48   26   51 1
    49   27   28 1
    50   28   29 ar
    51   29   34 1
    52   29   30 ar
    53   30   31 1
    54   31   32 2
    55   31   33 am
    56   33   34 1
    57   33   52 1
    58   34   53 1
    59   34   54 1
    60   35   36 1
    61   35   55 1
    62   35   62 1
    63   36   56 1
    64   36   57 1
    65   36   58 1
    66   37   38 1
    67   38   59 1
    68   38   60 1
    69   38   61 1
@<TRIPOS>MOLECULE
ZINC66080466
   42    43     0     0     0
SMALL
USER_CHARGES

@<TRIPOS>ATOM
      1 C1         -0.3101    1.5787   -1.0405 C.3       1 <0>        -0.1668
      2 C2         -0.3320    0.0570   -1.1974 C.3       1 <0>         0.1311
      3 N1         -1.5362   -0.4823   -0.5606 N.am      1 <0>        -0.7393
      4 C3         -1.7687   -1.8098   -0.5740 C.2       1 <0>         0.7058
      5 O1         -0.9789   -2.5599   -1.1145 O.2       1 <0>        -0.5690
      6 N2         -2.8765   -2.3058    0.0118 N.am      1 <0>        -0.6835
      7 C4         -3.1662   -3.6741   -0.0823 C.ar      1 <0>         0.1845
      8 C5         -2.1350   -4.6035   -0.0898 C.ar      1 <0>        -0.0954
      9 C6         -2.4208   -5.9513   -0.1820 C.ar      1 <0>        -0.0793
     10 C7         -3.7385   -6.3775   -0.2673 C.ar      1 <0>         0.0822
     11 C8         -4.7700   -5.4501   -0.2604 C.ar      1 <0>        -0.0847
     12 C9         -4.4858   -4.1012   -0.1624 C.ar      1 <0>        -0.0559
     13 Cl1        -5.7767   -2.9406   -0.1465 Cl        1 <0>        -0.0562
     14 O2         -4.0188   -7.7048   -0.3580 O.3       1 <0>        -0.2053
     15 C10        -3.9030   -8.4569    0.7618 C.ar      1 <0>         0.4177
     16 C11        -4.2732   -9.8122    0.7537 C.ar      1 <0>        -0.2481
     17 C12        -4.1301  -10.5425    1.9485 C.ar      1 <0>         0.4947
     18 N3         -3.6545   -9.9229    3.0250 N.ar      1 <0>        -0.5919
     19 C13        -3.3207   -8.6491    2.9830 C.ar      1 <0>         0.3938
     20 N4         -3.4323   -7.9276    1.8856 N.ar      1 <0>        -0.6014
     21 N5         -4.4780  -11.8787    2.0022 N.pl3     1 <0>        -0.8212
     22 C14        -4.7952  -10.4490   -0.4668 C.2       1 <0>         0.1542
     23 N6         -4.8272   -9.7871   -1.5796 N.2       1 <0>        -0.3129
     24 O3         -5.3292  -10.3995   -2.7535 O.3       1 <0>        -0.2467
     25 C15        -5.3053   -9.5545   -3.9057 C.3       1 <0>         0.0475
     26 H1          0.5858    1.9800   -1.5143 H         1 <0>         0.0781
     27 H2         -1.1939    2.0056   -1.5146 H         1 <0>         0.0627
     28 H3         -0.3066    1.8348    0.0190 H         1 <0>         0.0628
     29 H4         -0.3356   -0.1991   -2.2568 H         1 <0>         0.0697
     30 H5          0.5518   -0.3699   -0.7233 H         1 <0>         0.0700
     31 H6         -2.1662    0.1161   -0.1294 H         1 <0>         0.3993
     32 H7         -3.4733   -1.7161    0.4985 H         1 <0>         0.4102
     33 H8         -1.1091   -4.2723   -0.0238 H         1 <0>         0.1584
     34 H9         -1.6183   -6.6740   -0.1882 H         1 <0>         0.1369
     35 H10        -5.7954   -5.7824   -0.3274 H         1 <0>         0.1437
     36 H11        -2.9380   -8.1809    3.8779 H         1 <0>         0.2061
     37 H12        -4.7550  -12.3405    1.1954 H         1 <0>         0.4144
     38 H13        -4.4452  -12.3549    2.8466 H         1 <0>         0.4161
     39 H14        -5.1515  -11.4680   -0.4342 H         1 <0>         0.1202
     40 H15        -4.2787   -9.2532   -4.1140 H         1 <0>         0.0507
     41 H16        -5.7057  -10.0967   -4.7623 H         1 <0>         0.0961
     42 H17        -5.9132   -8.6691   -3.7196 H         1 <0>         0.0507
@<TRIPOS>BOND
     1    1    2 1
     2    1   26 1
     3    1   27 1
     4    1   28 1
     5    2    3 1
     6    2   29 1
     7    2   30 1
     8    3    4 am
     9    3   31 1
    10    4    5 2
    11    4    6 am
    12    6    7 1
    13    6   32 1
    14    7   12 ar
    15    7    8 ar
    16    8    9 ar
    17    8   33 1
    18    9   10 ar
    19    9   34 1
    20   10   11 ar
    21   10   14 1
    22   11   12 ar
    23   11   35 1
    24   12   13 1
    25   14   15 1
    26   15   20 ar
    27   15   16 ar
    28   16   17 ar
    29   16   22 1
    30   17   18 ar
    31   17   21 1
    32   18   19 ar
    33   19   20 ar
    34   19   36 1
    35   21   37 1
    36   21   38 1
    37   22   23 2
    38   22   39 1
    39   23   24 1
    40   24   25 1
    41   25   40 1
    42   25   41 1
    43   25   42 1
@<TRIPOS>MOLECULE
ZINC03938688
   39    41     0     0     0
SMALL
USER_CHARGES

@<TRIPOS>ATOM
      1 C1         -0.0095    1.3826    0.0704 C.ar      1 <0>        -0.0343
      2 C2          0.5587    1.0580   -1.1482 C.ar      1 <0>        -0.1609
      3 C3          1.7655    0.3862   -1.1955 C.ar      1 <0>         0.1753
      4 C4          2.4129    0.0342   -0.0053 C.ar      1 <0>        -0.1954
      5 C5          1.8304    0.3669    1.2233 C.ar      1 <0>         0.1741
      6 C6          0.6231    1.0388    1.2514 C.ar      1 <0>        -0.1610
      7 F1          2.4463    0.0317    2.3781 F         1 <0>        -0.1212
      8 C7          3.6999   -0.6827   -0.0456 C.2       1 <0>         0.6210
      9 O1          4.7383   -0.0615   -0.1600 O.2       1 <0>        -0.4669
     10 N1          3.7255   -2.0272    0.0446 N.am      1 <0>        -0.3962
     11 C8          4.8314   -2.8210    0.1249 C.2       1 <0>         0.5948
     12 N2          4.4249   -4.0694    0.1979 N.2       1 <0>        -0.5873
     13 C9          3.0869   -4.1118    0.1675 C.2       1 <0>         0.5191
     14 N3          2.6183   -2.8904    0.0808 N.2       1 <0>        -0.3480
     15 N4          2.3148   -5.2702    0.2247 N.pl3     1 <0>        -0.6226
     16 C10         2.9267   -6.5079    0.4407 C.ar      1 <0>         0.2365
     17 C11         4.1432   -6.5760    1.1080 C.ar      1 <0>        -0.1584
     18 C12         4.7450   -7.8008    1.3202 C.ar      1 <0>         0.0098
     19 C13         4.1379   -8.9586    0.8692 C.ar      1 <0>        -0.7033
     20 C14         2.9269   -8.8944    0.2046 C.ar      1 <0>         0.0112
     21 C15         2.3170   -7.6734   -0.0063 C.ar      1 <0>        -0.1777
     22 S1          4.9094  -10.5191    1.1415 S.o2      1 <0>         2.7034
     23 O2          4.4084  -11.3993    0.1448 O.2       1 <0>        -0.9656
     24 O3          6.2977  -10.2630    1.3036 O.2       1 <0>        -0.9650
     25 N5          4.3605  -11.0895    2.5960 N.pl3     1 <0>        -1.2510
     26 N6          6.1422   -2.3912    0.1281 N.pl3     1 <0>        -0.7911
     27 F2          2.3185    0.0697   -2.3868 F         1 <0>        -0.1201
     28 H1         -0.9506    1.9116    0.0998 H         1 <0>         0.1546
     29 H2          0.0576    1.3300   -2.0654 H         1 <0>         0.1549
     30 H3          0.1721    1.2963    2.1984 H         1 <0>         0.1546
     31 H4          1.3525   -5.2176    0.1147 H         1 <0>         0.4325
     32 H5          4.6180   -5.6722    1.4601 H         1 <0>         0.1556
     33 H6          5.6909   -7.8544    1.8385 H         1 <0>         0.1456
     34 H7          2.4556   -9.8005   -0.1466 H         1 <0>         0.1475
     35 H8          1.3691   -7.6243   -0.5215 H         1 <0>         0.1387
     36 H9          3.7284  -10.5673    3.1145 H         1 <0>         0.4165
     37 H10         4.6709  -11.9458    2.9296 H         1 <0>         0.4206
     38 H11         6.3422   -1.4439    0.0694 H         1 <0>         0.4292
     39 H12         6.8640   -3.0364    0.1890 H         1 <0>         0.4303
@<TRIPOS>BOND
     1    1    6 ar
     2    1    2 ar
     3    1   28 1
     4    2    3 ar
     5    2   29 1
     6    3    4 ar
     7    3   27 1
     8    4    5 ar
     9    4    8 1
    10    5    6 ar
    11    5    7 1
    12    6   30 1
    13    8    9 2
    14    8   10 am
    15   10   14 1
    16   10   11 1
    17   11   12 2
    18   11   26 1
    19   12   13 1
    20   13   14 2
    21   13   15 1
    22   15   16 1
    23   15   31 1
    24   16   21 ar
    25   16   17 ar
    26   17   18 ar
    27   17   32 1
    28   18   19 ar
    29   18   33 1
    30   19   20 ar
    31   19   22 1
    32   20   21 ar
    33   20   34 1
    34   21   35 1
    35   22   23 2
    36   22   24 2
    37   22   25 1
    38   25   36 1
    39   25   37 1
    40   26   38 1
    41   26   39 1
@<TRIPOS>MOLECULE
ZINC16697102
   68    71     0     0     0
SMALL
USER_CHARGES

@<TRIPOS>ATOM
      1 C1          0.1414    1.0953    0.0252 C.3       1 <0>        -0.1879
      2 C2          0.0344   -0.4077    0.2904 C.3       1 <0>        -0.0179
      3 N1         -1.3805   -0.7845    0.4095 N.4       1 <0>        -0.3831
      4 C3         -1.4799   -2.1986    0.7946 C.3       1 <0>        -0.0114
      5 C4         -0.8914   -2.3887    2.1940 C.3       1 <0>        -0.1507
      6 C5         -0.9950   -3.8615    2.5951 C.3       1 <0>         0.0609
      7 O1         -0.4452   -4.0391    3.9021 O.3       1 <0>        -0.3065
      8 C6         -0.4595   -5.2979    4.4111 C.ar      1 <0>         0.1651
      9 C7         -0.9928   -6.3439    3.6526 C.ar      1 <0>        -0.2107
     10 C8         -1.0196   -7.6158    4.1389 C.ar      1 <0>        -0.0238
     11 C9         -0.5074   -7.8823    5.4144 C.ar      1 <0>        -0.2178
     12 C10         0.0354   -6.8287    6.1913 C.ar      1 <0>         0.2289
     13 C11         0.0571   -5.5307    5.6679 C.ar      1 <0>        -0.1455
     14 N2          0.5204   -7.1100    7.4103 N.ar      1 <0>        -0.5500
     15 C12         0.4909   -8.3384    7.8707 C.ar      1 <0>         0.3626
     16 N3         -0.0056   -9.3531    7.1820 N.ar      1 <0>        -0.5775
     17 C13        -0.5106   -9.1853    5.9662 C.ar      1 <0>         0.4884
     18 N4         -1.0254  -10.2523    5.2597 N.pl3     1 <0>        -0.5978
     19 C14        -1.0192  -11.5341    5.8239 C.2       1 <0>         0.2990
     20 C15        -0.5280  -11.8736    7.0950 C.2       1 <0>        -0.2355
     21 C16        -0.7031  -13.2037    7.2657 C.2       1 <0>         0.1068
     22 N5         -1.2824  -13.6919    6.1487 N.pl3     1 <0>        -0.4559
     23 H1         -1.5251  -14.6176    5.9907 H         1 <0>         0.4419
     24 N6         -1.4765  -12.6271    5.2595 N.2       1 <0>        -0.3116
     25 C17        -0.3191  -13.9996    8.4864 C.3       1 <0>        -0.0770
     26 C18        -1.4265  -13.9219    9.5056 C.2       1 <0>         0.5143
     27 O2         -2.4289  -13.2831    9.2644 O.2       1 <0>        -0.5002
     28 N7         -1.3030  -14.5622   10.6851 N.am      1 <0>        -0.6720
     29 C19        -2.2828  -14.4064   11.6717 C.ar      1 <0>         0.1711
     30 C20        -1.9219  -14.3818   13.0129 C.ar      1 <0>        -0.1532
     31 C21        -2.8902  -14.2274   13.9854 C.ar      1 <0>        -0.0700
     32 C22        -4.2191  -14.0976   13.6262 C.ar      1 <0>        -0.1667
     33 C23        -4.5833  -14.1215   12.2902 C.ar      1 <0>         0.1178
     34 C24        -3.6165  -14.2702   11.3118 C.ar      1 <0>        -0.1591
     35 F1         -5.8825  -13.9949   11.9421 F         1 <0>        -0.1354
     36 C25        -2.0519   -0.5800   -0.8810 C.3       1 <0>        -0.0098
     37 C26        -3.5535   -0.8247   -0.7191 C.3       1 <0>         0.0446
     38 O3         -4.1050    0.1610    0.1562 O.3       1 <0>        -0.5793
     39 H2          1.1903    1.3917    0.0323 H         1 <0>         0.1072
     40 H3         -0.2944    1.3246   -0.9472 H         1 <0>         0.0804
     41 H4         -0.3955    1.6404    0.8016 H         1 <0>         0.0817
     42 H5          0.4880   -0.9556   -0.5355 H         1 <0>         0.1307
     43 H6          0.5544   -0.6511    1.2170 H         1 <0>         0.1338
     44 H7         -2.5269   -2.5019    0.7965 H         1 <0>         0.1336
     45 H8         -0.9261   -2.8092    0.0814 H         1 <0>         0.1348
     46 H9          0.1556   -2.0854    2.1921 H         1 <0>         0.1011
     47 H10        -1.4452   -1.7781    2.9071 H         1 <0>         0.1012
     48 H11        -2.0419   -4.1648    2.5970 H         1 <0>         0.0752
     49 H12        -0.4411   -4.4721    1.8820 H         1 <0>         0.0757
     50 H13        -1.3888   -6.1408    2.6686 H         1 <0>         0.1349
     51 H14        -1.4346   -8.4154    3.5432 H         1 <0>         0.1334
     52 H15         0.4712   -4.7175    6.2456 H         1 <0>         0.1508
     53 H16         0.8901   -8.5298    8.8558 H         1 <0>         0.2027
     54 H17        -1.3916  -10.1149    4.3721 H         1 <0>         0.4252
     55 H18        -0.0885  -11.1933    7.8093 H         1 <0>         0.1852
     56 H19        -0.1563  -15.0401    8.2054 H         1 <0>         0.1142
     57 H20         0.5968  -13.5910    8.9133 H         1 <0>         0.1312
     58 H21        -0.5348  -15.1312   10.8499 H         1 <0>         0.4166
     59 H22        -0.8844  -14.4838   13.2950 H         1 <0>         0.1350
     60 H23        -2.6091  -14.2084   15.0280 H         1 <0>         0.1399
     61 H24        -4.9744  -13.9777   14.3888 H         1 <0>         0.1383
     62 H25        -3.8995  -14.2849   10.2696 H         1 <0>         0.1494
     63 H26        -1.8848    0.4425   -1.2196 H         1 <0>         0.1421
     64 H27        -1.6474   -1.2765   -1.6154 H         1 <0>         0.1431
     65 H28        -4.0394   -0.7588   -1.6926 H         1 <0>         0.0960
     66 H29        -3.7166   -1.8167   -0.2980 H         1 <0>         0.0707
     67 H30        -5.0389    0.0226    0.3657 H         1 <0>         0.4093
     68 H31        -1.8228   -0.2123    1.1131 H         1 <0>         0.4316
@<TRIPOS>BOND
     1    1    2 1
     2    1   39 1
     3    1   40 1
     4    1   41 1
     5    2    3 1
     6    2   42 1
     7    2   43 1
     8    3    4 1
     9    3   36 1
    10    3   68 1
    11    4    5 1
    12    4   44 1
    13    4   45 1
    14    5    6 1
    15    5   46 1
    16    5   47 1
    17    6    7 1
    18    6   48 1
    19    6   49 1
    20    7    8 1
    21    8   13 ar
    22    8    9 ar
    23    9   10 ar
    24    9   50 1
    25   10   11 ar
    26   10   51 1
    27   11   17 ar
    28   11   12 ar
    29   12   13 ar
    30   12   14 ar
    31   13   52 1
    32   14   15 ar
    33   15   16 ar
    34   15   53 1
    35   16   17 ar
    36   17   18 1
    37   18   19 1
    38   18   54 1
    39   19   24 2
    40   19   20 1
    41   20   21 2
    42   20   55 1
    43   21   22 1
    44   21   25 1
    45   22   23 1
    46   22   24 1
    47   25   26 1
    48   25   56 1
    49   25   57 1
    50   26   27 2
    51   26   28 am
    52   28   29 1
    53   28   58 1
    54   29   34 ar
    55   29   30 ar
    56   30   31 ar
    57   30   59 1
    58   31   32 ar
    59   31   60 1
    60   32   33 ar
    61   32   61 1
    62   33   34 ar
    63   33   35 1
    64   34   62 1
    65   36   37 1
    66   36   63 1
    67   36   64 1
    68   37   38 1
    69   37   65 1
    70   37   66 1
    71   38   67 1
@<TRIPOS>MOLECULE
ZINC16697102
   68    71     0     0     0
SMALL
USER_CHARGES

@<TRIPOS>ATOM
      1 C1          0.1009    1.0895    0.0671 C.3       1 <0>        -0.1880
      2 C2          0.0005   -0.4150    0.3267 C.3       1 <0>        -0.0178
      3 N1         -1.4127   -0.7982    0.4447 N.4       1 <0>        -0.3831
      4 C3         -1.5060   -2.2142    0.8244 C.3       1 <0>        -0.0114
      5 C4         -0.9163   -2.4070    2.2230 C.3       1 <0>        -0.1510
      6 C5         -1.0135   -3.8818    2.6185 C.3       1 <0>         0.0610
      7 O1         -0.4626   -4.0619    3.9247 O.3       1 <0>        -0.3058
      8 C6         -0.4714   -5.3227    4.4290 C.ar      1 <0>         0.1652
      9 C7         -1.0003   -6.3681    3.6667 C.ar      1 <0>        -0.2079
     10 C8         -1.0216   -7.6420    4.1481 C.ar      1 <0>        -0.0271
     11 C9         -0.5079   -7.9111    5.4225 C.ar      1 <0>        -0.2157
     12 C10         0.0306   -6.8581    6.2032 C.ar      1 <0>         0.2279
     13 C11         0.0466   -5.5580    5.6848 C.ar      1 <0>        -0.1434
     14 N2          0.5172   -7.1419    7.4211 N.ar      1 <0>        -0.5462
     15 C12         0.4930   -8.3722    7.8768 C.ar      1 <0>         0.3627
     16 N3          0.0007   -9.3864    7.1844 N.ar      1 <0>        -0.5729
     17 C13        -0.5054   -9.2161    5.9694 C.ar      1 <0>         0.4842
     18 N4         -1.0159  -10.2829    5.2588 N.pl3     1 <0>        -0.6133
     19 C14        -1.0041  -11.5601    5.8152 C.2       1 <0>         0.2975
     20 C15        -0.5278  -11.8985    7.0451 C.2       1 <0>        -0.2522
     21 C16        -0.7053  -13.2747    7.2096 C.2       1 <0>         0.0931
     22 N5         -1.2647  -13.7522    6.1276 N.2       1 <0>        -0.2441
     23 N6         -1.4709  -12.6946    5.2325 N.pl3     1 <0>        -0.4898
     24 H1         -1.8732  -12.7611    4.3523 H         1 <0>         0.4364
     25 C17        -0.3175  -14.0738    8.4270 C.3       1 <0>        -0.0571
     26 C18        -1.5188  -14.8275    8.9368 C.2       1 <0>         0.5153
     27 O2         -2.5849  -14.7257    8.3676 O.2       1 <0>        -0.4982
     28 N7         -1.4084  -15.6146   10.0253 N.am      1 <0>        -0.6749
     29 C19        -2.5443  -16.2321   10.5602 C.ar      1 <0>         0.1739
     30 C20        -2.6655  -16.3952   11.9344 C.ar      1 <0>        -0.1553
     31 C21        -3.7876  -17.0044   12.4607 C.ar      1 <0>        -0.0709
     32 C22        -4.7909  -17.4530   11.6216 C.ar      1 <0>        -0.1690
     33 C23        -4.6742  -17.2924   10.2511 C.ar      1 <0>         0.1173
     34 C24        -3.5547  -16.6775    9.7191 C.ar      1 <0>        -0.1594
     35 F1         -5.6558  -17.7320    9.4336 F         1 <0>        -0.1360
     36 C25        -2.0854   -0.5918   -0.8449 C.3       1 <0>        -0.0099
     37 C26        -3.5858   -0.8435   -0.6835 C.3       1 <0>         0.0446
     38 O3         -4.1414    0.1365    0.1957 O.3       1 <0>        -0.5792
     39 H2          1.1486    1.3904    0.0751 H         1 <0>         0.1074
     40 H3         -0.3361    1.3206   -0.9043 H         1 <0>         0.0805
     41 H4         -0.4380    1.6293    0.8457 H         1 <0>         0.0817
     42 H5          0.4562   -0.9578   -0.5014 H         1 <0>         0.1308
     43 H6          0.5217   -0.6596    1.2522 H         1 <0>         0.1337
     44 H7         -2.5517   -2.5220    0.8255 H         1 <0>         0.1335
     45 H8         -0.9498   -2.8197    0.1089 H         1 <0>         0.1347
     46 H9          0.1294   -2.0993    2.2220 H         1 <0>         0.1014
     47 H10        -1.4725   -1.8015    2.9385 H         1 <0>         0.1015
     48 H11        -2.0591   -4.1896    2.6196 H         1 <0>         0.0752
     49 H12        -0.4572   -4.4873    1.9030 H         1 <0>         0.0757
     50 H13        -1.3975   -6.1630    2.6836 H         1 <0>         0.1354
     51 H14        -1.4333   -8.4411    3.5496 H         1 <0>         0.1313
     52 H15         0.4574   -4.7453    6.2654 H         1 <0>         0.1520
     53 H16         0.8932   -8.5656    8.8611 H         1 <0>         0.2055
     54 H17        -1.3830  -10.1437    4.3718 H         1 <0>         0.4209
     55 H18        -0.0902  -11.2232    7.7655 H         1 <0>         0.1880
     56 H19         0.4693  -14.7803    8.1624 H         1 <0>         0.1181
     57 H20         0.0452  -13.4002    9.2034 H         1 <0>         0.1229
     58 H21        -0.5415  -15.7530   10.4378 H         1 <0>         0.4158
     59 H22        -1.8824  -16.0460   12.5909 H         1 <0>         0.1343
     60 H23        -3.8814  -17.1310   13.5291 H         1 <0>         0.1388
     61 H24        -5.6670  -17.9297   12.0358 H         1 <0>         0.1372
     62 H25        -3.4650  -16.5484    8.6506 H         1 <0>         0.1513
     63 H26        -1.9227    0.4328   -1.1796 H         1 <0>         0.1424
     64 H27        -1.6780   -1.2838   -1.5820 H         1 <0>         0.1432
     65 H28        -4.0723   -0.7760   -1.6566 H         1 <0>         0.0961
     66 H29        -3.7446   -1.8378   -0.2661 H         1 <0>         0.0704
     67 H30        -5.0746   -0.0067    0.4048 H         1 <0>         0.4093
     68 H31        -1.8573   -0.2307    1.1505 H         1 <0>         0.4316
@<TRIPOS>BOND
     1    1    2 1
     2    1   39 1
     3    1   40 1
     4    1   41 1
     5    2    3 1
     6    2   42 1
     7    2   43 1
     8    3    4 1
     9    3   36 1
    10    3   68 1
    11    4    5 1
    12    4   44 1
    13    4   45 1
    14    5    6 1
    15    5   46 1
    16    5   47 1
    17    6    7 1
    18    6   48 1
    19    6   49 1
    20    7    8 1
    21    8   13 ar
    22    8    9 ar
    23    9   10 ar
    24    9   50 1
    25   10   11 ar
    26   10   51 1
    27   11   17 ar
    28   11   12 ar
    29   12   13 ar
    30   12   14 ar
    31   13   52 1
    32   14   15 ar
    33   15   16 ar
    34   15   53 1
    35   16   17 ar
    36   17   18 1
    37   18   19 1
    38   18   54 1
    39   19   23 1
    40   19   20 2
    41   20   21 1
    42   20   55 1
    43   21   22 2
    44   21   25 1
    45   22   23 1
    46   23   24 1
    47   25   26 1
    48   25   56 1
    49   25   57 1
    50   26   27 2
    51   26   28 am
    52   28   29 1
    53   28   58 1
    54   29   34 ar
    55   29   30 ar
    56   30   31 ar
    57   30   59 1
    58   31   32 ar
    59   31   60 1
    60   32   33 ar
    61   32   61 1
    62   33   34 ar
    63   33   35 1
    64   34   62 1
    65   36   37 1
    66   36   63 1
    67   36   64 1
    68   37   38 1
    69   37   65 1
    70   37   66 1
    71   38   67 1
@<TRIPOS>MOLECULE
ZINC06718813
   46    49     0     0     0
SMALL
USER_CHARGES
3-[4-(3-amino-1H-indazol-4-yl)phenyl]-1-(2-fluoro-5-methyl-phenyl)urea
@<TRIPOS>ATOM
      1 C1          6.9492   -0.6708   -4.4566 C.3       1 <0>        -0.1151
      2 C2          7.3188   -0.0066   -3.1554 C.ar      1 <0>        -0.0747
      3 C3          8.6152   -0.0905   -2.6815 C.ar      1 <0>        -0.1060
      4 C4          8.9590    0.5169   -1.4879 C.ar      1 <0>        -0.1295
      5 C5          8.0061    1.2101   -0.7639 C.ar      1 <0>         0.0645
      6 C6          6.7020    1.2957   -1.2387 C.ar      1 <0>         0.1336
      7 C7          6.3607    0.6802   -2.4351 C.ar      1 <0>        -0.0953
      8 N1          5.7336    1.9963   -0.5085 N.am      1 <0>        -0.6783
      9 C8          4.4547    1.5712   -0.5040 C.2       1 <0>         0.7069
     10 O1          4.1265    0.6239   -1.1921 O.2       1 <0>        -0.5500
     11 N2          3.5395    2.1961    0.2631 N.am      1 <0>        -0.6801
     12 C9          2.2409    1.6865    0.3572 C.ar      1 <0>         0.1677
     13 C10         1.1632    2.5541    0.4899 C.ar      1 <0>        -0.1430
     14 C11        -0.1180    2.0545    0.5834 C.ar      1 <0>        -0.0892
     15 C12        -0.3326    0.6766    0.5442 C.ar      1 <0>        -0.0682
     16 C13         0.7509   -0.1919    0.4104 C.ar      1 <0>        -0.0779
     17 C14         2.0300    0.3132    0.3174 C.ar      1 <0>        -0.1142
     18 C15        -1.7083    0.1367    0.6449 C.ar      1 <0>         0.0376
     19 C16        -2.0347   -0.7648    1.6483 C.ar      1 <0>        -0.1557
     20 C17        -3.3230   -1.2675    1.7456 C.ar      1 <0>        -0.0592
     21 C18        -4.2968   -0.8911    0.8473 C.ar      1 <0>        -0.1529
     22 C19        -3.9969    0.0086   -0.1734 C.ar      1 <0>         0.1547
     23 C20        -2.6946    0.5292   -0.2801 C.ar      1 <0>        -0.1858
     24 C21        -2.7034    1.4283   -1.4324 C.2       1 <0>         0.3642
     25 N3         -3.9099    1.4169   -1.9352 N.2       1 <0>        -0.3205
     26 N4         -4.7292    0.5606   -1.1926 N.pl3     1 <0>        -0.5119
     27 H1         -5.6955    0.3797   -1.3759 H         1 <0>         0.4473
     28 N5         -1.6172    2.1667   -1.9108 N.pl3     1 <0>        -0.8360
     29 F1          8.3418    1.8036    0.4023 F         1 <0>        -0.1384
     30 H2          6.6188   -1.6912   -4.2627 H         1 <0>         0.0755
     31 H3          6.1436   -0.1125   -4.9335 H         1 <0>         0.0695
     32 H4          7.8178   -0.6890   -5.1149 H         1 <0>         0.0704
     33 H5          9.3607   -0.6319   -3.2448 H         1 <0>         0.1352
     34 H6          9.9724    0.4496   -1.1204 H         1 <0>         0.1410
     35 H7          5.3477    0.7413   -2.8045 H         1 <0>         0.1523
     36 H8          5.9835    2.7876   -0.0061 H         1 <0>         0.4118
     37 H9          3.7818    2.9993    0.7499 H         1 <0>         0.4106
     38 H10         1.3298    3.6208    0.5203 H         1 <0>         0.1310
     39 H11        -0.9554    2.7293    0.6824 H         1 <0>         0.1315
     40 H12         0.5876   -1.2590    0.3794 H         1 <0>         0.1314
     41 H13         2.8692   -0.3587    0.2138 H         1 <0>         0.1391
     42 H14        -1.2822   -1.0738    2.3586 H         1 <0>         0.1292
     43 H15        -3.5651   -1.9655    2.5334 H         1 <0>         0.1325
     44 H16        -5.2951   -1.2940    0.9345 H         1 <0>         0.1278
     45 H17        -0.7342    2.0309   -1.5329 H         1 <0>         0.4118
     46 H18        -1.7465    2.8151   -2.6206 H         1 <0>         0.4050
@<TRIPOS>BOND
     1    1    2 1
     2    1   30 1
     3    1   31 1
     4    1   32 1
     5    2    7 ar
     6    2    3 ar
     7    3    4 ar
     8    3   33 1
     9    4    5 ar
    10    4   34 1
    11    5    6 ar
    12    5   29 1
    13    6    7 ar
    14    6    8 1
    15    7   35 1
    16    8    9 am
    17    8   36 1
    18    9   10 2
    19    9   11 am
    20   11   12 1
    21   11   37 1
    22   12   17 ar
    23   12   13 ar
    24   13   14 ar
    25   13   38 1
    26   14   15 ar
    27   14   39 1
    28   15   16 ar
    29   15   18 1
    30   16   17 ar
    31   16   40 1
    32   17   41 1
    33   18   23 ar
    34   18   19 ar
    35   19   20 ar
    36   19   42 1
    37   20   21 ar
    38   20   43 1
    39   21   22 ar
    40   21   44 1
    41   22   26 1
    42   22   23 ar
    43   23   24 1
    44   24   25 2
    45   24   28 1
    46   25   26 1
    47   26   27 1
    48   28   45 1
    49   28   46 1
@<TRIPOS>MOLECULE
ZINC14965294
   63    67     0     0     0
SMALL
USER_CHARGES
4-[[2-[[4-chloro-3-[[(2S)-1-methylpyrrolidin-2-yl]methoxy]phenyl]amino]-1,3-benzoxazol-5-yl]oxy]-N-methyl-pyridine-2-carboxamide
@<TRIPOS>ATOM
      1 C1        -13.7281    0.6446    5.1022 C.3       1 <0>         0.0839
      2 N1        -12.2870    0.5892    4.8445 N.am      1 <0>        -0.7127
      3 C2        -11.8065    0.9193    3.6293 C.2       1 <0>         0.5702
      4 O1        -12.5687    1.2629    2.7475 O.2       1 <0>        -0.5245
      5 C3        -10.3489    0.8632    3.3687 C.ar      1 <0>         0.1155
      6 C4         -9.8593    1.2108    2.1139 C.ar      1 <0>        -0.1328
      7 C5         -8.4874    1.1472    1.8837 C.ar      1 <0>         0.1579
      8 C6         -7.6590    0.7469    2.9288 C.ar      1 <0>        -0.2285
      9 C7         -8.2201    0.4224    4.1506 C.ar      1 <0>         0.1389
     10 N2         -9.5215    0.4868    4.3368 N.ar      1 <0>        -0.4773
     11 O2         -7.9699    1.4727    0.6718 O.3       1 <0>        -0.2394
     12 C8         -6.6170    1.4887    0.5390 C.ar      1 <0>         0.0926
     13 C9         -5.9388    2.7028    0.5025 C.ar      1 <0>        -0.0970
     14 C10        -4.5659    2.7320    0.3685 C.ar      1 <0>        -0.0616
     15 C11        -3.8548    1.5472    0.2683 C.ar      1 <0>         0.0039
     16 C12        -4.5323    0.3193    0.3039 C.ar      1 <0>         0.0682
     17 C13        -5.9209    0.2985    0.4402 C.ar      1 <0>        -0.0835
     18 N3         -3.5863   -0.6518    0.1813 N.2       1 <0>        -0.5055
     19 C14        -2.4114   -0.0836    0.0855 C.2       1 <0>         0.4915
     20 O3         -2.5403    1.2540    0.1319 O.3       1 <0>        -0.2175
     21 N4         -1.2172   -0.7574   -0.0492 N.pl3     1 <0>        -0.6094
     22 C15        -0.0087   -0.0545   -0.0052 C.ar      1 <0>         0.2115
     23 C16         0.0728    1.1455    0.6901 C.ar      1 <0>        -0.1617
     24 C17         1.2661    1.8401    0.7333 C.ar      1 <0>        -0.0313
     25 C18         2.3820    1.3433    0.0850 C.ar      1 <0>        -0.0837
     26 C19         2.3058    0.1443   -0.6114 C.ar      1 <0>         0.1596
     27 C20         1.1101   -0.5549   -0.6566 C.ar      1 <0>        -0.2268
     28 O4          3.4031   -0.3429   -1.2486 O.3       1 <0>        -0.3096
     29 C21         3.2520   -1.5812   -1.9457 C.3       1 <0>         0.0375
     30 C22         4.5828   -1.9666   -2.5949 C.3       1 <0>         0.0329
     31 H1          4.9619   -1.1434   -3.2005 H         1 <0>         0.1534
     32 C23         4.4135   -3.2359   -3.4573 C.3       1 <0>        -0.1411
     33 C24         5.7173   -4.0349   -3.2546 C.3       1 <0>        -0.1483
     34 C25         6.5647   -3.1813   -2.2869 C.3       1 <0>        -0.0069
     35 C26         6.2123   -1.1603   -0.9752 C.3       1 <0>        -0.0397
     36 Cl1         3.8796    2.2194    0.1418 Cl        1 <0>        -0.0465
     37 H2        -14.0865    1.6619    4.9448 H         1 <0>         0.0645
     38 H3        -14.2452   -0.0321    4.4218 H         1 <0>         0.0644
     39 H4        -13.9249    0.3453    6.1316 H         1 <0>         0.0810
     40 H5        -11.6787    0.3149    5.5484 H         1 <0>         0.4138
     41 H6        -10.5332    1.5213    1.3292 H         1 <0>         0.1610
     42 H7         -6.5898    0.6909    2.7871 H         1 <0>         0.1446
     43 H8         -7.5811    0.1111    4.9637 H         1 <0>         0.1696
     44 H9         -6.4904    3.6281    0.5796 H         1 <0>         0.1566
     45 H10        -4.0459    3.6782    0.3412 H         1 <0>         0.1500
     46 H11        -6.4492   -0.6430    0.4687 H         1 <0>         0.1485
     47 H12        -1.2145   -1.7193   -0.1745 H         1 <0>         0.4450
     48 H13        -0.7985    1.5378    1.1935 H         1 <0>         0.1477
     49 H14         1.3276    2.7728    1.2742 H         1 <0>         0.1543
     50 H15         1.0489   -1.4874   -1.1980 H         1 <0>         0.1445
     51 H16         2.9515   -2.3590   -1.2437 H         1 <0>         0.0895
     52 H17         2.4893   -1.4733   -2.7168 H         1 <0>         0.1131
     53 H18         3.5568   -3.8156   -3.1135 H         1 <0>         0.1030
     54 H19         4.2933   -2.9673   -4.5068 H         1 <0>         0.1171
     55 H20         5.5007   -5.0069   -2.8115 H         1 <0>         0.1022
     56 H21         6.2362   -4.1601   -4.2050 H         1 <0>         0.1137
     57 H22         7.1090   -3.8213   -1.5925 H         1 <0>         0.1399
     58 H23         7.2575   -2.5503   -2.8437 H         1 <0>         0.1341
     59 H24         5.4523   -0.5277   -0.5165 H         1 <0>         0.1326
     60 H25         6.9334   -1.4688   -0.2183 H         1 <0>         0.1248
     61 H26         6.7246   -0.6026   -1.7592 H         1 <0>         0.1192
     62 N5          5.5663   -2.3627   -1.5897 N.4       1 <0>        -0.3946
     63 H27         5.1116   -2.9146   -0.8528 H         1 <0>         0.4280
@<TRIPOS>BOND
     1    1    2 1
     2    1   37 1
     3    1   38 1
     4    1   39 1
     5    2    3 am
     6    2   40 1
     7    3    4 2
     8    3    5 1
     9    5   10 ar
    10    5    6 ar
    11    6    7 ar
    12    6   41 1
    13    7    8 ar
    14    7   11 1
    15    8    9 ar
    16    8   42 1
    17    9   10 ar
    18    9   43 1
    19   11   12 1
    20   12   17 ar
    21   12   13 ar
    22   13   14 ar
    23   13   44 1
    24   14   15 ar
    25   14   45 1
    26   15   20 1
    27   15   16 ar
    28   16   17 ar
    29   16   18 1
    30   17   46 1
    31   18   19 2
    32   19   20 1
    33   19   21 1
    34   21   22 1
    35   21   47 1
    36   22   27 ar
    37   22   23 ar
    38   23   24 ar
    39   23   48 1
    40   24   25 ar
    41   24   49 1
    42   25   26 ar
    43   25   36 1
    44   26   27 ar
    45   26   28 1
    46   27   50 1
    47   28   29 1
    48   29   30 1
    49   29   51 1
    50   29   52 1
    51   30   31 1
    52   30   32 1
    53   30   62 1
    54   32   33 1
    55   32   53 1
    56   32   54 1
    57   33   34 1
    58   33   55 1
    59   33   56 1
    60   34   57 1
    61   34   58 1
    62   34   62 1
    63   35   59 1
    64   35   60 1
    65   35   61 1
    66   35   62 1
    67   62   63 1
@<TRIPOS>MOLECULE
ZINC03834198
   55    58     0     0     0
SMALL
USER_CHARGES

@<TRIPOS>ATOM
      1 C1          2.2102    1.3214   -1.5438 C.3       1 <0>        -0.0473
      2 N1          2.0302   -0.1310   -1.4177 N.4       1 <0>        -0.3861
      3 C2          2.8485   -0.8135   -2.4272 C.3       1 <0>        -0.0039
      4 C3          2.6029   -2.3220   -2.3537 C.3       1 <0>        -0.1426
      5 C4          2.9828   -2.8281   -0.9591 C.3       1 <0>        -0.0980
      6 C5          2.1768   -2.0570    0.0901 C.3       1 <0>        -0.1436
      7 C6          2.4382   -0.5583   -0.0740 C.3       1 <0>        -0.0065
      8 C7          2.6653   -4.3210   -0.8526 C.3       1 <0>         0.0553
      9 O1          3.1265   -4.8175    0.4056 O.3       1 <0>        -0.2959
     10 C8          2.9210   -6.1358    0.6612 C.ar      1 <0>         0.1621
     11 C9          2.2972   -6.9233   -0.2811 C.ar      1 <0>        -0.1791
     12 C10         2.0867   -8.2816   -0.0149 C.ar      1 <0>         0.2018
     13 C11         2.5192   -8.8246    1.2204 C.ar      1 <0>        -0.1784
     14 C12         3.1508   -8.0026    2.1612 C.ar      1 <0>        -0.1424
     15 C13         3.3512   -6.6812    1.8787 C.ar      1 <0>         0.1099
     16 O2          3.9702   -5.8850    2.7909 O.3       1 <0>        -0.3030
     17 C14         4.3854   -6.4992    4.0125 C.3       1 <0>         0.0198
     18 C15         2.2930  -10.2009    1.4605 C.ar      1 <0>         0.4667
     19 N2          1.6881  -10.9114    0.5174 N.ar      1 <0>        -0.5768
     20 C16         1.3012  -10.3606   -0.6222 C.ar      1 <0>         0.3478
     21 N3          1.4842   -9.0917   -0.8996 N.ar      1 <0>        -0.5414
     22 N4          2.6915  -10.7885    2.6441 N.pl3     1 <0>        -0.6296
     23 C17         2.5831  -12.1741    2.8088 C.ar      1 <0>         0.1376
     24 C18         2.4560  -12.9987    1.6992 C.ar      1 <0>        -0.1039
     25 C19         2.3491  -14.3660    1.8644 C.ar      1 <0>        -0.0732
     26 C20         2.3685  -14.9152    3.1341 C.ar      1 <0>        -0.0857
     27 C21         2.4949  -14.0974    4.2430 C.ar      1 <0>        -0.1007
     28 C22         2.6081  -12.7284    4.0841 C.ar      1 <0>         0.0686
     29 F1          2.7372  -11.9301    5.1664 F         1 <0>        -0.1332
     30 Br1         2.2212  -16.7875    3.3546 Br        1 <0>        -0.0295
     31 H1          3.2589    1.5727   -1.3848 H         1 <0>         0.1219
     32 H2          1.9075    1.6398   -2.5414 H         1 <0>         0.1242
     33 H3          1.5979    1.8295   -0.7989 H         1 <0>         0.1242
     34 H4          2.5792   -0.4499   -3.4189 H         1 <0>         0.1343
     35 H5          3.9024   -0.6078   -2.2397 H         1 <0>         0.1306
     36 H6          1.5493   -2.5288   -2.5414 H         1 <0>         0.0934
     37 H7          3.2127   -2.8271   -3.1028 H         1 <0>         0.1176
     38 H8          4.0478   -2.6678   -0.7908 H         1 <0>         0.1030
     39 H9          1.1143   -2.2583   -0.0469 H         1 <0>         0.0893
     40 H10         2.4820   -2.3726    1.0878 H         1 <0>         0.1210
     41 H11         3.5008   -0.3580    0.0634 H         1 <0>         0.1299
     42 H12         1.8660   -0.0063    0.6716 H         1 <0>         0.1325
     43 H13         1.5883   -4.4698   -0.9292 H         1 <0>         0.0742
     44 H14         3.1645   -4.8571   -1.6597 H         1 <0>         0.0787
     45 H15         1.9724   -6.4960   -1.2182 H         1 <0>         0.1540
     46 H16         3.4818   -8.4122    3.1042 H         1 <0>         0.1414
     47 H17         4.8638   -5.7549    4.6491 H         1 <0>         0.1093
     48 H18         3.5165   -6.9116    4.5254 H         1 <0>         0.0597
     49 H19         5.0925   -7.2996    3.7947 H         1 <0>         0.0600
     50 H20         0.8133  -10.9840   -1.3569 H         1 <0>         0.2036
     51 H21         3.0467  -10.2411    3.3618 H         1 <0>         0.4241
     52 H22         2.4404  -12.5714    0.7074 H         1 <0>         0.1818
     53 H23         2.2499  -15.0072    1.0010 H         1 <0>         0.1463
     54 H24         2.5094  -14.5289    5.2329 H         1 <0>         0.1515
     55 H25         1.0589   -0.3624   -1.5626 H         1 <0>         0.4246
@<TRIPOS>BOND
     1    1    2 1
     2    1   31 1
     3    1   32 1
     4    1   33 1
     5    2    7 1
     6    2    3 1
     7    2   55 1
     8    3    4 1
     9    3   34 1
    10    3   35 1
    11    4    5 1
    12    4   36 1
    13    4   37 1
    14    5    6 1
    15    5    8 1
    16    5   38 1
    17    6    7 1
    18    6   39 1
    19    6   40 1
    20    7   41 1
    21    7   42 1
    22    8    9 1
    23    8   43 1
    24    8   44 1
    25    9   10 1
    26   10   15 ar
    27   10   11 ar
    28   11   12 ar
    29   11   45 1
    30   12   21 ar
    31   12   13 ar
    32   13   14 ar
    33   13   18 ar
    34   14   15 ar
    35   14   46 1
    36   15   16 1
    37   16   17 1
    38   17   47 1
    39   17   48 1
    40   17   49 1
    41   18   19 ar
    42   18   22 1
    43   19   20 ar
    44   20   21 ar
    45   20   50 1
    46   22   23 1
    47   22   51 1
    48   23   28 ar
    49   23   24 ar
    50   24   25 ar
    51   24   52 1
    52   25   26 ar
    53   25   53 1
    54   26   27 ar
    55   26   30 1
    56   27   28 ar
    57   27   54 1
    58   28   29 1
@<TRIPOS>MOLECULE
ZINC19862637
   54    57     0     0     0
SMALL
USER_CHARGES
N-[2,5-bis(1-piperidyl)phenyl]-5-cyano-furan-2-carboxamide
@<TRIPOS>ATOM
      1 C1         -5.7711    4.1143    0.3306 C.ar      1 <0>        -0.1795
      2 C2         -5.9387    2.7419    0.3328 C.ar      1 <0>        -0.0973
      3 C3         -4.8370    1.9076    0.2244 C.ar      1 <0>         0.0307
      4 C4         -3.5571    2.4535    0.1261 C.ar      1 <0>         0.2004
      5 C5         -3.3916    3.8299    0.1246 C.ar      1 <0>        -0.1510
      6 C6         -4.4991    4.6608    0.2266 C.ar      1 <0>         0.1352
      7 N1         -4.3331    6.0508    0.2251 N.pl3     1 <0>        -0.4849
      8 C7         -3.4118    6.4719    1.2883 C.3       1 <0>         0.0577
      9 C8         -3.1411    7.9731    1.1656 C.3       1 <0>        -0.1210
     10 C9         -4.4638    8.7362    1.2789 C.3       1 <0>        -0.1246
     11 C10        -5.4224    8.2446    0.1908 C.3       1 <0>        -0.1202
     12 C11        -5.6269    6.7355    0.3418 C.3       1 <0>         0.0497
     13 N2         -2.4420    1.6129    0.0234 N.am      1 <0>        -0.6566
     14 C12        -1.3126    2.0599   -0.5607 C.2       1 <0>         0.6010
     15 O1         -1.2932    3.1563   -1.0879 O.2       1 <0>        -0.4909
     16 C13        -0.1044    1.2229   -0.5609 C.2       1 <0>        -0.0337
     17 C14         1.0968    1.5562   -1.1210 C.2       1 <0>        -0.1188
     18 C15         1.9640    0.4805   -0.9001 C.2       1 <0>        -0.1280
     19 C16         1.2487   -0.4720   -0.2084 C.2       1 <0>         0.0737
     20 O2          0.0025   -0.0032   -0.0143 O.3       1 <0>        -0.1433
     21 C17         1.7456   -1.7419    0.2287 C.1       1 <0>         0.2821
     22 N3          2.1398   -2.7494    0.5754 N.1       1 <0>        -0.3587
     23 N4         -5.0085    0.5160    0.2205 N.pl3     1 <0>        -0.4985
     24 C18        -5.7641    0.0822   -0.9616 C.3       1 <0>         0.0615
     25 C19        -5.8064   -1.4469   -1.0088 C.3       1 <0>        -0.1184
     26 C20        -6.4705   -1.9739    0.2663 C.3       1 <0>        -0.1236
     27 C21        -5.6923   -1.4680    1.4841 C.3       1 <0>        -0.1181
     28 C22        -5.6534    0.0617    1.4591 C.3       1 <0>         0.0571
     29 H1         -6.6314    4.7625    0.4102 H         1 <0>         0.1278
     30 H2         -6.9293    2.3196    0.4141 H         1 <0>         0.1227
     31 H3         -2.4022    4.2553    0.0444 H         1 <0>         0.1526
     32 H4         -3.8624    6.2600    2.2691 H         1 <0>         0.0431
     33 H5         -2.4650    5.9201    1.1929 H         1 <0>         0.0832
     34 H6         -2.4625    8.2903    1.9712 H         1 <0>         0.0721
     35 H7         -2.6767    8.1835    0.1909 H         1 <0>         0.0748
     36 H8         -4.9066    8.5573    2.2698 H         1 <0>         0.0604
     37 H9         -4.2784    9.8127    1.1491 H         1 <0>         0.0679
     38 H10        -6.3890    8.7595    0.2938 H         1 <0>         0.0718
     39 H11        -4.9952    8.4613   -0.7994 H         1 <0>         0.0740
     40 H12        -6.3040    6.3769   -0.4475 H         1 <0>         0.0835
     41 H13        -6.0670    6.5224    1.3271 H         1 <0>         0.0458
     42 H14        -2.4877    0.5877    0.4194 H         1 <0>         0.4509
     43 H15         1.3321    2.4756   -1.6364 H         1 <0>         0.1765
     44 H16         2.9957    0.4107   -1.2116 H         1 <0>         0.1751
     45 H17        -6.7899    0.4754   -0.9057 H         1 <0>         0.0383
     46 H18        -5.2744    0.4632   -1.8699 H         1 <0>         0.0763
     47 H19        -6.3851   -1.7708   -1.8864 H         1 <0>         0.0689
     48 H20        -4.7815   -1.8401   -1.0799 H         1 <0>         0.0717
     49 H21        -7.5085   -1.6131    0.3151 H         1 <0>         0.0593
     50 H22        -6.4648   -3.0738    0.2550 H         1 <0>         0.0656
     51 H23        -6.1893   -1.8089    2.4043 H         1 <0>         0.0689
     52 H24        -4.6662   -1.8632    1.4536 H         1 <0>         0.0720
     53 H25        -5.0826    0.4277    2.3252 H         1 <0>         0.0763
     54 H26        -6.6798    0.4549    1.5037 H         1 <0>         0.0386
@<TRIPOS>BOND
     1    1    6 ar
     2    1    2 ar
     3    1   29 1
     4    2    3 ar
     5    2   30 1
     6    3    4 ar
     7    3   23 1
     8    4    5 ar
     9    4   13 1
    10    5    6 ar
    11    5   31 1
    12    6    7 1
    13    7   12 1
    14    7    8 1
    15    8    9 1
    16    8   32 1
    17    8   33 1
    18    9   10 1
    19    9   34 1
    20    9   35 1
    21   10   11 1
    22   10   36 1
    23   10   37 1
    24   11   12 1
    25   11   38 1
    26   11   39 1
    27   12   40 1
    28   12   41 1
    29   13   14 am
    30   13   42 1
    31   14   15 2
    32   14   16 1
    33   16   20 1
    34   16   17 2
    35   17   18 1
    36   17   43 1
    37   18   19 2
    38   18   44 1
    39   19   20 1
    40   19   21 1
    41   21   22 3
    42   23   28 1
    43   23   24 1
    44   24   25 1
    45   24   45 1
    46   24   46 1
    47   25   26 1
    48   25   47 1
    49   25   48 1
    50   26   27 1
    51   26   49 1
    52   26   50 1
    53   27   28 1
    54   27   51 1
    55   27   52 1
    56   28   53 1
    57   28   54 1
@<TRIPOS>MOLECULE
ZINC04843014
   37    39     0     0     0
SMALL
USER_CHARGES

@<TRIPOS>ATOM
      1 C1         -0.0281    1.3736    0.0368 C.ar      1 <0>        -0.1006
      2 C2          1.1551    2.0894    0.0326 C.ar      1 <0>        -0.1229
      3 C3          2.3682    1.4272    0.0103 C.ar      1 <0>        -0.1043
      4 C4          2.4012    0.0406   -0.0075 C.ar      1 <0>         0.1668
      5 C5          1.2077   -0.6813   -0.0028 C.ar      1 <0>         0.1299
      6 C6         -0.0048   -0.0084    0.0191 C.ar      1 <0>        -0.1238
      7 N1          1.2338   -2.0816   -0.0212 N.am      1 <0>        -0.6427
      8 C7          0.1818   -2.7688   -0.5086 C.2       1 <0>         0.5999
      9 O1         -0.7469   -2.1748   -1.0246 O.2       1 <0>        -0.4783
     10 C8          0.1561   -4.2320   -0.4174 C.2       1 <0>        -0.0021
     11 C9         -0.8402   -5.0471   -0.8735 C.2       1 <0>        -0.1202
     12 C10        -0.4514   -6.3633   -0.5788 C.2       1 <0>        -0.0869
     13 C11         0.7498   -6.2949    0.0364 C.2       1 <0>         0.0328
     14 O2          1.1152   -5.0094    0.1266 O.3       1 <0>        -0.1376
     15 N2          1.5354   -7.4506    0.5245 N.pl3     1 <0>         0.0647
     16 O3          1.1094   -8.5734    0.3848 O.2       1 <0>        -0.1106
     17 O4          2.6031   -7.2718    1.0628 O.3       1 <0>        -0.1188
     18 N3          3.6279   -0.6318   -0.0305 N.pl3     1 <0>        -0.6886
     19 C12         4.3680   -1.0230   -1.2391 C.3       1 <0>         0.1321
     20 C13         5.6438   -1.7582   -0.7772 C.3       1 <0>        -0.1317
     21 C14         5.2709   -2.2377    0.6505 C.3       1 <0>        -0.1352
     22 C15         4.3954   -1.0598    1.1531 C.3       1 <0>         0.1271
     23 H1         -0.9732    1.8959    0.0584 H         1 <0>         0.1301
     24 H2          1.1312    3.1690    0.0465 H         1 <0>         0.1277
     25 H3          3.2904    1.9894    0.0064 H         1 <0>         0.1286
     26 H4         -0.9308   -0.5642    0.0223 H         1 <0>         0.1462
     27 H5          2.0089   -2.5568    0.3169 H         1 <0>         0.4192
     28 H6         -1.7509   -4.7388   -1.3652 H         1 <0>         0.1912
     29 H7         -1.0077   -7.2617   -0.8018 H         1 <0>         0.1921
     30 H8          3.7569   -1.6884   -1.8490 H         1 <0>         0.0450
     31 H9          4.6383   -0.1357   -1.8118 H         1 <0>         0.0511
     32 H10         5.8556   -2.6079   -1.4264 H         1 <0>         0.0779
     33 H11         6.4925   -1.0750   -0.7452 H         1 <0>         0.0752
     34 H12         4.7000   -3.1655    0.6144 H         1 <0>         0.0723
     35 H13         6.1610   -2.3524    1.2691 H         1 <0>         0.0823
     36 H14         5.0229   -0.2446    1.5135 H         1 <0>         0.0537
     37 H15         3.7216   -1.3976    1.9404 H         1 <0>         0.0584
@<TRIPOS>BOND
     1    1    6 ar
     2    1    2 ar
     3    1   23 1
     4    2    3 ar
     5    2   24 1
     6    3    4 ar
     7    3   25 1
     8    4    5 ar
     9    4   18 1
    10    5    6 ar
    11    5    7 1
    12    6   26 1
    13    7    8 am
    14    7   27 1
    15    8    9 2
    16    8   10 1
    17   10   14 1
    18   10   11 2
    19   11   12 1
    20   11   28 1
    21   12   13 2
    22   12   29 1
    23   13   14 1
    24   13   15 1
    25   15   16 2
    26   15   17 1
    27   18   22 1
    28   18   19 1
    29   19   20 1
    30   19   30 1
    31   19   31 1
    32   20   21 1
    33   20   32 1
    34   20   33 1
    35   21   22 1
    36   21   34 1
    37   21   35 1
    38   22   36 1
    39   22   37 1
@<TRIPOS>MOLECULE
ZINC00463429
   38    40     0     0     0
SMALL
USER_CHARGES
5-bromo-N-[2-(1-piperidyl)phenyl]-furan-2-carboxamide
@<TRIPOS>ATOM
      1 C1          3.8325    7.7589    0.1852 C.ar      1 <0>        -0.0985
      2 C2          3.2628    9.0140    0.2968 C.ar      1 <0>        -0.1248
      3 C3          1.8878    9.1540    0.3185 C.ar      1 <0>        -0.1269
      4 C4          1.0751    8.0340    0.2230 C.ar      1 <0>         0.0592
      5 C5          1.6498    6.7676    0.1162 C.ar      1 <0>         0.1688
      6 C6          3.0304    6.6367    0.0952 C.ar      1 <0>        -0.1262
      7 N1          0.8351    5.6319    0.0247 N.am      1 <0>        -0.6445
      8 C7          1.3013    4.5139   -0.5661 C.2       1 <0>         0.6039
      9 O1          2.3909    4.5214   -1.1089 O.2       1 <0>        -0.4952
     10 C8          0.4967    3.2893   -0.5550 C.2       1 <0>        -0.0592
     11 C9          0.8480    2.0930   -1.1134 C.2       1 <0>        -0.1086
     12 C10        -0.2104    1.2060   -0.8669 C.2       1 <0>        -0.1644
     13 C11        -1.1540    1.8924   -0.1818 C.2       1 <0>         0.0008
     14 O2         -0.7211    3.1457    0.0089 O.3       1 <0>        -0.1465
     15 Br1        -2.8089    1.1963    0.4119 Br        1 <0>         0.0686
     16 N2         -0.3169    8.1738    0.2390 N.pl3     1 <0>        -0.5041
     17 C12        -0.7845    8.9197   -0.9363 C.3       1 <0>         0.0622
     18 C13        -2.3146    8.9274   -0.9616 C.3       1 <0>        -0.1177
     19 C14        -2.8381    9.5792    0.3212 C.3       1 <0>        -0.1228
     20 C15        -2.2974    8.8124    1.5313 C.3       1 <0>        -0.1177
     21 C16        -0.7678    8.8080    1.4844 C.3       1 <0>         0.0581
     22 H1          4.9074    7.6551    0.1679 H         1 <0>         0.1292
     23 H2          3.8941    9.8875    0.3667 H         1 <0>         0.1247
     24 H3          1.4463   10.1358    0.4054 H         1 <0>         0.1233
     25 H4          3.4787    5.6580    0.0081 H         1 <0>         0.1492
     26 H5         -0.0647    5.6501    0.3866 H         1 <0>         0.4236
     27 H6          1.7635    1.8728   -1.6423 H         1 <0>         0.1733
     28 H7         -0.2640    0.1710   -1.1708 H         1 <0>         0.1716
     29 H8         -0.4169    9.9446   -0.8858 H         1 <0>         0.0400
     30 H9         -0.4087    8.4434   -1.8418 H         1 <0>         0.0753
     31 H10        -2.6827    7.9035   -1.0260 H         1 <0>         0.0715
     32 H11        -2.6620    9.4940   -1.8256 H         1 <0>         0.0697
     33 H12        -3.9277    9.5478    0.3273 H         1 <0>         0.0663
     34 H13        -2.5023   10.6151    0.3667 H         1 <0>         0.0597
     35 H14        -2.6653    7.7866    1.5062 H         1 <0>         0.0719
     36 H15        -2.6320    9.2972    2.4485 H         1 <0>         0.0699
     37 H16        -0.3799    8.2505    2.3369 H         1 <0>         0.0761
     38 H17        -0.4004    9.8335    1.5234 H         1 <0>         0.0403
@<TRIPOS>BOND
     1    1    6 ar
     2    1    2 ar
     3    1   22 1
     4    2    3 ar
     5    2   23 1
     6    3    4 ar
     7    3   24 1
     8    4    5 ar
     9    4   16 1
    10    5    6 ar
    11    5    7 1
    12    6   25 1
    13    7    8 am
    14    7   26 1
    15    8    9 2
    16    8   10 1
    17   10   14 1
    18   10   11 2
    19   11   12 1
    20   11   27 1
    21   12   13 2
    22   12   28 1
    23   13   14 1
    24   13   15 1
    25   16   21 1
    26   16   17 1
    27   17   18 1
    28   17   29 1
    29   17   30 1
    30   18   19 1
    31   18   31 1
    32   18   32 1
    33   19   20 1
    34   19   33 1
    35   19   34 1
    36   20   21 1
    37   20   35 1
    38   20   36 1
    39   21   37 1
    40   21   38 1
@<TRIPOS>MOLECULE
ZINC12523485
   38    40     0     0     0
SMALL
USER_CHARGES
5-chloro-N-[2-(1-piperidyl)phenyl]furan-2-carboxamide
@<TRIPOS>ATOM
      1 C1          3.8327    7.7583    0.1832 C.ar      1 <0>        -0.0985
      2 C2          3.2632    9.0135    0.2939 C.ar      1 <0>        -0.1251
      3 C3          1.8882    9.1538    0.3151 C.ar      1 <0>        -0.1269
      4 C4          1.0754    8.0338    0.2198 C.ar      1 <0>         0.0589
      5 C5          1.6500    6.7673    0.1139 C.ar      1 <0>         0.1691
      6 C6          3.0305    6.6362    0.0935 C.ar      1 <0>        -0.1263
      7 N1          0.8351    5.6317    0.0227 N.am      1 <0>        -0.6451
      8 C7          1.3014    4.5133   -0.5673 C.2       1 <0>         0.6053
      9 O1          2.3912    4.5203   -1.1097 O.2       1 <0>        -0.4959
     10 C8          0.4968    3.2891   -0.5560 C.2       1 <0>        -0.0665
     11 C9          0.8483    2.0923   -1.1137 C.2       1 <0>        -0.1011
     12 C10        -0.2101    1.2056   -0.8672 C.2       1 <0>        -0.1845
     13 C11        -1.1540    1.8924   -0.1819 C.2       1 <0>         0.0561
     14 O2         -0.7214    3.1460    0.0077 O.3       1 <0>        -0.1553
     15 Cl1        -2.6726    1.2531    0.3647 Cl        1 <0>         0.0419
     16 N2         -0.3166    8.1738    0.2352 N.pl3     1 <0>        -0.5040
     17 C12        -0.7836    8.9191   -0.9406 C.3       1 <0>         0.0622
     18 C13        -2.3138    8.9271   -0.9665 C.3       1 <0>        -0.1177
     19 C14        -2.8377    9.5796    0.3158 C.3       1 <0>        -0.1228
     20 C15        -2.2976    8.8133    1.5264 C.3       1 <0>        -0.1176
     21 C16        -0.7679    8.8087    1.4801 C.3       1 <0>         0.0581
     22 H1          4.9076    7.6544    0.1664 H         1 <0>         0.1291
     23 H2          3.8946    9.8870    0.3637 H         1 <0>         0.1246
     24 H3          1.4468   10.1357    0.4014 H         1 <0>         0.1232
     25 H4          3.4787    5.6574    0.0071 H         1 <0>         0.1493
     26 H5         -0.0648    5.6502    0.3842 H         1 <0>         0.4235
     27 H6          1.7638    1.8719   -1.6423 H         1 <0>         0.1736
     28 H7         -0.2639    0.1707   -1.1712 H         1 <0>         0.1717
     29 H8         -0.4159    9.9440   -0.8906 H         1 <0>         0.0399
     30 H9         -0.4076    8.4423   -1.8458 H         1 <0>         0.0754
     31 H10        -2.6820    7.9032   -1.0305 H         1 <0>         0.0714
     32 H11        -2.6607    9.4933   -1.8309 H         1 <0>         0.0697
     33 H12        -3.9272    9.5484    0.3214 H         1 <0>         0.0662
     34 H13        -2.5018   10.6155    0.3609 H         1 <0>         0.0597
     35 H14        -2.6655    7.7876    1.5017 H         1 <0>         0.0718
     36 H15        -2.6324    9.2986    2.4432 H         1 <0>         0.0698
     37 H16        -0.3804    8.2516    2.3331 H         1 <0>         0.0761
     38 H17        -0.4004    9.8341    1.5187 H         1 <0>         0.0403
@<TRIPOS>BOND
     1    1    6 ar
     2    1    2 ar
     3    1   22 1
     4    2    3 ar
     5    2   23 1
     6    3    4 ar
     7    3   24 1
     8    4    5 ar
     9    4   16 1
    10    5    6 ar
    11    5    7 1
    12    6   25 1
    13    7    8 am
    14    7   26 1
    15    8    9 2
    16    8   10 1
    17   10   14 1
    18   10   11 2
    19   11   12 1
    20   11   27 1
    21   12   13 2
    22   12   28 1
    23   13   14 1
    24   13   15 1
    25   16   21 1
    26   16   17 1
    27   17   18 1
    28   17   29 1
    29   17   30 1
    30   18   19 1
    31   18   31 1
    32   18   32 1
    33   19   20 1
    34   19   33 1
    35   19   34 1
    36   20   21 1
    37   20   35 1
    38   20   36 1
    39   21   37 1
    40   21   38 1
@<TRIPOS>MOLECULE
ZINC04842600
   38    40     0     0     0
SMALL
USER_CHARGES

@<TRIPOS>ATOM
      1 C1         -0.0281    1.3736    0.0368 C.ar      1 <0>        -0.0993
      2 C2          1.1551    2.0894    0.0326 C.ar      1 <0>        -0.1228
      3 C3          2.3682    1.4272    0.0103 C.ar      1 <0>        -0.1043
      4 C4          2.4012    0.0406   -0.0075 C.ar      1 <0>         0.1476
      5 C5          1.2077   -0.6813   -0.0028 C.ar      1 <0>         0.1321
      6 C6         -0.0048   -0.0084    0.0191 C.ar      1 <0>        -0.1233
      7 N1          1.2338   -2.0816   -0.0212 N.am      1 <0>        -0.6437
      8 C7          0.1818   -2.7688   -0.5086 C.2       1 <0>         0.6010
      9 O1         -0.7469   -2.1748   -1.0246 O.2       1 <0>        -0.4781
     10 C8          0.1561   -4.2320   -0.4174 C.2       1 <0>        -0.0035
     11 C9         -0.8402   -5.0471   -0.8735 C.2       1 <0>        -0.1195
     12 C10        -0.4514   -6.3633   -0.5788 C.2       1 <0>        -0.0874
     13 C11         0.7498   -6.2949    0.0364 C.2       1 <0>         0.0340
     14 O2          1.1152   -5.0094    0.1266 O.3       1 <0>        -0.1375
     15 N2          1.5354   -7.4506    0.5245 N.pl3     1 <0>         0.0641
     16 O3          1.1094   -8.5734    0.3848 O.2       1 <0>        -0.1102
     17 O4          2.6031   -7.2718    1.0628 O.3       1 <0>        -0.1180
     18 N3          3.6279   -0.6318   -0.0305 N.pl3     1 <0>        -0.6811
     19 C12         4.2800   -0.9746   -1.3043 C.3       1 <0>         0.1093
     20 C13         5.7336   -0.4911   -1.2488 C.3       1 <0>         0.0464
     21 O5          6.3525   -0.9954   -0.0628 O.3       1 <0>        -0.3791
     22 C14         5.7567   -0.5311    1.1510 C.3       1 <0>         0.0468
     23 C15         4.3070   -1.0117    1.2184 C.3       1 <0>         0.1045
     24 H1         -0.9732    1.8959    0.0584 H         1 <0>         0.1302
     25 H2          1.1312    3.1690    0.0465 H         1 <0>         0.1276
     26 H3          3.2904    1.9894    0.0064 H         1 <0>         0.1272
     27 H4         -0.9308   -0.5642    0.0223 H         1 <0>         0.1464
     28 H5          2.0089   -2.5568    0.3169 H         1 <0>         0.4195
     29 H6         -1.7509   -4.7388   -1.3652 H         1 <0>         0.1911
     30 H7         -1.0077   -7.2617   -0.8018 H         1 <0>         0.1922
     31 H8          4.2577   -2.0547   -1.4492 H         1 <0>         0.0578
     32 H9          3.7606   -0.4826   -2.1267 H         1 <0>         0.0797
     33 H10         6.2722   -0.8554   -2.1236 H         1 <0>         0.1004
     34 H11         5.7546    0.5987   -1.2351 H         1 <0>         0.0539
     35 H12         6.3119   -0.9243    2.0026 H         1 <0>         0.1016
     36 H13         5.7778    0.5584    1.1733 H         1 <0>         0.0535
     37 H14         3.8055   -0.5443    2.0658 H         1 <0>         0.0812
     38 H15         4.2874   -2.0956    1.3318 H         1 <0>         0.0596
@<TRIPOS>BOND
     1    1    6 ar
     2    1    2 ar
     3    1   24 1
     4    2    3 ar
     5    2   25 1
     6    3    4 ar
     7    3   26 1
     8    4    5 ar
     9    4   18 1
    10    5    6 ar
    11    5    7 1
    12    6   27 1
    13    7    8 am
    14    7   28 1
    15    8    9 2
    16    8   10 1
    17   10   14 1
    18   10   11 2
    19   11   12 1
    20   11   29 1
    21   12   13 2
    22   12   30 1
    23   13   14 1
    24   13   15 1
    25   15   16 2
    26   15   17 1
    27   18   23 1
    28   18   19 1
    29   19   20 1
    30   19   31 1
    31   19   32 1
    32   20   21 1
    33   20   33 1
    34   20   34 1
    35   21   22 1
    36   22   23 1
    37   22   35 1
    38   22   36 1
    39   23   37 1
    40   23   38 1
@<TRIPOS>MOLECULE
ZINC00558377
   43    45     0     0     0
SMALL
USER_CHARGES

@<TRIPOS>ATOM
      1 C1          0.0075    1.5130    0.0128 C.3       1 <0>        -0.1492
      2 C2          0.0158   -0.0170    0.0033 C.3       1 <0>        -0.0884
      3 C3         -1.4243   -0.5347    0.0120 C.3       1 <0>        -0.1324
      4 C4         -1.4125   -2.0660   -0.0325 C.3       1 <0>         0.1390
      5 N1         -0.5851   -2.5649    1.0744 N.pl3     1 <0>        -0.6787
      6 C5          0.7884   -2.0618    1.2122 C.3       1 <0>         0.1439
      7 C6          0.7519   -0.5306    1.2428 C.3       1 <0>        -0.1328
      8 C7         -1.0957   -3.5010    1.9803 C.ar      1 <0>         0.1499
      9 C8         -0.9481   -4.8582    1.7353 C.ar      1 <0>        -0.1043
     10 C9         -1.4529   -5.7812    2.6319 C.ar      1 <0>        -0.1232
     11 C10        -2.1061   -5.3559    3.7742 C.ar      1 <0>        -0.1016
     12 C11        -2.2578   -4.0053    4.0265 C.ar      1 <0>        -0.1239
     13 C12        -1.7495   -3.0721    3.1353 C.ar      1 <0>         0.1282
     14 N2         -1.8968   -1.7030    3.3918 N.am      1 <0>        -0.6435
     15 C13        -2.0556   -1.2677    4.6574 C.2       1 <0>         0.5984
     16 O1         -1.9704   -2.0507    5.5854 O.2       1 <0>        -0.4781
     17 C14        -2.3309    0.1490    4.9164 C.2       1 <0>        -0.0034
     18 C15        -2.5067    0.7210    6.1439 C.2       1 <0>        -0.1200
     19 C16        -2.7441    2.0866    5.9225 C.2       1 <0>        -0.0872
     20 C17        -2.7033    2.2859    4.5866 C.2       1 <0>         0.0329
     21 O2         -2.4491    1.1170    3.9841 O.3       1 <0>        -0.1376
     22 N3         -2.9014    3.5834    3.9022 N.pl3     1 <0>         0.0648
     23 O3         -3.1215    4.5807    4.5491 O.2       1 <0>        -0.1111
     24 O4         -2.8431    3.6458    2.6962 O.3       1 <0>        -0.1178
     25 H1          1.0331    1.8819    0.0054 H         1 <0>         0.0542
     26 H2         -0.5168    1.8790   -0.8699 H         1 <0>         0.0576
     27 H3         -0.4998    1.8679    0.9099 H         1 <0>         0.0538
     28 H4          0.5236   -0.3718   -0.8936 H         1 <0>         0.0730
     29 H5         -1.9254   -0.2011    0.9207 H         1 <0>         0.0545
     30 H6         -1.9547   -0.1495   -0.8588 H         1 <0>         0.0753
     31 H7         -2.4299   -2.4425    0.0732 H         1 <0>         0.0695
     32 H8         -0.9936   -2.4007   -0.9815 H         1 <0>         0.0572
     33 H9          1.2232   -2.4355    2.1393 H         1 <0>         0.0679
     34 H10         1.3868   -2.3961    0.3647 H         1 <0>         0.0556
     35 H11         1.7704   -0.1424    1.2480 H         1 <0>         0.0711
     36 H12         0.2304   -0.1970    2.1399 H         1 <0>         0.0551
     37 H13        -0.4392   -5.1939    0.8438 H         1 <0>         0.1288
     38 H14        -1.3372   -6.8376    2.4396 H         1 <0>         0.1268
     39 H15        -2.4993   -6.0813    4.4711 H         1 <0>         0.1291
     40 H16        -2.7684   -3.6768    4.9196 H         1 <0>         0.1452
     41 H17        -1.8846   -1.0681    2.6585 H         1 <0>         0.4179
     42 H18        -2.4704    0.2197    7.0998 H         1 <0>         0.1912
     43 H19        -2.9255    2.8369    6.6778 H         1 <0>         0.1921
@<TRIPOS>BOND
     1    1    2 1
     2    1   25 1
     3    1   26 1
     4    1   27 1
     5    2    7 1
     6    2    3 1
     7    2   28 1
     8    3    4 1
     9    3   29 1
    10    3   30 1
    11    4    5 1
    12    4   31 1
    13    4   32 1
    14    5    6 1
    15    5    8 1
    16    6    7 1
    17    6   33 1
    18    6   34 1
    19    7   35 1
    20    7   36 1
    21    8   13 ar
    22    8    9 ar
    23    9   10 ar
    24    9   37 1
    25   10   11 ar
    26   10   38 1
    27   11   12 ar
    28   11   39 1
    29   12   13 ar
    30   12   40 1
    31   13   14 1
    32   14   15 am
    33   14   41 1
    34   15   16 2
    35   15   17 1
    36   17   21 1
    37   17   18 2
    38   18   19 1
    39   18   42 1
    40   19   20 2
    41   19   43 1
    42   20   21 1
    43   20   22 1
    44   22   23 2
    45   22   24 1
@<TRIPOS>MOLECULE
ZINC02443701
   43    45     0     0     0
SMALL
USER_CHARGES

@<TRIPOS>ATOM
      1 C1          0.0046    1.4661    0.0102 C.3       1 <0>        -0.0466
      2 N1          0.0196   -0.0028    0.0026 N.4       1 <0>        -0.3830
      3 C2          0.6871   -0.4774   -1.2162 C.3       1 <0>        -0.0219
      4 C3          0.6023   -2.0059   -1.2816 C.3       1 <0>         0.1124
      5 N2          1.1529   -2.5573   -0.0338 N.pl3     1 <0>        -0.6764
      6 C4          0.6551   -2.0184    1.2413 C.3       1 <0>         0.1170
      7 C5          0.7374   -0.4893    1.1876 C.3       1 <0>        -0.0222
      8 C6          2.1229   -3.5652   -0.0591 C.ar      1 <0>         0.1184
      9 C7          3.4697   -3.2342   -0.0795 C.ar      1 <0>        -0.0975
     10 C8          4.4263   -4.2318   -0.1040 C.ar      1 <0>        -0.1218
     11 C9          4.0450   -5.5610   -0.1086 C.ar      1 <0>        -0.0831
     12 C10         2.7051   -5.9002   -0.0883 C.ar      1 <0>        -0.1223
     13 C11         1.7386   -4.9061   -0.0579 C.ar      1 <0>         0.1446
     14 N3          0.3804   -5.2474   -0.0314 N.am      1 <0>        -0.6520
     15 C12        -0.0044   -6.4437    0.4558 C.2       1 <0>         0.6046
     16 O1          0.8152   -7.1857    0.9648 O.2       1 <0>        -0.4676
     17 C13        -1.4105   -6.8512    0.3729 C.2       1 <0>        -0.0149
     18 C14        -1.9335   -8.0270    0.8298 C.2       1 <0>        -0.1101
     19 C15        -3.3076   -7.9952    0.5448 C.2       1 <0>        -0.0842
     20 C16        -3.5600   -6.8164   -0.0657 C.2       1 <0>         0.0359
     21 O2         -2.4153   -6.1277   -0.1630 O.3       1 <0>        -0.1435
     22 N4         -4.8844   -6.3591   -0.5433 N.pl3     1 <0>         0.0636
     23 O3         -5.8557   -7.0643   -0.3984 O.2       1 <0>        -0.1003
     24 O4         -4.9947   -5.2806   -1.0782 O.3       1 <0>        -0.1234
     25 H1          1.0284    1.8400   -0.0054 H         1 <0>         0.1212
     26 H2         -0.5279    1.8285   -0.8691 H         1 <0>         0.1248
     27 H3         -0.4977    1.8196    0.9106 H         1 <0>         0.1243
     28 H4          0.1964   -0.0485   -2.0899 H         1 <0>         0.1383
     29 H5          1.7332   -0.1718   -1.2002 H         1 <0>         0.1315
     30 H6         -0.4386   -2.3108   -1.3887 H         1 <0>         0.0784
     31 H7          1.1826   -2.3690   -2.1299 H         1 <0>         0.1189
     32 H8         -0.3806   -2.3246    1.3889 H         1 <0>         0.0765
     33 H9          1.2702   -2.3897    2.0610 H         1 <0>         0.1174
     34 H10         1.7820   -0.1833    1.1309 H         1 <0>         0.1316
     35 H11         0.2836   -0.0692    2.0852 H         1 <0>         0.1374
     36 H12         3.7710   -2.1971   -0.0767 H         1 <0>         0.1267
     37 H13         5.4745   -3.9723   -0.1199 H         1 <0>         0.1329
     38 H14         4.7964   -6.3365   -0.1285 H         1 <0>         0.1364
     39 H15         2.4110   -6.9394   -0.0920 H         1 <0>         0.1508
     40 H16        -0.2833   -4.6229   -0.3638 H         1 <0>         0.4149
     41 H17        -1.3943   -8.8267    1.3158 H         1 <0>         0.1930
     42 H18        -4.0277   -8.7678    0.7708 H         1 <0>         0.1950
     43 H19        -0.9284   -0.3477    0.0199 H         1 <0>         0.4243
@<TRIPOS>BOND
     1    1    2 1
     2    1   25 1
     3    1   26 1
     4    1   27 1
     5    2    7 1
     6    2    3 1
     7    2   43 1
     8    3    4 1
     9    3   28 1
    10    3   29 1
    11    4    5 1
    12    4   30 1
    13    4   31 1
    14    5    6 1
    15    5    8 1
    16    6    7 1
    17    6   32 1
    18    6   33 1
    19    7   34 1
    20    7   35 1
    21    8   13 ar
    22    8    9 ar
    23    9   10 ar
    24    9   36 1
    25   10   11 ar
    26   10   37 1
    27   11   12 ar
    28   11   38 1
    29   12   13 ar
    30   12   39 1
    31   13   14 1
    32   14   15 am
    33   14   40 1
    34   15   16 2
    35   15   17 1
    36   17   21 1
    37   17   18 2
    38   18   19 1
    39   18   41 1
    40   19   20 2
    41   19   42 1
    42   20   21 1
    43   20   22 1
    44   22   23 2
    45   22   24 1
@<TRIPOS>MOLECULE
ZINC02443701
   42    44     0     0     0
SMALL
USER_CHARGES

@<TRIPOS>ATOM
      1 C1          0.0139    1.4652    0.0249 C.3       1 <0>         0.0247
      2 N1          0.0269   -0.0037    0.0135 N.3       1 <0>        -0.5407
      3 C2          0.6220   -0.5153   -1.2282 C.3       1 <0>         0.0400
      4 C3          0.4534   -2.0374   -1.2823 C.3       1 <0>         0.1503
      5 N2          1.0040   -2.6127   -0.0457 N.pl3     1 <0>        -0.6803
      6 C4          0.5566   -2.0560    1.2401 C.3       1 <0>         0.1446
      7 C5          0.7212   -0.5331    1.1949 C.3       1 <0>         0.0405
      8 C6          1.9283   -3.6619   -0.0913 C.ar      1 <0>         0.1558
      9 C7          3.2876   -3.3899   -0.1393 C.ar      1 <0>        -0.1081
     10 C8          4.1990   -4.4282   -0.1838 C.ar      1 <0>        -0.1188
     11 C9          3.7602   -5.7395   -0.1810 C.ar      1 <0>        -0.1044
     12 C10         2.4074   -6.0200   -0.1333 C.ar      1 <0>        -0.1126
     13 C11         1.4860   -4.9847   -0.0827 C.ar      1 <0>         0.1257
     14 N3          0.1150   -5.2666   -0.0284 N.am      1 <0>        -0.6445
     15 C12        -0.3798   -6.3348   -0.6845 C.2       1 <0>         0.6016
     16 O1          0.3739   -7.1004   -1.2566 O.2       1 <0>        -0.4814
     17 C13        -1.8261   -6.5747   -0.7092 C.2       1 <0>        -0.0013
     18 C14        -2.4564   -7.6159   -1.3284 C.2       1 <0>        -0.1212
     19 C15        -3.8309   -7.4515   -1.0959 C.2       1 <0>        -0.0878
     20 C16        -3.9775   -6.3314   -0.3543 C.2       1 <0>         0.0336
     21 O2         -2.7670   -5.8087   -0.1191 O.3       1 <0>        -0.1362
     22 N4         -5.2638   -5.7765    0.1241 N.pl3     1 <0>         0.0643
     23 O3         -6.3011   -6.3364   -0.1451 O.2       1 <0>        -0.1123
     24 O4         -5.2772   -4.7636    0.7838 O.3       1 <0>        -0.1170
     25 H1          1.0383    1.8377    0.0243 H         1 <0>         0.0246
     26 H2         -0.5061    1.8308   -0.8605 H         1 <0>         0.0690
     27 H3         -0.5002    1.8171    0.9194 H         1 <0>         0.0701
     28 H4          0.1216   -0.0632   -2.0846 H         1 <0>         0.0808
     29 H5          1.6828   -0.2657   -1.2529 H         1 <0>         0.0363
     30 H6         -0.6049   -2.2859   -1.3622 H         1 <0>         0.0566
     31 H7          0.9918   -2.4351   -2.1425 H         1 <0>         0.0722
     32 H8         -0.4917   -2.3063    1.4026 H         1 <0>         0.0592
     33 H9          1.1633   -2.4660    2.0475 H         1 <0>         0.0745
     34 H10         1.7806   -0.2834    1.1364 H         1 <0>         0.0364
     35 H11         0.2927   -0.0941    2.0958 H         1 <0>         0.0819
     36 H12         3.6338   -2.3669   -0.1423 H         1 <0>         0.1256
     37 H13         5.2570   -4.2146   -0.2212 H         1 <0>         0.1266
     38 H14         4.4765   -6.5470   -0.2166 H         1 <0>         0.1295
     39 H15         2.0683   -7.0453   -0.1313 H         1 <0>         0.1409
     40 H16        -0.4783   -4.6930    0.4814 H         1 <0>         0.4190
     41 H17        -1.9881   -8.4115   -1.8889 H         1 <0>         0.1905
     42 H18        -4.6224   -8.0983   -1.4444 H         1 <0>         0.1916
@<TRIPOS>BOND
     1    1    2 1
     2    1   25 1
     3    1   26 1
     4    1   27 1
     5    2    7 1
     6    2    3 1
     7    3    4 1
     8    3   28 1
     9    3   29 1
    10    4    5 1
    11    4   30 1
    12    4   31 1
    13    5    6 1
    14    5    8 1
    15    6    7 1
    16    6   32 1
    17    6   33 1
    18    7   34 1
    19    7   35 1
    20    8   13 ar
    21    8    9 ar
    22    9   10 ar
    23    9   36 1
    24   10   11 ar
    25   10   37 1
    26   11   12 ar
    27   11   38 1
    28   12   13 ar
    29   12   39 1
    30   13   14 1
    31   14   15 am
    32   14   40 1
    33   15   16 2
    34   15   17 1
    35   17   21 1
    36   17   18 2
    37   18   19 1
    38   18   41 1
    39   19   20 2
    40   19   42 1
    41   20   21 1
    42   20   22 1
    43   22   23 2
    44   22   24 1
@<TRIPOS>MOLECULE
ZINC29039424
   61    64     0     0     0
SMALL
USER_CHARGES
4-cyano-N-[4-(4-methylpiperazin-1-yl)-2-(4-methyl-1-piperidyl)phenyl]-1H-pyrrole-2-carboxamide
@<TRIPOS>ATOM
      1 C1         -1.7952   10.8085   -5.3008 C.3       1 <0>        -0.1510
      2 C2         -1.4487    9.4218   -4.7550 C.3       1 <0>        -0.0953
      3 C3         -1.7414    8.3639   -5.8225 C.3       1 <0>        -0.1158
      4 C4         -1.4507    6.9746   -5.2502 C.3       1 <0>         0.0491
      5 N1         -2.2890    6.7463   -4.0663 N.pl3     1 <0>        -0.4894
      6 C5         -1.9920    7.7215   -3.0093 C.3       1 <0>         0.0543
      7 C6         -2.2989    9.1330   -3.5147 C.3       1 <0>        -0.1152
      8 C7         -2.1454    5.4370   -3.5953 C.ar      1 <0>         0.1039
      9 C8         -1.5653    5.2039   -2.3578 C.ar      1 <0>        -0.1579
     10 C9         -1.4237    3.9034   -1.8932 C.ar      1 <0>         0.0904
     11 C10        -1.8575    2.8363   -2.6696 C.ar      1 <0>        -0.1600
     12 C11        -2.4411    3.0667   -3.9008 C.ar      1 <0>        -0.0900
     13 C12        -2.5851    4.3636   -4.3698 C.ar      1 <0>         0.1412
     14 N2         -3.1730    4.5960   -5.6224 N.am      1 <0>        -0.6765
     15 C13        -3.1291    3.6432   -6.5746 C.2       1 <0>         0.5953
     16 O1         -2.6409    2.5564   -6.3259 O.2       1 <0>        -0.5081
     17 C14        -3.6701    3.9162   -7.9114 C.2       1 <0>        -0.0699
     18 C15        -3.6878    3.0434   -8.9597 C.2       1 <0>        -0.0468
     19 C16        -4.2948    3.7131  -10.0456 C.2       1 <0>        -0.1302
     20 C17        -4.6252    4.9811   -9.6073 C.2       1 <0>         0.1193
     21 N3         -4.2524    5.0956   -8.3206 N.pl3     1 <0>        -0.5365
     22 H1         -4.3453    5.9362   -7.6172 H         1 <0>         0.4502
     23 C18        -4.5247    3.1782  -11.3539 C.1       1 <0>         0.2793
     24 N4         -4.7071    2.7539  -12.3918 N.1       1 <0>        -0.4191
     25 N5         -0.8386    3.6670   -0.6448 N.pl3     1 <0>        -0.4856
     26 C19        -0.7877    2.2280   -0.3510 C.3       1 <0>         0.0192
     27 C20        -0.0711    2.0075    0.9832 C.3       1 <0>        -0.0009
     28 N6         -0.7820    2.7339    2.0446 N.4       1 <0>        -0.4033
     29 C21        -0.8333    4.1729    1.7505 C.3       1 <0>        -0.0010
     30 C22        -1.5499    4.3934    0.4163 C.3       1 <0>         0.0255
     31 C23        -0.1671    2.4856    3.3554 C.3       1 <0>        -0.0453
     32 H2         -1.1840   11.0151   -6.1917 H         1 <0>         0.0579
     33 H3         -1.5899   11.5672   -4.5313 H         1 <0>         0.0574
     34 H4         -2.8608   10.8401   -5.5718 H         1 <0>         0.0575
     35 H5         -0.3820    9.3932   -4.4879 H         1 <0>         0.0689
     36 H6         -2.7986    8.4260   -6.1200 H         1 <0>         0.0735
     37 H7         -1.1025    8.5419   -6.7001 H         1 <0>         0.0761
     38 H8         -1.6741    6.2110   -6.0099 H         1 <0>         0.0831
     39 H9         -0.3900    6.9097   -4.9659 H         1 <0>         0.0476
     40 H10        -2.6120    7.5057   -2.1266 H         1 <0>         0.0803
     41 H11        -0.9287    7.6536   -2.7360 H         1 <0>         0.0462
     42 H12        -2.0617    9.8654   -2.7290 H         1 <0>         0.0736
     43 H13        -3.3650    9.2073   -3.7755 H         1 <0>         0.0756
     44 H14        -1.2243    6.0331   -1.7557 H         1 <0>         0.1342
     45 H15        -1.7421    1.8251   -2.3085 H         1 <0>         0.1295
     46 H16        -2.7815    2.2354   -4.5004 H         1 <0>         0.1622
     47 H17        -3.6697    5.5558   -5.8273 H         1 <0>         0.4318
     48 H18        -3.3091    2.0320   -8.9596 H         1 <0>         0.1600
     49 H19        -5.1056    5.7482  -10.1966 H         1 <0>         0.1908
     50 H20        -1.8113    1.8301   -0.2887 H         1 <0>         0.0728
     51 H21        -0.2408    1.7093   -1.1522 H         1 <0>         0.1310
     52 H22        -0.0574    0.9331    1.2189 H         1 <0>         0.1405
     53 H23         0.9613    2.3802    0.9109 H         1 <0>         0.1361
     54 H24        -1.3804    4.6916    2.5516 H         1 <0>         0.1394
     55 H25         0.1902    4.5711    1.6881 H         1 <0>         0.1359
     56 H26        -1.5637    5.4675    0.1795 H         1 <0>         0.1253
     57 H27        -2.5823    4.0204    0.4875 H         1 <0>         0.0700
     58 H28        -0.7177    3.0401    4.1296 H         1 <0>         0.1252
     59 H29         0.8802    2.8216    3.3386 H         1 <0>         0.1202
     60 H30        -0.2034    1.4093    3.5794 H         1 <0>         0.1258
     61 H31        -1.8150    2.3576    2.0808 H         1 <0>         0.4419
@<TRIPOS>BOND
     1    1    2 1
     2    1   32 1
     3    1   33 1
     4    1   34 1
     5    2    7 1
     6    2    3 1
     7    2   35 1
     8    3    4 1
     9    3   36 1
    10    3   37 1
    11    4    5 1
    12    4   38 1
    13    4   39 1
    14    5    6 1
    15    5    8 1
    16    6    7 1
    17    6   40 1
    18    6   41 1
    19    7   42 1
    20    7   43 1
    21    8   13 ar
    22    8    9 ar
    23    9   10 ar
    24    9   44 1
    25   10   11 ar
    26   10   25 1
    27   11   12 ar
    28   11   45 1
    29   12   13 ar
    30   12   46 1
    31   13   14 1
    32   14   15 am
    33   14   47 1
    34   15   16 2
    35   15   17 1
    36   17   21 1
    37   17   18 2
    38   18   19 1
    39   18   48 1
    40   19   20 2
    41   19   23 1
    42   20   21 1
    43   20   49 1
    44   21   22 1
    45   23   24 3
    46   25   30 1
    47   25   26 1
    48   26   27 1
    49   26   50 1
    50   26   51 1
    51   27   28 1
    52   27   52 1
    53   27   53 1
    54   28   29 1
    55   28   31 1
    56   28   61 1
    57   29   30 1
    58   29   54 1
    59   29   55 1
    60   30   56 1
    61   30   57 1
    62   31   58 1
    63   31   59 1
    64   31   60 1
@<TRIPOS>MOLECULE
ZINC06716957
   61    65     0     0     0
SMALL
USER_CHARGES
4-methyl-N-[3-(4-methylimidazol-1-yl)-5-(trifluoromethyl)phenyl]-3-[4-(3-pyridyl)pyrimidin-2-yl]amino-benzamide
@<TRIPOS>ATOM
      1 C1          4.8797   -3.9669    0.1547 C.3       1 <0>        -0.1225
      2 C2          3.5754   -4.7217    0.1669 C.ar      1 <0>        -0.0869
      3 C3          3.5795   -6.1039    0.1964 C.ar      1 <0>        -0.1014
      4 C4          2.3894   -6.8021    0.2020 C.ar      1 <0>        -0.1034
      5 C5          1.1753   -6.1126    0.1832 C.ar      1 <0>        -0.1270
      6 C6          1.1710   -4.7182    0.1589 C.ar      1 <0>        -0.0590
      7 C7          2.3724   -4.0259    0.1535 C.ar      1 <0>         0.1619
      8 N1          2.3736   -2.6277    0.1286 N.pl3     1 <0>        -0.6325
      9 C8          1.2893   -1.9432   -0.3959 C.ar      1 <0>         0.5614
     10 N2          0.3200   -2.6260   -0.9883 N.ar      1 <0>        -0.5534
     11 C9         -0.7320   -2.0090   -1.5021 C.ar      1 <0>         0.1977
     12 C10        -0.8164   -0.6303   -1.4172 C.ar      1 <0>        -0.2657
     13 C11         0.2206    0.0624   -0.7871 C.ar      1 <0>         0.2658
     14 N3          1.2507   -0.6239   -0.2975 N.ar      1 <0>        -0.5571
     15 C12         0.1772    1.5403   -0.6710 C.ar      1 <0>        -0.1169
     16 C13         1.2145    2.2342   -0.0406 C.ar      1 <0>        -0.0276
     17 C14         1.1266    3.6129    0.0420 C.ar      1 <0>        -0.1784
     18 C15         0.0258    4.2543   -0.4966 C.ar      1 <0>         0.1175
     19 N4         -0.9376    3.5726   -1.0856 N.ar      1 <0>        -0.4841
     20 C16        -0.8952    2.2604   -1.1934 C.ar      1 <0>         0.1340
     21 C17        -0.1012   -6.8583    0.1887 C.2       1 <0>         0.5673
     22 O1         -1.1570   -6.2560    0.1719 O.2       1 <0>        -0.5061
     23 N5         -0.0944   -8.2058    0.2122 N.am      1 <0>        -0.6669
     24 C18        -1.2963   -8.9130    0.1072 C.ar      1 <0>         0.1849
     25 C19        -1.4127  -10.1752    0.6766 C.ar      1 <0>        -0.1112
     26 C20        -2.6011  -10.8720    0.5773 C.ar      1 <0>        -0.1296
     27 C21        -3.6741  -10.3211   -0.0973 C.ar      1 <0>        -0.1084
     28 C22        -3.5624   -9.0626   -0.6729 C.ar      1 <0>         0.1652
     29 C23        -2.3721   -8.3576   -0.5706 C.ar      1 <0>        -0.1152
     30 N6         -4.6520   -8.5044   -1.3568 N.pl3     1 <0>        -0.4135
     31 C24        -4.6878   -7.2792   -1.9710 C.2       1 <0>        -0.0484
     32 C25        -5.9185   -7.1442   -2.5004 C.2       1 <0>         0.0096
     33 N7         -6.6190   -8.2532   -2.2203 N.2       1 <0>        -0.4758
     34 C26        -5.8695   -9.0779   -1.5408 C.2       1 <0>         0.1944
     35 C27        -6.4219   -5.9529   -3.2741 C.3       1 <0>        -0.0703
     36 C28        -2.7260  -12.2385    1.2004 C.3       1 <0>         0.5133
     37 F1         -2.3418  -13.2115    0.2714 F         1 <0>        -0.1709
     38 F2         -1.8981  -12.3154    2.3255 F         1 <0>        -0.1721
     39 F3         -4.0538  -12.4572    1.5826 F         1 <0>        -0.1717
     40 H1          5.1932   -3.7667    1.1793 H         1 <0>         0.0780
     41 H2          5.6404   -4.5642   -0.3479 H         1 <0>         0.0781
     42 H3          4.7488   -3.0240   -0.3761 H         1 <0>         0.0665
     43 H4          4.5175   -6.6391    0.2106 H         1 <0>         0.1366
     44 H5          2.3969   -7.8819    0.2212 H         1 <0>         0.1267
     45 H6          0.2351   -4.1794    0.1439 H         1 <0>         0.1656
     46 H7          3.1337   -2.1370    0.4786 H         1 <0>         0.4259
     47 H8         -1.5163   -2.5753   -1.9823 H         1 <0>         0.1768
     48 H9         -1.6642   -0.1022   -1.8280 H         1 <0>         0.1524
     49 H10         2.0625    1.7077    0.3717 H         1 <0>         0.1463
     50 H11         1.9093    4.1820    0.5216 H         1 <0>         0.1425
     51 H12        -0.0458    5.3301   -0.4343 H         1 <0>         0.1622
     52 H13        -1.7012    1.7376   -1.6869 H         1 <0>         0.1630
     53 H14         0.7441   -8.6851    0.3020 H         1 <0>         0.4178
     54 H15        -0.5744  -10.6101    1.2006 H         1 <0>         0.1488
     55 H16        -4.6008  -10.8701   -0.1765 H         1 <0>         0.1477
     56 H17        -2.2829   -7.3787   -1.0179 H         1 <0>         0.1618
     57 H18        -3.8832   -6.5605   -2.0210 H         1 <0>         0.1795
     58 H19        -6.1682  -10.0519   -1.1825 H         1 <0>         0.2113
     59 H20        -6.2142   -6.0943   -4.3347 H         1 <0>         0.0711
     60 H21        -7.4967   -5.8505   -3.1248 H         1 <0>         0.0731
     61 H22        -5.9187   -5.0522   -2.9223 H         1 <0>         0.0710
@<TRIPOS>BOND
     1    1    2 1
     2    1   40 1
     3    1   41 1
     4    1   42 1
     5    2    7 ar
     6    2    3 ar
     7    3    4 ar
     8    3   43 1
     9    4    5 ar
    10    4   44 1
    11    5    6 ar
    12    5   21 1
    13    6    7 ar
    14    6   45 1
    15    7    8 1
    16    8    9 1
    17    8   46 1
    18    9   14 ar
    19    9   10 ar
    20   10   11 ar
    21   11   12 ar
    22   11   47 1
    23   12   13 ar
    24   12   48 1
    25   13   14 ar
    26   13   15 1
    27   15   20 ar
    28   15   16 ar
    29   16   17 ar
    30   16   49 1
    31   17   18 ar
    32   17   50 1
    33   18   19 ar
    34   18   51 1
    35   19   20 ar
    36   20   52 1
    37   21   22 2
    38   21   23 am
    39   23   24 1
    40   23   53 1
    41   24   29 ar
    42   24   25 ar
    43   25   26 ar
    44   25   54 1
    45   26   27 ar
    46   26   36 1
    47   27   28 ar
    48   27   55 1
    49   28   29 ar
    50   28   30 1
    51   29   56 1
    52   30   34 1
    53   30   31 1
    54   31   32 2
    55   31   57 1
    56   32   33 1
    57   32   35 1
    58   33   34 2
    59   34   58 1
    60   35   59 1
    61   35   60 1
    62   35   61 1
    63   36   37 1
    64   36   38 1
    65   36   39 1
@<TRIPOS>MOLECULE
ZINC18106435
   37    39     0     0     0
SMALL
USER_CHARGES
ethyl 6-chloro-2-oxo-4-phenyl-1H-quinoline-3-carboxylate
@<TRIPOS>ATOM
      1 C1         -4.8870    1.3550    0.0327 C.3       1 <0>        -0.1516
      2 C2         -3.6780    2.2927    0.0320 C.3       1 <0>         0.0622
      3 O1         -2.4566    1.5075    0.0220 O.3       1 <0>        -0.3283
      4 C3         -1.2919    2.1872    0.0201 C.2       1 <0>         0.5215
      5 O2         -1.2976    3.4031    0.0267 O.2       1 <0>        -0.4916
      6 C4         -0.0178    1.4595    0.0101 C.2       1 <0>        -0.2207
      7 C5          1.1982    2.1547    0.0022 C.2       1 <0>         0.1495
      8 C6          2.4431    1.3759   -0.0144 C.ar      1 <0>        -0.1259
      9 C7          3.6854    2.0207   -0.0223 C.ar      1 <0>        -0.0294
     10 C8          4.8415    1.2737   -0.0378 C.ar      1 <0>        -0.0713
     11 C9          4.7798   -0.1145   -0.0448 C.ar      1 <0>        -0.0393
     12 C10         3.5650   -0.7635   -0.0362 C.ar      1 <0>        -0.1547
     13 C11         2.3820   -0.0292   -0.0209 C.ar      1 <0>         0.2123
     14 N1          1.1641   -0.6782   -0.0127 N.am      1 <0>        -0.6295
     15 H1          1.1466   -1.6480   -0.0175 H         1 <0>         0.4225
     16 C12         0.0021   -0.0041    0.0020 C.2       1 <0>         0.5513
     17 O3         -1.0492   -0.6191    0.0084 O.2       1 <0>        -0.4920
     18 Cl1         6.3842    2.0699   -0.0482 Cl        1 <0>        -0.0528
     19 C13         1.2275    3.6306    0.0098 C.ar      1 <0>        -0.0784
     20 C14         1.7468    4.3281   -1.0840 C.ar      1 <0>        -0.0917
     21 C15         1.7666    5.7070   -1.0719 C.ar      1 <0>        -0.1226
     22 C16         1.2834    6.3997    0.0245 C.ar      1 <0>        -0.0985
     23 C17         0.7724    5.7154    1.1136 C.ar      1 <0>        -0.1192
     24 C18         0.7414    4.3367    1.1134 C.ar      1 <0>        -0.0476
     25 H2         -5.8039    1.9444    0.0403 H         1 <0>         0.0795
     26 H3         -4.8635    0.7312   -0.8608 H         1 <0>         0.0672
     27 H4         -4.8550    0.7215    0.9191 H         1 <0>         0.0672
     28 H5         -3.7015    2.9165    0.9256 H         1 <0>         0.0694
     29 H6         -3.7100    2.9262   -0.8544 H         1 <0>         0.0694
     30 H7          3.7366    3.0994   -0.0169 H         1 <0>         0.1516
     31 H8          5.6935   -0.6903   -0.0566 H         1 <0>         0.1490
     32 H9          3.5299   -1.8429   -0.0410 H         1 <0>         0.1504
     33 H10         2.1283    3.7888   -1.9384 H         1 <0>         0.1244
     34 H11         2.1639    6.2475   -1.9183 H         1 <0>         0.1277
     35 H12         1.3048    7.4795    0.0301 H         1 <0>         0.1251
     36 H13         0.3974    6.2625    1.9660 H         1 <0>         0.1264
     37 H14         0.3420    3.8041    1.9638 H         1 <0>         0.1185
@<TRIPOS>BOND
     1    1    2 1
     2    1   25 1
     3    1   26 1
     4    1   27 1
     5    2    3 1
     6    2   28 1
     7    2   29 1
     8    3    4 1
     9    4    5 2
    10    4    6 1
    11    6   16 1
    12    6    7 2
    13    7    8 1
    14    7   19 1
    15    8   13 ar
    16    8    9 ar
    17    9   10 ar
    18    9   30 1
    19   10   11 ar
    20   10   18 1
    21   11   12 ar
    22   11   31 1
    23   12   13 ar
    24   12   32 1
    25   13   14 1
    26   14   15 1
    27   14   16 am
    28   16   17 2
    29   19   24 ar
    30   19   20 ar
    31   20   21 ar
    32   20   33 1
    33   21   22 ar
    34   21   34 1
    35   22   23 ar
    36   22   35 1
    37   23   24 ar
    38   23   36 1
    39   24   37 1
@<TRIPOS>MOLECULE
ZINC13985942
   49    51     0     0     0
SMALL
USER_CHARGES
5-[[3-methoxy-4-[(4-methoxyphenyl)methoxy]phenyl]methyl]pyrimidine-2,4-diamine
@<TRIPOS>ATOM
      1 C1          8.1395   -2.6131   -1.3573 C.3       1 <0>         0.0256
      2 O1          7.5480   -2.3801   -0.0774 O.3       1 <0>        -0.3162
      3 C2          6.2845   -1.8798   -0.0635 C.ar      1 <0>         0.1383
      4 C3          5.6496   -1.6295    1.1443 C.ar      1 <0>        -0.1549
      5 C4          4.3654   -1.1205    1.1558 C.ar      1 <0>        -0.0533
      6 C5          3.7129   -0.8606   -0.0352 C.ar      1 <0>        -0.1346
      7 C6          4.3414   -1.1146   -1.2403 C.ar      1 <0>        -0.0529
      8 C7          5.6277   -1.6182   -1.2571 C.ar      1 <0>        -0.2116
      9 C8          2.3119   -0.3054   -0.0198 C.3       1 <0>         0.1061
     10 O2          2.3655    1.1226   -0.0136 O.3       1 <0>        -0.2981
     11 C9          1.1779    1.7849    0.0004 C.ar      1 <0>         0.0987
     12 C10        -0.0126    1.0758    0.0080 C.ar      1 <0>        -0.1694
     13 C11        -1.2190    1.7507    0.0173 C.ar      1 <0>        -0.1147
     14 C12        -1.2413    3.1330    0.0298 C.ar      1 <0>        -0.0747
     15 C13        -0.0572    3.8465    0.0223 C.ar      1 <0>        -0.1655
     16 C14         1.1554    3.1762    0.0076 C.ar      1 <0>         0.1050
     17 O3          2.3211    3.8766    0.0007 O.3       1 <0>        -0.3053
     18 C15         2.2216    5.3021    0.0087 C.3       1 <0>         0.0255
     19 C16        -2.5592    3.8636    0.0458 C.3       1 <0>        -0.0120
     20 C17        -3.0118    4.1143   -1.3696 C.ar      1 <0>        -0.3055
     21 C18        -2.7356    5.3131   -1.9977 C.ar      1 <0>         0.2217
     22 N1         -3.1469    5.5024   -3.2428 N.ar      1 <0>        -0.6052
     23 C19        -3.8168    4.5598   -3.8895 C.ar      1 <0>         0.6015
     24 N2         -4.1013    3.3968   -3.3233 N.ar      1 <0>        -0.6272
     25 C20        -3.7149    3.1377   -2.0781 C.ar      1 <0>         0.4879
     26 N3         -4.0096    1.9184   -1.4901 N.pl3     1 <0>        -0.8353
     27 N4         -4.2292    4.7962   -5.1893 N.pl3     1 <0>        -0.8219
     28 H1          9.1455   -3.0115   -1.2255 H         1 <0>         0.1022
     29 H2          7.5344   -3.3303   -1.9120 H         1 <0>         0.0569
     30 H3          8.1897   -1.6753   -1.9105 H         1 <0>         0.0572
     31 H4          6.1588   -1.8326    2.0748 H         1 <0>         0.1345
     32 H5          3.8708   -0.9251    2.0958 H         1 <0>         0.1321
     33 H6          3.8278   -0.9152   -2.1692 H         1 <0>         0.1268
     34 H7          6.1198   -1.8122   -2.1987 H         1 <0>         0.1312
     35 H8          1.7930   -0.6534    0.8733 H         1 <0>         0.0704
     36 H9          1.7767   -0.6451   -0.9065 H         1 <0>         0.0686
     37 H10         0.0021   -0.0041    0.0020 H         1 <0>         0.1345
     38 H11        -2.1462    1.1969    0.0191 H         1 <0>         0.1198
     39 H12        -0.0774    4.9263    0.0276 H         1 <0>         0.1354
     40 H13         1.6757    5.6332   -0.8747 H         1 <0>         0.0551
     41 H14         1.6916    5.6243    0.9051 H         1 <0>         0.0557
     42 H15         3.2214    5.7363    0.0020 H         1 <0>         0.1006
     43 H16        -3.3037    3.2588    0.5635 H         1 <0>         0.0754
     44 H17        -2.4407    4.8155    0.5633 H         1 <0>         0.0856
     45 H18        -2.1899    6.0877   -1.4794 H         1 <0>         0.1621
     46 H19        -3.7272    1.7381   -0.5798 H         1 <0>         0.4095
     47 H20        -4.4984    1.2450   -1.9887 H         1 <0>         0.4062
     48 H21        -4.0270    5.6436   -5.6157 H         1 <0>         0.4151
     49 H22        -4.7204    4.1144   -5.6738 H         1 <0>         0.4129
@<TRIPOS>BOND
     1    1    2 1
     2    1   28 1
     3    1   29 1
     4    1   30 1
     5    2    3 1
     6    3    8 ar
     7    3    4 ar
     8    4    5 ar
     9    4   31 1
    10    5    6 ar
    11    5   32 1
    12    6    7 ar
    13    6    9 1
    14    7    8 ar
    15    7   33 1
    16    8   34 1
    17    9   10 1
    18    9   35 1
    19    9   36 1
    20   10   11 1
    21   11   16 ar
    22   11   12 ar
    23   12   13 ar
    24   12   37 1
    25   13   14 ar
    26   13   38 1
    27   14   15 ar
    28   14   19 1
    29   15   16 ar
    30   15   39 1
    31   16   17 1
    32   17   18 1
    33   18   40 1
    34   18   41 1
    35   18   42 1
    36   19   20 1
    37   19   43 1
    38   19   44 1
    39   20   25 ar
    40   20   21 ar
    41   21   22 ar
    42   21   45 1
    43   22   23 ar
    44   23   24 ar
    45   23   27 1
    46   24   25 ar
    47   25   26 1
    48   26   46 1
    49   26   47 1
    50   27   48 1
    51   27   49 1
@<TRIPOS>MOLECULE
ZINC13985942
   50    52     0     0     0
SMALL
USER_CHARGES
5-[[3-methoxy-4-[(4-methoxyphenyl)methoxy]phenyl]methyl]pyrimidine-2,4-diamine
@<TRIPOS>ATOM
      1 C1          8.1395   -2.6131   -1.3573 C.3       1 <0>         0.0248
      2 O1          7.5480   -2.3801   -0.0774 O.3       1 <0>        -0.3141
      3 C2          6.2845   -1.8798   -0.0635 C.ar      1 <0>         0.1443
      4 C3          5.6496   -1.6295    1.1443 C.ar      1 <0>        -0.1542
      5 C4          4.3654   -1.1205    1.1558 C.ar      1 <0>        -0.0518
      6 C5          3.7129   -0.8606   -0.0352 C.ar      1 <0>        -0.1432
      7 C6          4.3414   -1.1146   -1.2403 C.ar      1 <0>        -0.0521
      8 C7          5.6277   -1.6182   -1.2571 C.ar      1 <0>        -0.2122
      9 C8          2.3119   -0.3054   -0.0198 C.3       1 <0>         0.1072
     10 O2          2.3655    1.1226   -0.0136 O.3       1 <0>        -0.2938
     11 C9          1.1779    1.7849    0.0004 C.ar      1 <0>         0.1169
     12 C10        -0.0126    1.0758    0.0080 C.ar      1 <0>        -0.1691
     13 C11        -1.2190    1.7507    0.0173 C.ar      1 <0>        -0.1122
     14 C12        -1.2413    3.1330    0.0298 C.ar      1 <0>        -0.1043
     15 C13        -0.0572    3.8465    0.0223 C.ar      1 <0>        -0.1662
     16 C14         1.1554    3.1762    0.0076 C.ar      1 <0>         0.1092
     17 O3          2.3211    3.8766    0.0007 O.3       1 <0>        -0.2997
     18 C15         2.2216    5.3021    0.0087 C.3       1 <0>         0.0252
     19 C16        -2.5592    3.8636    0.0458 C.3       1 <0>        -0.0236
     20 C17        -3.0118    4.1143   -1.3696 C.ar      1 <0>        -0.2161
     21 C18        -2.7356    5.3131   -1.9977 C.ar      1 <0>         0.2017
     22 C19        -3.8168    4.5598   -3.8895 C.ar      1 <0>         0.6681
     23 N1         -4.1013    3.3968   -3.3233 N.ar      1 <0>        -0.5671
     24 C20        -3.7149    3.1377   -2.0781 C.ar      1 <0>         0.5394
     25 N2         -4.0096    1.9184   -1.4901 N.pl3     1 <0>        -0.7752
     26 N3         -4.2292    4.7962   -5.1893 N.pl3     1 <0>        -0.7923
     27 H1          9.1455   -3.0115   -1.2255 H         1 <0>         0.1047
     28 H2          7.5344   -3.3303   -1.9120 H         1 <0>         0.0579
     29 H3          8.1897   -1.6753   -1.9105 H         1 <0>         0.0577
     30 H4          6.1588   -1.8326    2.0748 H         1 <0>         0.1366
     31 H5          3.8708   -0.9251    2.0958 H         1 <0>         0.1321
     32 H6          3.8278   -0.9152   -2.1692 H         1 <0>         0.1254
     33 H7          6.1198   -1.8122   -2.1987 H         1 <0>         0.1326
     34 H8          1.7930   -0.6534    0.8733 H         1 <0>         0.0735
     35 H9          1.7767   -0.6451   -0.9065 H         1 <0>         0.0704
     36 H10         0.0021   -0.0041    0.0020 H         1 <0>         0.1411
     37 H11        -2.1462    1.1969    0.0191 H         1 <0>         0.1190
     38 H12        -0.0774    4.9263    0.0276 H         1 <0>         0.1366
     39 H13         1.6757    5.6332   -0.8747 H         1 <0>         0.0517
     40 H14         1.6916    5.6243    0.9051 H         1 <0>         0.0583
     41 H15         3.2214    5.7363    0.0020 H         1 <0>         0.1059
     42 H16        -3.3037    3.2588    0.5635 H         1 <0>         0.0977
     43 H17        -2.4407    4.8155    0.5633 H         1 <0>         0.1078
     44 H18        -2.1899    6.0877   -1.4794 H         1 <0>         0.2034
     45 H19        -3.7272    1.7381   -0.5798 H         1 <0>         0.4297
     46 H20        -4.4984    1.2450   -1.9887 H         1 <0>         0.4288
     47 H21        -4.0270    5.6436   -5.6157 H         1 <0>         0.4304
     48 H22        -4.7204    4.1144   -5.6738 H         1 <0>         0.4426
     49 N4         -3.1321    5.5670   -3.2770 N.ar      1 <0>        -0.5953
     50 H23        -2.9158    6.4458   -3.7024 H         1 <0>         0.4620
@<TRIPOS>BOND
     1    1    2 1
     2    1   27 1
     3    1   28 1
     4    1   29 1
     5    2    3 1
     6    3    8 ar
     7    3    4 ar
     8    4    5 ar
     9    4   30 1
    10    5    6 ar
    11    5   31 1
    12    6    7 ar
    13    6    9 1
    14    7    8 ar
    15    7   32 1
    16    8   33 1
    17    9   10 1
    18    9   34 1
    19    9   35 1
    20   10   11 1
    21   11   16 ar
    22   11   12 ar
    23   12   13 ar
    24   12   36 1
    25   13   14 ar
    26   13   37 1
    27   14   15 ar
    28   14   19 1
    29   15   16 ar
    30   15   38 1
    31   16   17 1
    32   17   18 1
    33   18   39 1
    34   18   40 1
    35   18   41 1
    36   19   20 1
    37   19   42 1
    38   19   43 1
    39   20   24 ar
    40   20   21 ar
    41   21   44 1
    42   21   49 ar
    43   22   23 ar
    44   22   26 1
    45   22   49 ar
    46   23   24 ar
    47   24   25 1
    48   25   45 1
    49   25   46 1
    50   26   47 1
    51   26   48 1
    52   49   50 1
@<TRIPOS>MOLECULE
ZINC13985942
   50    52     0     0     0
SMALL
USER_CHARGES
5-[[3-methoxy-4-[(4-methoxyphenyl)methoxy]phenyl]methyl]pyrimidine-2,4-diamine
@<TRIPOS>ATOM
      1 C1          8.1395   -2.6131   -1.3573 C.3       1 <0>         0.0247
      2 O1          7.5480   -2.3801   -0.0774 O.3       1 <0>        -0.3139
      3 C2          6.2845   -1.8798   -0.0635 C.ar      1 <0>         0.1451
      4 C3          5.6496   -1.6295    1.1443 C.ar      1 <0>        -0.1542
      5 C4          4.3654   -1.1205    1.1558 C.ar      1 <0>        -0.0515
      6 C5          3.7129   -0.8606   -0.0352 C.ar      1 <0>        -0.1446
      7 C6          4.3414   -1.1146   -1.2403 C.ar      1 <0>        -0.0519
      8 C7          5.6277   -1.6182   -1.2571 C.ar      1 <0>        -0.2122
      9 C8          2.3119   -0.3054   -0.0198 C.3       1 <0>         0.1070
     10 O2          2.3655    1.1226   -0.0136 O.3       1 <0>        -0.2921
     11 C9          1.1779    1.7849    0.0004 C.ar      1 <0>         0.1210
     12 C10        -0.0126    1.0758    0.0080 C.ar      1 <0>        -0.1699
     13 C11        -1.2190    1.7507    0.0173 C.ar      1 <0>        -0.1159
     14 C12        -1.2413    3.1330    0.0298 C.ar      1 <0>        -0.1124
     15 C13        -0.0572    3.8465    0.0223 C.ar      1 <0>        -0.1631
     16 C14         1.1554    3.1762    0.0076 C.ar      1 <0>         0.1125
     17 O3          2.3211    3.8766    0.0007 O.3       1 <0>        -0.2982
     18 C15         2.2216    5.3021    0.0087 C.3       1 <0>         0.0230
     19 C16        -2.5592    3.8636    0.0458 C.3       1 <0>        -0.0209
     20 C17        -3.0118    4.1143   -1.3696 C.ar      1 <0>        -0.2699
     21 C18        -2.7356    5.3131   -1.9977 C.ar      1 <0>         0.2541
     22 C19        -3.8168    4.5598   -3.8895 C.ar      1 <0>         0.5802
     23 N1         -4.1013    3.3968   -3.3233 N.ar      1 <0>        -0.5248
     24 C20        -3.7149    3.1377   -2.0781 C.ar      1 <0>         0.3637
     25 N2         -4.0096    1.9184   -1.4901 N.pl3     1 <0>        -0.7710
     26 N3         -4.2292    4.7962   -5.1893 N.pl3     1 <0>        -0.7389
     27 H1          9.1455   -3.0115   -1.2255 H         1 <0>         0.1050
     28 H2          7.5344   -3.3303   -1.9120 H         1 <0>         0.0580
     29 H3          8.1897   -1.6753   -1.9105 H         1 <0>         0.0579
     30 H4          6.1588   -1.8326    2.0748 H         1 <0>         0.1369
     31 H5          3.8708   -0.9251    2.0958 H         1 <0>         0.1321
     32 H6          3.8278   -0.9152   -2.1692 H         1 <0>         0.1254
     33 H7          6.1198   -1.8122   -2.1987 H         1 <0>         0.1329
     34 H8          1.7930   -0.6534    0.8733 H         1 <0>         0.0741
     35 H9          1.7767   -0.6451   -0.9065 H         1 <0>         0.0707
     36 H10         0.0021   -0.0041    0.0020 H         1 <0>         0.1429
     37 H11        -2.1462    1.1969    0.0191 H         1 <0>         0.1181
     38 H12        -0.0774    4.9263    0.0276 H         1 <0>         0.1408
     39 H13         1.6757    5.6332   -0.8747 H         1 <0>         0.0547
     40 H14         1.6916    5.6243    0.9051 H         1 <0>         0.0596
     41 H15         3.2214    5.7363    0.0020 H         1 <0>         0.1074
     42 H16        -3.3037    3.2588    0.5635 H         1 <0>         0.1031
     43 H17        -2.4407    4.8155    0.5633 H         1 <0>         0.1225
     44 H18        -2.1899    6.0877   -1.4794 H         1 <0>         0.2181
     45 H19        -3.7272    1.7381   -0.5798 H         1 <0>         0.4502
     46 H20        -4.4984    1.2450   -1.9887 H         1 <0>         0.4468
     47 H21        -4.0270    5.6436   -5.6157 H         1 <0>         0.4495
     48 H22        -4.7204    4.1144   -5.6738 H         1 <0>         0.4368
     49 N4         -3.1321    5.5670   -3.2770 N.ar      1 <0>        -0.4883
     50 H23        -3.8088    3.2127   -2.3849 H         1 <0>         0.4190
@<TRIPOS>BOND
     1    1    2 1
     2    1   27 1
     3    1   28 1
     4    1   29 1
     5    2    3 1
     6    3    8 ar
     7    3    4 ar
     8    4    5 ar
     9    4   30 1
    10    5    6 ar
    11    5   31 1
    12    6    7 ar
    13    6    9 1
    14    7    8 ar
    15    7   32 1
    16    8   33 1
    17    9   10 1
    18    9   34 1
    19    9   35 1
    20   10   11 1
    21   11   16 ar
    22   11   12 ar
    23   12   13 ar
    24   12   36 1
    25   13   14 ar
    26   13   37 1
    27   14   15 ar
    28   14   19 1
    29   15   16 ar
    30   15   38 1
    31   16   17 1
    32   17   18 1
    33   18   39 1
    34   18   40 1
    35   18   41 1
    36   19   20 1
    37   19   42 1
    38   19   43 1
    39   20   24 ar
    40   20   21 ar
    41   21   44 1
    42   21   49 ar
    43   22   23 ar
    44   22   26 1
    45   22   49 ar
    46   23   24 ar
    47   23   50 1
    48   24   25 1
    49   25   45 1
    50   25   46 1
    51   26   47 1
    52   26   48 1
@<TRIPOS>MOLECULE
ZINC12410091
   32    34     0     0     0
SMALL
USER_CHARGES

@<TRIPOS>ATOM
      1 C1         -1.1178    0.9648   -0.0829 C.3       1 <0>        -0.0893
      2 C2         -0.2110   -0.2369   -0.0149 C.2       1 <0>        -0.0965
      3 C3          0.2945   -0.9575   -1.0985 C.2       1 <0>        -0.2107
      4 C4          1.0666   -1.9603   -0.6105 C.2       1 <0>         0.0646
      5 N1          1.0661   -1.8976    0.7449 N.pl3     1 <0>        -0.5091
      6 H1          1.5402   -2.4998    1.3395 H         1 <0>         0.4188
      7 C5          0.2839   -0.8320    1.1355 C.2       1 <0>        -0.0205
      8 C6          0.0313   -0.4237    2.4614 C.2       1 <0>         0.0819
      9 C7         -0.0507   -1.3643    3.4702 C.2       1 <0>        -0.2071
     10 C8         -0.1650   -1.1166    4.9246 C.ar      1 <0>        -0.0949
     11 C9         -0.2226    0.0414    5.6934 C.ar      1 <0>        -0.0678
     12 C10        -0.3314   -0.0533    7.0660 C.ar      1 <0>        -0.1377
     13 C11        -0.3826   -1.2965    7.6746 C.ar      1 <0>        -0.0864
     14 C12        -0.3261   -2.4512    6.9211 C.ar      1 <0>        -0.1351
     15 C13        -0.2169   -2.3764    5.5367 C.ar      1 <0>         0.1361
     16 N2         -0.1424   -3.3615    4.5598 N.am      1 <0>        -0.6521
     17 C14        -0.0496   -2.8262    3.3306 C.2       1 <0>         0.5558
     18 O1          0.0255   -3.4453    2.2841 O.2       1 <0>        -0.5142
     19 C15         1.8050   -2.9793   -1.4395 C.3       1 <0>        -0.0930
     20 H2         -0.5157    1.8720   -0.1329 H         1 <0>         0.0696
     21 H3         -1.7460    0.8961   -0.9710 H         1 <0>         0.0689
     22 H4         -1.7478    0.9953    0.8062 H         1 <0>         0.0623
     23 H5          0.1040   -0.7529   -2.1417 H         1 <0>         0.1407
     24 H6         -0.0981    0.6243    2.6883 H         1 <0>         0.1527
     25 H7         -0.1820    1.0104    5.2182 H         1 <0>         0.1289
     26 H8         -0.3765    0.8433    7.6664 H         1 <0>         0.1307
     27 H9         -0.4670   -1.3628    8.7493 H         1 <0>         0.1317
     28 H10        -0.3669   -3.4147    7.4073 H         1 <0>         0.1271
     29 H11        -0.1589   -4.3141    4.7415 H         1 <0>         0.4170
     30 H12         2.8038   -2.6073   -1.6677 H         1 <0>         0.0754
     31 H13         1.8835   -3.9129   -0.8824 H         1 <0>         0.0673
     32 H14         1.2618   -3.1548   -2.3681 H         1 <0>         0.0848
@<TRIPOS>BOND
     1    1    2 1
     2    1   20 1
     3    1   21 1
     4    1   22 1
     5    2    7 2
     6    2    3 1
     7    3    4 2
     8    3   23 1
     9    4    5 1
    10    4   19 1
    11    5    6 1
    12    5    7 1
    13    7    8 1
    14    8    9 2
    15    8   24 1
    16    9   17 1
    17    9   10 1
    18   10   15 ar
    19   10   11 ar
    20   11   12 ar
    21   11   25 1
    22   12   13 ar
    23   12   26 1
    24   13   14 ar
    25   13   27 1
    26   14   15 ar
    27   14   28 1
    28   15   16 1
    29   16   17 am
    30   16   29 1
    31   17   18 2
    32   19   30 1
    33   19   31 1
    34   19   32 1
@<TRIPOS>MOLECULE
ZINC03073318
   36    38     0     0     0
SMALL
USER_CHARGES
[5-(2-amino-6-oxo-1H-purin-9-yl)-3,4-dihydroxy-tetrahydrofuran-2-yl]methoxyphosphonic acid
@<TRIPOS>ATOM
      1 C1          0.9744    6.9648   -3.8387 C.2       1 <0>         0.2513
      2 N1          0.5772    7.6381   -4.8786 N.2       1 <0>        -0.4307
      3 C2          0.1547    8.8642   -4.4847 C.2       1 <0>        -0.1225
      4 C3         -0.3656    9.9916   -5.1624 C.2       1 <0>         0.5936
      5 O1         -0.5143    9.9795   -6.3724 O.2       1 <0>        -0.5138
      6 N2         -0.6941   11.0823   -4.4352 N.am      1 <0>        -0.6417
      7 H1         -1.0637   11.8917   -4.8916 H         1 <0>         0.4264
      8 C4         -0.5241   11.0847   -3.0828 C.2       1 <0>         0.5848
      9 N3         -0.0414   10.0439   -2.4415 N.2       1 <0>        -0.5397
     10 C5          0.3055    8.9288   -3.0949 C.2       1 <0>         0.2828
     11 N4          0.8196    7.7196   -2.7122 N.pl3     1 <0>        -0.4408
     12 C6          1.1494    7.3121   -1.3442 C.3       1 <0>         0.3009
     13 H2          0.4479    7.7555   -0.6374 H         1 <0>         0.1183
     14 C7          2.5979    7.7205   -0.9958 C.3       1 <0>         0.0362
     15 H3          3.1947    7.8216   -1.9023 H         1 <0>         0.0856
     16 C8          3.1201    6.5512   -0.1314 C.3       1 <0>         0.0480
     17 H4          3.3866    6.9025    0.8655 H         1 <0>         0.0904
     18 C9          1.9253    5.5746   -0.0597 C.3       1 <0>         0.0880
     19 H5          1.3437    5.7498    0.8454 H         1 <0>         0.0988
     20 O2          1.1346    5.8724   -1.2310 O.3       1 <0>        -0.3300
     21 C10         2.4176    4.1267   -0.1033 C.3       1 <0>         0.1468
     22 O3          1.3018    3.2407    0.0070 O.3       1 <0>        -0.7567
     23 P1          1.4507    1.6376   -0.0030 P.3       1 <0>         2.1339
     24 O4          2.1794    1.2174   -1.2207 O.2       1 <0>        -1.1633
     25 O5          4.2410    5.9258   -0.7595 O.3       1 <0>        -0.5308
     26 O6          2.6088    8.9390   -0.2492 O.3       1 <0>        -0.5444
     27 N5         -0.8665   12.2063   -2.3702 N.pl3     1 <0>        -0.7477
     28 H6          1.3650    5.9582   -3.8628 H         1 <0>         0.2324
     29 H7          3.1042    3.9512    0.7249 H         1 <0>         0.0551
     30 H8          2.9328    3.9463   -1.0468 H         1 <0>         0.0565
     31 H9          5.0198    6.4946   -0.8309 H         1 <0>         0.3712
     32 H10         3.4937    9.2419   -0.0037 H         1 <0>         0.3810
     33 H11        -0.3256   12.9835   -2.6918 H         1 <0>         0.3672
     34 H12        -0.7513   12.2231   -1.4072 H         1 <0>         0.3936
     35 O7         -0.0110    0.9628    0.0073 O.3       1 <0>        -1.1793
     36 O8          2.2685    1.1664    1.3013 O.3       1 <0>        -1.2015
@<TRIPOS>BOND
     1    1   11 1
     2    1    2 2
     3    1   28 1
     4    2    3 1
     5    3   10 2
     6    3    4 1
     7    4    5 2
     8    4    6 am
     9    6    7 1
    10    6    8 1
    11    8    9 2
    12    8   27 1
    13    9   10 1
    14   10   11 1
    15   11   12 1
    16   12   13 1
    17   12   20 1
    18   12   14 1
    19   14   15 1
    20   14   16 1
    21   14   26 1
    22   16   17 1
    23   16   18 1
    24   16   25 1
    25   18   19 1
    26   18   20 1
    27   18   21 1
    28   21   22 1
    29   21   29 1
    30   21   30 1
    31   22   23 1
    32   23   24 2
    33   23   35 1
    34   23   36 1
    35   25   31 1
    36   26   32 1
    37   27   33 1
    38   27   34 1
@<TRIPOS>MOLECULE
ZINC03869963
   36    38     0     0     0
SMALL
USER_CHARGES
[5-(2-amino-6-oxo-3H-purin-9-yl)-3,4-dihydroxy-tetrahydrofuran-2-yl]methoxyphosphonic acid
@<TRIPOS>ATOM
      1 C1         -0.0164    1.3597    0.0095 C.2       1 <0>         0.2684
      2 N1          1.2047    1.8120    0.0003 N.2       1 <0>        -0.4412
      3 C2          2.0649    0.7674   -0.0135 C.2       1 <0>        -0.1140
      4 C3          1.3053   -0.3962   -0.0125 C.2       1 <0>         0.2620
      5 N2          0.0021   -0.0041    0.0020 N.pl3     1 <0>        -0.4212
      6 C4         -1.1676   -0.8861    0.0084 C.3       1 <0>         0.2980
      7 H1         -0.9648   -1.7798    0.5985 H         1 <0>         0.1173
      8 C5         -1.5580   -1.2722   -1.4355 C.3       1 <0>         0.0360
      9 H2         -1.1622   -2.2559   -1.6880 H         1 <0>         0.0835
     10 C6         -3.1044   -1.2973   -1.4105 C.3       1 <0>         0.0457
     11 H3         -3.4726   -2.2942   -1.6527 H         1 <0>         0.0845
     12 C7         -3.4628   -0.9270    0.0458 C.3       1 <0>         0.0863
     13 H4         -3.6143   -1.8270    0.6417 H         1 <0>         0.0964
     14 O1         -2.3198   -0.1894    0.5309 O.3       1 <0>        -0.3319
     15 C8         -4.7160   -0.0500    0.0794 C.3       1 <0>         0.1483
     16 O2         -5.0545    0.2455    1.4359 O.3       1 <0>        -0.7573
     17 P1         -6.3222    1.1490    1.8466 P.3       1 <0>         2.1346
     18 O3         -6.2396    2.4567    1.1583 O.2       1 <0>        -1.1635
     19 O4         -3.6400   -0.3328   -2.3187 O.3       1 <0>        -0.5195
     20 O5         -1.0886   -0.2896   -2.3608 O.3       1 <0>        -0.5300
     21 N3          1.9486   -1.6071   -0.0251 N.2       1 <0>        -0.5488
     22 H5          5.0568   -0.6912   -0.0496 H         1 <0>         0.4270
     23 C9          3.3058   -1.6676   -0.0383 C.2       1 <0>         0.5697
     24 N4          4.0619   -0.5909   -0.0397 N.am      1 <0>        -0.6180
     25 C10         3.5254    0.6393   -0.0281 C.2       1 <0>         0.5887
     26 O6          4.2383    1.6306   -0.0292 O.2       1 <0>        -0.5090
     27 N5          3.9099   -2.8963   -0.0506 N.pl3     1 <0>        -0.7487
     28 H6         -0.9070    1.9706    0.0213 H         1 <0>         0.2278
     29 H7         -4.5240    0.8789   -0.4578 H         1 <0>         0.0567
     30 H8         -5.5428   -0.5794   -0.3943 H         1 <0>         0.0533
     31 H9         -3.4447   -0.5165   -3.2478 H         1 <0>         0.3664
     32 H10        -1.3063   -0.4821   -3.2831 H         1 <0>         0.3755
     33 H11         4.4720   -2.9831   -0.8731 H         1 <0>         0.3668
     34 H12         3.3700   -3.7022   -0.0496 H         1 <0>         0.3922
     35 O7         -7.6790    0.3988    1.4126 O.3       1 <0>        -1.2021
     36 O8         -6.3228    1.3803    3.4399 O.3       1 <0>        -1.1799
@<TRIPOS>BOND
     1    1   28 1
     2    1    5 1
     3    1    2 2
     4    2    3 1
     5    3    4 2
     6    3   25 1
     7    4    5 1
     8    4   21 1
     9    5    6 1
    10    6    7 1
    11    6   14 1
    12    6    8 1
    13    8    9 1
    14    8   10 1
    15    8   20 1
    16   10   11 1
    17   10   12 1
    18   10   19 1
    19   12   13 1
    20   12   14 1
    21   12   15 1
    22   15   16 1
    23   15   29 1
    24   15   30 1
    25   16   17 1
    26   17   18 2
    27   17   35 1
    28   17   36 1
    29   19   31 1
    30   20   32 1
    31   21   23 2
    32   22   24 1
    33   23   24 1
    34   23   27 1
    35   24   25 am
    36   25   26 2
    37   27   34 1
    38   27   33 1
@<TRIPOS>MOLECULE
ZINC03869964
   36    38     0     0     0
SMALL
USER_CHARGES
[5-(2-amino-6-oxo-3H-purin-9-yl)-3,4-dihydroxy-tetrahydrofuran-2-yl]methoxyphosphonic acid
@<TRIPOS>ATOM
      1 C1         -3.0711    0.5590    1.4640 C.2       1 <0>         0.2309
      2 N1         -3.5946   -0.4828    2.0442 N.2       1 <0>        -0.4262
      3 C2         -2.6241   -1.1592    2.7014 C.2       1 <0>        -0.1182
      4 C3         -1.4309   -0.4771    2.4967 C.2       1 <0>         0.2634
      5 N2         -1.7311    0.5961    1.7155 N.pl3     1 <0>        -0.4507
      6 C4         -0.7879    1.6099    1.2371 C.3       1 <0>         0.2892
      7 H1         -0.0945    1.8887    2.0306 H         1 <0>         0.1461
      8 C5         -0.0146    1.0868    0.0064 C.3       1 <0>         0.0474
      9 H2         -0.0005   -0.0030   -0.0010 H         1 <0>         0.0785
     10 C6         -0.8145    1.6261   -1.2006 C.3       1 <0>         0.0454
     11 H3         -1.1959    0.8028   -1.8046 H         1 <0>         0.0841
     12 C7         -1.9797    2.4111   -0.5582 C.3       1 <0>         0.0626
     13 H4         -2.8646    1.7797   -0.4792 H         1 <0>         0.0944
     14 O1         -1.5010    2.7726    0.7556 O.3       1 <0>        -0.3077
     15 C8         -2.2926    3.6649   -1.3773 C.3       1 <0>         0.1494
     16 O2         -3.4447    4.3131   -0.8345 O.3       1 <0>        -0.7581
     17 P1         -4.0597    5.6680   -1.4494 P.3       1 <0>         2.1345
     18 O3         -4.3491    5.4702   -2.8873 O.2       1 <0>        -1.1659
     19 O4         -0.0017    2.4949   -1.9921 O.3       1 <0>        -0.5193
     20 O5          1.3176    1.6036   -0.0047 O.3       1 <0>        -0.5316
     21 N3         -0.2829   -0.9656    3.0656 N.2       1 <0>        -0.5469
     22 H5         -1.3861   -3.6006    4.5955 H         1 <0>         0.4281
     23 C9         -0.3119   -2.0975    3.8165 C.2       1 <0>         0.5744
     24 N4         -1.4196   -2.7732    4.0349 N.am      1 <0>        -0.6182
     25 C10        -2.5936   -2.3747    3.5208 C.2       1 <0>         0.5895
     26 O6         -3.6146   -3.0106    3.7314 O.2       1 <0>        -0.5047
     27 N5          0.8562   -2.5524    4.3671 N.pl3     1 <0>        -0.7488
     28 H6         -3.6146    1.2823    0.8743 H         1 <0>         0.2350
     29 H7         -1.4417    4.3451   -1.3400 H         1 <0>         0.0565
     30 H8         -2.4878    3.3836   -2.4121 H         1 <0>         0.0558
     31 H9          0.7785    2.0670   -2.3706 H         1 <0>         0.3664
     32 H10         1.8391    1.3304   -0.7718 H         1 <0>         0.3805
     33 H11         0.7674   -2.5784    5.3628 H         1 <0>         0.3690
     34 H12         1.6834   -2.0684    4.2182 H         1 <0>         0.3935
     35 O7         -5.4210    6.0397   -0.6742 O.3       1 <0>        -1.1790
     36 O8         -2.9987    6.8664   -1.2755 O.3       1 <0>        -1.1993
@<TRIPOS>BOND
     1    1   28 1
     2    1    5 1
     3    1    2 2
     4    2    3 1
     5    3    4 2
     6    3   25 1
     7    4    5 1
     8    4   21 1
     9    5    6 1
    10    6    7 1
    11    6   14 1
    12    6    8 1
    13    8    9 1
    14    8   10 1
    15    8   20 1
    16   10   11 1
    17   10   12 1
    18   10   19 1
    19   12   13 1
    20   12   14 1
    21   12   15 1
    22   15   16 1
    23   15   29 1
    24   15   30 1
    25   16   17 1
    26   17   18 2
    27   17   35 1
    28   17   36 1
    29   19   31 1
    30   20   32 1
    31   21   23 2
    32   22   24 1
    33   23   24 1
    34   23   27 1
    35   24   25 am
    36   25   26 2
    37   27   34 1
    38   27   33 1
@<TRIPOS>MOLECULE
ZINC03869965
   36    38     0     0     0
SMALL
USER_CHARGES
[5-(2-amino-6-oxo-3H-purin-9-yl)-3,4-dihydroxy-tetrahydrofuran-2-yl]methoxyphosphonic acid
@<TRIPOS>ATOM
      1 C1          5.5441   -0.8481    3.7712 C.2       1 <0>         0.2438
      2 N1          6.7319   -1.3564    3.9345 N.2       1 <0>        -0.4345
      3 C2          6.7211   -2.1717    5.0146 C.2       1 <0>        -0.1202
      4 C3          5.4350   -2.1474    5.5404 C.2       1 <0>         0.2751
      5 N2          4.7100   -1.3155    4.7438 N.pl3     1 <0>        -0.4333
      6 C4          3.2935   -0.9785    4.9054 C.3       1 <0>         0.2953
      7 H1          2.7435   -1.8501    5.2602 H         1 <0>         0.1373
      8 C5          3.1419    0.1809    5.9091 C.3       1 <0>         0.0418
      9 H2          2.4816   -0.1046    6.7280 H         1 <0>         0.0910
     10 C6          2.5102    1.3232    5.0768 C.3       1 <0>         0.0456
     11 H3          2.9617    2.2830    5.3278 H         1 <0>         0.0896
     12 C7          2.8685    0.9055    3.6278 C.3       1 <0>         0.0761
     13 H4          3.8880    1.2036    3.3834 H         1 <0>         0.0951
     14 O1          2.7507   -0.5333    3.6494 O.3       1 <0>        -0.3166
     15 C8          1.8781    1.5122    2.6317 C.3       1 <0>         0.1451
     16 O2          2.2685    1.1664    1.3013 O.3       1 <0>        -0.7560
     17 P1          1.4507    1.6376   -0.0030 P.3       1 <0>         2.1337
     18 O3          1.3138    3.1113    0.0062 O.2       1 <0>        -1.1660
     19 O4          1.0936    1.3645    5.2601 O.3       1 <0>        -0.5294
     20 O5          4.4193    0.5766    6.4129 O.3       1 <0>        -0.5407
     21 N3          5.1620   -2.8947    6.6572 N.2       1 <0>        -0.5451
     22 H5          8.0448   -4.2489    7.2536 H         1 <0>         0.4260
     23 C9          6.1352   -3.6383    7.2453 C.2       1 <0>         0.5679
     24 N4          7.3660   -3.6854    6.7828 N.am      1 <0>        -0.6185
     25 C10         7.7293   -2.9927    5.6921 C.2       1 <0>         0.5885
     26 O6          8.8749   -3.0455    5.2728 O.2       1 <0>        -0.5108
     27 N5          5.8232   -4.3666    8.3618 N.pl3     1 <0>        -0.7498
     28 H6          5.2628   -0.1618    2.9861 H         1 <0>         0.2243
     29 H7          1.8736    2.5969    2.7388 H         1 <0>         0.0537
     30 H8          0.8793    1.1234    2.8299 H         1 <0>         0.0565
     31 H9          0.8196    1.6209    6.1513 H         1 <0>         0.3724
     32 H10         4.3891    1.3407    7.0049 H         1 <0>         0.3810
     33 H11         5.9896   -5.3366    8.1844 H         1 <0>         0.3669
     34 H12         4.9214   -4.3451    8.7186 H         1 <0>         0.3915
     35 O7         -0.0110    0.9628    0.0073 O.3       1 <0>        -1.1990
     36 O8          2.2434    1.1806   -1.3277 O.3       1 <0>        -1.1783
@<TRIPOS>BOND
     1    1   28 1
     2    1    5 1
     3    1    2 2
     4    2    3 1
     5    3    4 2
     6    3   25 1
     7    4    5 1
     8    4   21 1
     9    5    6 1
    10    6    7 1
    11    6   14 1
    12    6    8 1
    13    8    9 1
    14    8   10 1
    15    8   20 1
    16   10   11 1
    17   10   12 1
    18   10   19 1
    19   12   13 1
    20   12   14 1
    21   12   15 1
    22   15   16 1
    23   15   29 1
    24   15   30 1
    25   16   17 1
    26   17   18 2
    27   17   35 1
    28   17   36 1
    29   19   31 1
    30   20   32 1
    31   21   23 2
    32   22   24 1
    33   23   24 1
    34   23   27 1
    35   24   25 am
    36   25   26 2
    37   27   34 1
    38   27   33 1
@<TRIPOS>MOLECULE
ZINC05387628
   28    31     0     0     0
SMALL
USER_CHARGES

@<TRIPOS>ATOM
      1 C1         -0.0167    1.3790    0.0096 C.ar      1 <0>        -0.1062
      2 C2          1.1686    2.0920    0.0021 C.ar      1 <0>        -0.1212
      3 C3          2.3774    1.4260   -0.0130 C.ar      1 <0>        -0.0859
      4 C4          2.4023    0.0328   -0.0207 C.ar      1 <0>        -0.0282
      5 C5          1.2051   -0.6804   -0.0131 C.ar      1 <0>        -0.0880
      6 C6          0.0021   -0.0041    0.0020 C.ar      1 <0>        -0.1191
      7 C7          3.6985   -0.6887   -0.0375 C.2       1 <0>         0.1620
      8 C8          3.9676   -1.9172    0.6064 C.2       1 <0>        -0.0526
      9 C9          5.2862   -2.2350    0.3397 C.2       1 <0>         0.0466
     10 C10         5.5400   -3.5131    1.0187 C.ar      1 <0>        -0.1120
     11 C11         6.6507   -4.3465    1.1341 C.ar      1 <0>        -0.0589
     12 C12         6.5578   -5.5106    1.8655 C.ar      1 <0>        -0.1396
     13 C13         5.3649   -5.8527    2.4841 C.ar      1 <0>        -0.0732
     14 C14         4.2589   -5.0364    2.3774 C.ar      1 <0>        -0.1165
     15 C15         4.3318   -3.8579    1.6449 C.ar      1 <0>         0.1046
     16 O1          3.4293   -2.8904    1.3768 O.3       1 <0>        -0.1733
     17 N1          5.8008   -1.2376   -0.4374 N.pl3     1 <0>        -0.4440
     18 H1          6.7072   -1.1918   -0.7798 H         1 <0>         0.4495
     19 N2          4.7885   -0.2951   -0.6588 N.2       1 <0>        -0.2315
     20 H2         -0.9603    1.9042    0.0260 H         1 <0>         0.1266
     21 H3          1.1482    3.1718    0.0078 H         1 <0>         0.1287
     22 H4          3.3023    1.9837   -0.0192 H         1 <0>         0.1289
     23 H5          1.2186   -1.7603   -0.0194 H         1 <0>         0.1267
     24 H6         -0.9264   -0.5557    0.0079 H         1 <0>         0.1290
     25 H7          7.5801   -4.0814    0.6521 H         1 <0>         0.1298
     26 H8          7.4168   -6.1589    1.9569 H         1 <0>         0.1358
     27 H9          5.3014   -6.7675    3.0547 H         1 <0>         0.1415
     28 H10         3.3350   -5.3134    2.8633 H         1 <0>         0.1402
@<TRIPOS>BOND
     1    1    6 ar
     2    1    2 ar
     3    1   20 1
     4    2    3 ar
     5    2   21 1
     6    3    4 ar
     7    3   22 1
     8    4    5 ar
     9    4    7 1
    10    5    6 ar
    11    5   23 1
    12    6   24 1
    13    7   19 2
    14    7    8 1
    15    8   16 1
    16    8    9 2
    17    9   10 1
    18    9   17 1
    19   10   15 ar
    20   10   11 ar
    21   11   12 ar
    22   11   25 1
    23   12   13 ar
    24   12   26 1
    25   13   14 ar
    26   13   27 1
    27   14   15 ar
    28   14   28 1
    29   15   16 1
    30   17   18 1
    31   17   19 1
@<TRIPOS>MOLECULE
ZINC04842164
   40    42     0     0     0
SMALL
USER_CHARGES

@<TRIPOS>ATOM
      1 C1         -0.0327    1.3724   -0.0117 C.ar      1 <0>        -0.1053
      2 C2          1.1495    2.0896   -0.0251 C.ar      1 <0>        -0.1189
      3 C3          2.3635    1.4288   -0.0376 C.ar      1 <0>        -0.1081
      4 C4          2.3984    0.0422   -0.0363 C.ar      1 <0>         0.1566
      5 C5          1.2059   -0.6812   -0.0222 C.ar      1 <0>         0.1239
      6 C6         -0.0075   -0.0097   -0.0103 C.ar      1 <0>        -0.1131
      7 N1          1.2338   -2.0816   -0.0212 N.am      1 <0>        -0.6442
      8 C7          0.2943   -2.7738    0.6531 C.2       1 <0>         0.6010
      9 O1         -0.6244   -2.1858    1.1932 O.2       1 <0>        -0.4808
     10 C8          0.3790   -4.2353    0.7361 C.2       1 <0>        -0.0008
     11 C9         -0.5038   -5.0551    1.3792 C.2       1 <0>        -0.1213
     12 C10        -0.0375   -6.3673    1.2035 C.2       1 <0>        -0.0870
     13 C11         1.0950   -6.2921    0.4702 C.2       1 <0>         0.0324
     14 O2          1.3395   -5.0063    0.1856 O.3       1 <0>        -0.1372
     15 N2          1.9251   -7.4419    0.0458 N.pl3     1 <0>         0.0647
     16 O3          1.6053   -8.5657    0.3565 O.2       1 <0>        -0.1110
     17 O4          2.9230   -7.2572   -0.6114 O.3       1 <0>        -0.1192
     18 N3          3.6259   -0.6289   -0.0494 N.pl3     1 <0>        -0.6781
     19 C12         4.2713   -0.9842   -1.3206 C.3       1 <0>         0.1399
     20 C13         5.7016   -0.4354   -1.3177 C.3       1 <0>        -0.1354
     21 C14         6.4366   -0.9447   -0.0758 C.3       1 <0>        -0.1169
     22 C15         5.7242   -0.4428    1.1823 C.3       1 <0>        -0.1364
     23 C16         4.2971   -0.9863    1.2078 C.3       1 <0>         0.1459
     24 H1         -0.9785    1.8936    0.0022 H         1 <0>         0.1292
     25 H2          1.1242    3.1693   -0.0262 H         1 <0>         0.1267
     26 H3          3.2849    1.9921   -0.0489 H         1 <0>         0.1275
     27 H4         -0.9328   -0.5666    0.0002 H         1 <0>         0.1404
     28 H5          1.9292   -2.5532   -0.5058 H         1 <0>         0.4183
     29 H6         -1.3890   -4.7523    1.9188 H         1 <0>         0.1907
     30 H7         -0.4975   -7.2678    1.5830 H         1 <0>         0.1918
     31 H8          4.2962   -2.0687   -1.4271 H         1 <0>         0.0507
     32 H9          3.7136   -0.5463   -2.1484 H         1 <0>         0.0698
     33 H10         6.2228   -0.7737   -2.2132 H         1 <0>         0.0689
     34 H11         5.6732    0.6541   -1.3025 H         1 <0>         0.0645
     35 H12         6.4430   -2.0347   -0.0791 H         1 <0>         0.0617
     36 H13         7.4622   -0.5757   -0.0839 H         1 <0>         0.0616
     37 H14         6.2616   -0.7864    2.0662 H         1 <0>         0.0682
     38 H15         5.6956    0.6467    1.1741 H         1 <0>         0.0643
     39 H16         3.7565   -0.5498    2.0476 H         1 <0>         0.0673
     40 H17         4.3242   -2.0709    1.3120 H         1 <0>         0.0475
@<TRIPOS>BOND
     1    1    6 ar
     2    1    2 ar
     3    1   24 1
     4    2    3 ar
     5    2   25 1
     6    3    4 ar
     7    3   26 1
     8    4    5 ar
     9    4   18 1
    10    5    6 ar
    11    5    7 1
    12    6   27 1
    13    7    8 am
    14    7   28 1
    15    8    9 2
    16    8   10 1
    17   10   14 1
    18   10   11 2
    19   11   12 1
    20   11   29 1
    21   12   13 2
    22   12   30 1
    23   13   14 1
    24   13   15 1
    25   15   16 2
    26   15   17 1
    27   18   23 1
    28   18   19 1
    29   19   20 1
    30   19   31 1
    31   19   32 1
    32   20   21 1
    33   20   33 1
    34   20   34 1
    35   21   22 1
    36   21   35 1
    37   21   36 1
    38   22   23 1
    39   22   37 1
    40   22   38 1
    41   23   39 1
    42   23   40 1
@<TRIPOS>MOLECULE
ZINC21288966
   49    52     0     0     0
SMALL
USER_CHARGES
2-(2-chlorophenyl)-5,7-dihydroxy-8-[(3S,4R)-3-hydroxy-1-methyl-4-piperidyl]chromen-4-one
@<TRIPOS>ATOM
      1 C1          6.0895   -0.0238    5.9621 C.3       1 <0>        -0.0460
      2 N1          6.1756    1.0472    4.9603 N.4       1 <0>        -0.3934
      3 C2          5.9739    0.5180    3.6055 C.3       1 <0>        -0.0028
      4 C3          6.2126    1.6289    2.5802 C.3       1 <0>        -0.1464
      5 C4          5.2418    2.7821    2.8491 C.3       1 <0>        -0.0180
      6 H1          4.2050    2.4431    2.7074 H         1 <0>         0.1039
      7 C5          5.4391    3.2830    4.2825 C.3       1 <0>         0.1015
      8 H2          4.7709    4.1271    4.5084 H         1 <0>         0.0941
      9 C6          5.2218    2.1236    5.2574 C.3       1 <0>        -0.0361
     10 O1          6.7669    3.7898    4.4323 O.3       1 <0>        -0.5639
     11 C7          5.5132    3.9050    1.8814 C.ar      1 <0>        -0.2158
     12 C8          6.8017    4.3949    1.7322 C.ar      1 <0>         0.2946
     13 C9          7.0678    5.4304    0.8434 C.ar      1 <0>        -0.3049
     14 C10         6.0448    5.9841    0.0956 C.ar      1 <0>         0.3111
     15 C11         4.7411    5.4942    0.2412 C.ar      1 <0>        -0.3649
     16 C12         4.4748    4.4470    1.1407 C.ar      1 <0>         0.2362
     17 O2          3.2147    3.9814    1.2730 O.3       1 <0>        -0.2171
     18 C13         2.1871    4.4838    0.5705 C.2       1 <0>         0.1982
     19 C14         2.3394    5.4926   -0.3277 C.2       1 <0>        -0.2780
     20 C15         3.6225    6.0546   -0.5353 C.2       1 <0>         0.4382
     21 O3          3.7953    6.9641   -1.3304 O.2       1 <0>        -0.4786
     22 C16         0.8407    3.9147    0.7769 C.ar      1 <0>        -0.0680
     23 C17         0.6478    2.5322    0.7263 C.ar      1 <0>        -0.0708
     24 C18        -0.6124    2.0073    0.9205 C.ar      1 <0>        -0.1159
     25 C19        -1.6867    2.8467    1.1599 C.ar      1 <0>        -0.0780
     26 C20        -1.5036    4.2164    1.2169 C.ar      1 <0>        -0.1066
     27 C21        -0.2472    4.7566    1.0243 C.ar      1 <0>        -0.0057
     28 Cl1        -0.0199    6.4765    1.0889 Cl        1 <0>        -0.0424
     29 O4          6.3024    6.9947   -0.7728 O.3       1 <0>        -0.4999
     30 O5          7.8133    3.8585    2.4614 O.3       1 <0>        -0.4665
     31 H3          6.8128   -0.8151    5.7159 H         1 <0>         0.1242
     32 H4          5.0728   -0.4438    5.9634 H         1 <0>         0.1169
     33 H5          6.3184    0.3856    6.9571 H         1 <0>         0.1225
     34 H6          6.6809   -0.3050    3.4243 H         1 <0>         0.1308
     35 H7          4.9438    0.1448    3.5072 H         1 <0>         0.1211
     36 H8          7.2477    1.9910    2.6662 H         1 <0>         0.1216
     37 H9          6.0450    1.2349    1.5669 H         1 <0>         0.1057
     38 H10         4.1951    1.7434    5.1512 H         1 <0>         0.1298
     39 H11         5.3771    2.4772    6.2874 H         1 <0>         0.1312
     40 H12         7.0946    4.1958    5.4007 H         1 <0>         0.4106
     41 H13         8.0758    5.8030    0.7365 H         1 <0>         0.1471
     42 H14         1.4871    5.8659   -0.8759 H         1 <0>         0.1670
     43 H15         1.4839    1.8757    0.5352 H         1 <0>         0.1384
     44 H16        -0.7625    0.9385    0.8812 H         1 <0>         0.1407
     45 H17        -2.6721    2.4298    1.3071 H         1 <0>         0.1438
     46 H18        -2.3456    4.8651    1.4082 H         1 <0>         0.1476
     47 H19         5.4855    7.4321   -1.3656 H         1 <0>         0.4556
     48 H20         8.8375    4.2431    2.3473 H         1 <0>         0.4397
     49 H21         7.1882    1.4744    5.0059 H         1 <0>         0.4481
@<TRIPOS>BOND
     1    1    2 1
     2    1   31 1
     3    1   32 1
     4    1   33 1
     5    2    9 1
     6    2    3 1
     7    2   49 1
     8    3    4 1
     9    3   34 1
    10    3   35 1
    11    4    5 1
    12    4   36 1
    13    4   37 1
    14    5    6 1
    15    5    7 1
    16    5   11 1
    17    7    8 1
    18    7    9 1
    19    7   10 1
    20    9   38 1
    21    9   39 1
    22   10   40 1
    23   11   16 ar
    24   11   12 ar
    25   12   13 ar
    26   12   30 1
    27   13   14 ar
    28   13   41 1
    29   14   15 ar
    30   14   29 1
    31   15   20 1
    32   15   16 ar
    33   16   17 1
    34   17   18 1
    35   18   19 2
    36   18   22 1
    37   19   20 1
    38   19   42 1
    39   20   21 2
    40   22   27 ar
    41   22   23 ar
    42   23   24 ar
    43   23   43 1
    44   24   25 ar
    45   24   44 1
    46   25   26 ar
    47   25   45 1
    48   26   27 ar
    49   26   46 1
    50   27   28 1
    51   29   47 1
    52   30   48 1
@<TRIPOS>MOLECULE
ZINC16052730
   56    60     0     0     0
SMALL
USER_CHARGES
N-(4-chlorophenyl)-6-[(6,7-dimethoxy-4-quinolyl)oxy]naphthalene-1-carboxamide
@<TRIPOS>ATOM
      1 C1          2.6893    6.4089    4.7046 C.3       1 <0>         0.0224
      2 O1          2.2948    7.7772    4.5854 O.3       1 <0>        -0.2990
      3 C2          2.1900    8.2821    3.3272 C.ar      1 <0>         0.1299
      4 C3          2.4587    7.4829    2.2539 C.ar      1 <0>        -0.1690
      5 C4          2.3501    8.0038    0.9558 C.ar      1 <0>        -0.1013
      6 C5          2.6199    7.2065   -0.1791 C.ar      1 <0>         0.1416
      7 C6          2.4858    7.7883   -1.4274 C.ar      1 <0>        -0.1800
      8 C7          2.1014    9.1193   -1.5294 C.ar      1 <0>         0.1403
      9 N1          1.8581    9.8525   -0.4685 N.ar      1 <0>        -0.4668
     10 C8          1.9680    9.3547    0.7690 C.ar      1 <0>         0.1528
     11 C9          1.7032   10.1536    1.8937 C.ar      1 <0>        -0.1720
     12 C10         1.8065    9.6185    3.1454 C.ar      1 <0>         0.1457
     13 O2          1.5442   10.3943    4.2298 O.3       1 <0>        -0.2992
     14 C11         1.1580   11.7475    3.9813 C.3       1 <0>         0.0206
     15 O3          2.9932    5.9094   -0.0491 O.3       1 <0>        -0.2514
     16 C12         2.0160    4.9669    0.0061 C.ar      1 <0>         0.1272
     17 C13         0.6756    5.3630    0.0344 C.ar      1 <0>        -0.1711
     18 C14        -0.3245    4.4408    0.0888 C.ar      1 <0>        -0.0761
     19 C15        -0.0107    3.0747    0.1179 C.ar      1 <0>        -0.0333
     20 C16         1.3458    2.6686    0.0894 C.ar      1 <0>        -0.0239
     21 C17         2.3557    3.6437    0.0328 C.ar      1 <0>        -0.1440
     22 C18         1.6598    1.2985    0.1178 C.ar      1 <0>        -0.0725
     23 C19         0.6642    0.3695    0.1722 C.ar      1 <0>        -0.1204
     24 C20        -0.6720    0.7481    0.1954 C.ar      1 <0>        -0.0743
     25 C21        -1.0277    2.0889    0.1749 C.ar      1 <0>        -0.1205
     26 C22        -2.4478    2.4839    0.2049 C.2       1 <0>         0.5656
     27 O4         -2.7561    3.6543    0.0854 O.2       1 <0>        -0.5074
     28 N2         -3.4044    1.5480    0.3648 N.am      1 <0>        -0.6646
     29 C23        -4.7402    1.9327    0.5207 C.ar      1 <0>         0.1524
     30 C24        -5.0479    3.1782    1.0527 C.ar      1 <0>        -0.1162
     31 C25        -6.3676    3.5576    1.2007 C.ar      1 <0>        -0.0870
     32 C26        -7.3829    2.6934    0.8301 C.ar      1 <0>        -0.0520
     33 C27        -7.0792    1.4497    0.3046 C.ar      1 <0>        -0.0872
     34 C28        -5.7612    1.0676    0.1492 C.ar      1 <0>        -0.1366
     35 Cl1        -9.0408    3.1706    1.0241 Cl        1 <0>        -0.0681
     36 H1          2.7339    6.1341    5.7584 H         1 <0>         0.1067
     37 H2          1.9633    5.7758    4.1944 H         1 <0>         0.0576
     38 H3          3.6714    6.2731    4.2517 H         1 <0>         0.0591
     39 H4          2.7532    6.4546    2.4031 H         1 <0>         0.1459
     40 H5          2.6796    7.2101   -2.3188 H         1 <0>         0.1476
     41 H6          2.0003    9.5631   -2.5088 H         1 <0>         0.1693
     42 H7          1.4071   11.1846    1.7681 H         1 <0>         0.1552
     43 H8          1.9544   12.2592    3.4408 H         1 <0>         0.0611
     44 H9          0.2464   11.7613    3.3840 H         1 <0>         0.0611
     45 H10         0.9788   12.2541    4.9296 H         1 <0>         0.1066
     46 H11         0.4301    6.4145    0.0125 H         1 <0>         0.1293
     47 H12        -1.3558    4.7605    0.1095 H         1 <0>         0.1742
     48 H13         3.3945    3.3491    0.0101 H         1 <0>         0.1420
     49 H14         2.6921    0.9816    0.0960 H         1 <0>         0.1370
     50 H15         0.9186   -0.6799    0.1931 H         1 <0>         0.1357
     51 H16        -1.4415   -0.0087    0.2344 H         1 <0>         0.1287
     52 H17        -3.1665    0.6077    0.3717 H         1 <0>         0.4133
     53 H18        -4.2559    3.8512    1.3461 H         1 <0>         0.1517
     54 H19        -6.6074    4.5277    1.6101 H         1 <0>         0.1381
     55 H20        -7.8735    0.7775    0.0156 H         1 <0>         0.1390
     56 H21        -5.5247    0.0970   -0.2613 H         1 <0>         0.1362
@<TRIPOS>BOND
     1    1    2 1
     2    1   36 1
     3    1   37 1
     4    1   38 1
     5    2    3 1
     6    3   12 ar
     7    3    4 ar
     8    4    5 ar
     9    4   39 1
    10    5   10 ar
    11    5    6 ar
    12    6    7 ar
    13    6   15 1
    14    7    8 ar
    15    7   40 1
    16    8    9 ar
    17    8   41 1
    18    9   10 ar
    19   10   11 ar
    20   11   12 ar
    21   11   42 1
    22   12   13 1
    23   13   14 1
    24   14   43 1
    25   14   44 1
    26   14   45 1
    27   15   16 1
    28   16   21 ar
    29   16   17 ar
    30   17   18 ar
    31   17   46 1
    32   18   19 ar
    33   18   47 1
    34   19   25 ar
    35   19   20 ar
    36   20   21 ar
    37   20   22 ar
    38   21   48 1
    39   22   23 ar
    40   22   49 1
    41   23   24 ar
    42   23   50 1
    43   24   25 ar
    44   24   51 1
    45   25   26 1
    46   26   27 2
    47   26   28 am
    48   28   29 1
    49   28   52 1
    50   29   34 ar
    51   29   30 ar
    52   30   31 ar
    53   30   53 1
    54   31   32 ar
    55   31   54 1
    56   32   33 ar
    57   32   35 1
    58   33   34 ar
    59   33   55 1
    60   34   56 1
@<TRIPOS>MOLECULE
ZINC11617039
   55    58     0     0     0
SMALL
USER_CHARGES

@<TRIPOS>ATOM
      1 H1          0.2120    6.2074    3.3921 H         1 <0>         0.1353
      2 C1         -0.6814    5.6062    3.3098 C.ar      1 <0>         0.0196
      3 C2         -1.0741    5.1311    2.1031 C.ar      1 <0>        -0.1998
      4 C3         -2.2288    4.3474    1.9606 C.ar      1 <0>         0.2426
      5 C4         -3.0111    4.0257    3.0293 C.ar      1 <0>        -0.1858
      6 C5         -2.6578    4.4884    4.3143 C.ar      1 <0>         0.1374
      7 C6         -1.4433    5.3059    4.4600 C.ar      1 <0>        -0.2352
      8 C7         -1.3367    5.6110    5.8041 C.2       1 <0>         0.1330
      9 N1         -2.3705    5.0424    6.4391 N.pl3     1 <0>        -0.3190
     10 N2         -3.1795    4.3626    5.5213 N.2       1 <0>        -0.3200
     11 C8         -2.6225    5.1281    7.8797 C.3       1 <0>         0.0831
     12 H2         -3.2434    5.9992    8.0888 H         1 <0>         0.0888
     13 H3         -3.1369    4.2268    8.2129 H         1 <0>         0.0992
     14 H4         -1.6744    5.2222    8.4094 H         1 <0>         0.0983
     15 C9         -0.2495    6.4365    6.4425 C.3       1 <0>        -0.1025
     16 H5         -0.5455    7.4855    6.4477 H         1 <0>         0.0927
     17 H6         -0.0907    6.0987    7.4666 H         1 <0>         0.0807
     18 H7          0.6740    6.3223    5.8749 H         1 <0>         0.0943
     19 H8         -3.8955    3.4210    2.8932 H         1 <0>         0.1075
     20 N3         -2.5862    3.8853    0.6908 N.pl3     1 <0>        -0.5925
     21 C10        -3.6562    3.0160    0.5454 C.ar      1 <0>         0.5430
     22 C11        -3.4766    1.6392    0.6984 C.ar      1 <0>        -0.2193
     23 C12        -4.5711    0.8111    0.5450 C.ar      1 <0>         0.2156
     24 N4         -5.7510    1.3422    0.2594 N.ar      1 <0>        -0.5411
     25 C13        -5.8925    2.6520    0.1199 C.ar      1 <0>         0.6254
     26 N5         -4.8692    3.4808    0.2639 N.ar      1 <0>        -0.5160
     27 N6         -7.1427    3.1682   -0.1788 N.pl3     1 <0>        -0.6061
     28 C14        -7.2911    4.5338   -0.4396 C.ar      1 <0>         0.0902
     29 C15        -6.2697    5.2382   -1.0645 C.ar      1 <0>        -0.0370
     30 C16        -6.4197    6.5867   -1.3210 C.ar      1 <0>        -0.1186
     31 C17        -7.5850    7.2362   -0.9562 C.ar      1 <0>         0.0334
     32 C18        -8.6034    6.5381   -0.3338 C.ar      1 <0>        -0.6606
     33 C19        -8.4623    5.1877   -0.0798 C.ar      1 <0>        -0.0140
     34 S1        -10.0857    7.3705    0.1294 S.o2      1 <0>         2.7024
     35 O1        -10.5091    8.1093   -1.0082 O.2       1 <0>        -0.9461
     36 O2        -10.9137    6.4040    0.7615 O.2       1 <0>        -0.9598
     37 N7         -9.6818    8.4799    1.2907 N.pl3     1 <0>        -1.2481
     38 C20        -7.7450    8.7080   -1.2374 C.3       1 <0>        -0.1567
     39 H9         -8.1929    8.8433   -2.2218 H         1 <0>         0.1090
     40 H10        -8.3897    9.1545   -0.4804 H         1 <0>         0.0769
     41 H11        -6.7680    9.1908   -1.2132 H         1 <0>         0.0924
     42 H12        -4.4665   -0.2581    0.6563 H         1 <0>         0.2280
     43 H13        -2.5039    1.2316    0.9310 H         1 <0>         0.1988
     44 C21        -1.8301    4.3196   -0.4864 C.3       1 <0>         0.0917
     45 H14        -1.0078    3.6271   -0.6659 H         1 <0>         0.0746
     46 H15        -2.4881    4.3354   -1.3553 H         1 <0>         0.0729
     47 H16        -1.4320    5.3196   -0.3140 H         1 <0>         0.0953
     48 H17        -0.4834    5.3620    1.2289 H         1 <0>         0.1346
     49 H18        -7.9152    2.5823   -0.2071 H         1 <0>         0.4391
     50 H19        -5.3592    4.7318   -1.3490 H         1 <0>         0.1427
     51 H20        -5.6260    7.1349   -1.8068 H         1 <0>         0.1482
     52 H21        -9.2599    4.6421    0.4024 H         1 <0>         0.1564
     53 H22        -8.7604    8.5635    1.5820 H         1 <0>         0.4174
     54 H23       -10.3667    9.0460    1.6797 H         1 <0>         0.4270
     55 H24        -6.5221    0.7638    0.1506 H         1 <0>         0.4504
@<TRIPOS>BOND
     1    1    2 1
     2    2    7 ar
     3    2    3 ar
     4    3    4 ar
     5    3   48 1
     6    4    5 ar
     7    4   20 1
     8    5    6 ar
     9    5   19 1
    10    6   10 2
    11    6    7 ar
    12    7    8 2
    13    8    9 1
    14    8   15 1
    15    9   10 1
    16    9   11 1
    17   11   12 1
    18   11   13 1
    19   11   14 1
    20   15   16 1
    21   15   17 1
    22   15   18 1
    23   20   21 1
    24   20   44 1
    25   21   26 ar
    26   21   22 ar
    27   22   23 ar
    28   22   43 1
    29   23   24 ar
    30   23   42 1
    31   24   25 ar
    32   24   55 1
    33   25   26 ar
    34   25   27 1
    35   27   28 1
    36   27   49 1
    37   28   33 ar
    38   28   29 ar
    39   29   30 ar
    40   29   50 1
    41   30   31 ar
    42   30   51 1
    43   31   32 ar
    44   31   38 1
    45   32   33 ar
    46   32   34 1
    47   33   52 1
    48   34   35 2
    49   34   36 2
    50   34   37 1
    51   37   53 1
    52   37   54 1
    53   38   39 1
    54   38   40 1
    55   38   41 1
    56   44   45 1
    57   44   46 1
    58   44   47 1
@<TRIPOS>MOLECULE
ZINC40423853
   72    77     0     0     0
SMALL
USER_CHARGES

@<TRIPOS>ATOM
      1 C1          2.2379    1.3842   -0.2342 C.3       1 <0>        -0.0473
      2 N1          2.0950   -0.0778   -0.2340 N.4       1 <0>        -0.3852
      3 C2          2.3510   -0.5928    1.1164 C.3       1 <0>        -0.0072
      4 C3          2.2832   -2.1215    1.1048 C.3       1 <0>        -0.1412
      5 C4          0.8905   -2.5617    0.6445 C.3       1 <0>        -0.0508
      6 C5          0.6045   -1.9576   -0.7334 C.3       1 <0>        -0.1411
      7 C6          0.7345   -0.4350   -0.6536 C.3       1 <0>        -0.0070
      8 C7          0.8410   -4.0652    0.5556 C.ar      1 <0>        -0.1132
      9 C8          1.7052   -4.7351   -0.2911 C.ar      1 <0>        -0.0936
     10 C9          1.6627   -6.1130   -0.3746 C.ar      1 <0>        -0.1063
     11 C10         0.7508   -6.8260    0.3931 C.ar      1 <0>         0.1731
     12 C11        -0.1158   -6.1500    1.2425 C.ar      1 <0>        -0.1391
     13 C12        -0.0645   -4.7724    1.3252 C.ar      1 <0>        -0.0851
     14 N2          0.7049   -8.2209    0.3106 N.pl3     1 <0>        -0.6282
     15 C13         1.8651   -8.9385    0.0937 C.ar      1 <0>         0.6099
     16 N3          3.0240   -8.2890    0.0752 N.ar      1 <0>        -0.5706
     17 C14         4.1613   -8.9305   -0.1280 C.ar      1 <0>         0.2834
     18 C15         4.1194  -10.3120   -0.3238 C.ar      1 <0>        -0.3313
     19 C16         5.3361  -11.1038   -0.5559 C.2       1 <0>         0.4546
     20 O1          6.4377  -10.5834   -0.5870 O.2       1 <0>        -0.4810
     21 C17         5.1647  -12.5548   -0.7488 C.2       1 <0>        -0.3113
     22 C18         3.8948  -13.0872   -0.7027 C.2       1 <0>         0.2582
     23 N4          2.8056  -12.3289   -0.4878 N.pl3     1 <0>        -0.4194
     24 C19         2.8738  -10.9709   -0.2983 C.ar      1 <0>         0.4674
     25 N5          1.7802  -10.2481   -0.0825 N.ar      1 <0>        -0.5809
     26 C20         1.5509  -12.9492   -0.4559 C.ar      1 <0>         0.0883
     27 C21         1.2863  -13.9382    0.4827 C.ar      1 <0>        -0.1031
     28 C22         0.0480  -14.5458    0.5100 C.ar      1 <0>        -0.0925
     29 C23        -0.9333  -14.1744   -0.3952 C.ar      1 <0>        -0.0738
     30 C24        -0.6729  -13.1902   -1.3310 C.ar      1 <0>        -0.0858
     31 C25         0.5659  -12.5741   -1.3581 C.ar      1 <0>        -0.0652
     32 C26        -1.8957  -12.9701   -2.1958 C.3       1 <0>        -0.0822
     33 C27        -2.7753  -14.2193   -1.9772 C.3       1 <0>        -0.1217
     34 C28        -2.3491  -14.6821   -0.5678 C.3       1 <0>        -0.0880
     35 C29         6.3305  -13.4204   -0.9871 C.2       1 <0>         0.5966
     36 O2          6.1706  -14.5976   -1.2487 O.2       1 <0>        -0.5314
     37 N6          7.5754  -12.9090   -0.9156 N.am      1 <0>        -0.5864
     38 O3          8.6911  -13.7114   -1.2572 O.3       1 <0>        -0.1461
     39 C30         9.9476  -13.0417   -1.1356 C.3       1 <0>         0.0006
     40 H1          1.5174    1.8198    0.4581 H         1 <0>         0.1214
     41 H2          3.2479    1.6506    0.0773 H         1 <0>         0.1237
     42 H3          2.0544    1.7671   -1.2381 H         1 <0>         0.1236
     43 H4          3.3412   -0.2760    1.4439 H         1 <0>         0.1315
     44 H5          1.5999   -0.2014    1.8025 H         1 <0>         0.1287
     45 H6          3.0341   -2.5139    0.4192 H         1 <0>         0.0906
     46 H7          2.4718   -2.5018    2.1087 H         1 <0>         0.1143
     47 H8          0.1437   -2.2128    1.3576 H         1 <0>         0.0951
     48 H9          1.3206   -2.3466   -1.4572 H         1 <0>         0.0901
     49 H10        -0.4068   -2.2207   -1.0433 H         1 <0>         0.1139
     50 H11         0.0179   -0.0470    0.0702 H         1 <0>         0.1288
     51 H12         0.5313   -0.0016   -1.6329 H         1 <0>         0.1312
     52 H13         2.4138   -4.1801   -0.8880 H         1 <0>         0.1216
     53 H14         2.3377   -6.6355   -1.0363 H         1 <0>         0.1388
     54 H15        -0.8262   -6.7014    1.8405 H         1 <0>         0.1306
     55 H16        -0.7352   -4.2465    1.9885 H         1 <0>         0.1285
     56 H17        -0.1417   -8.6848    0.4058 H         1 <0>         0.4293
     57 H18         5.1010   -8.3984   -0.1425 H         1 <0>         0.1942
     58 H19         3.7699  -14.1506   -0.8446 H         1 <0>         0.1944
     59 H20         2.0483  -14.2307    1.1900 H         1 <0>         0.1352
     60 H21        -0.1575  -15.3147    1.2400 H         1 <0>         0.1355
     61 H22         0.7678  -11.8022   -2.0860 H         1 <0>         0.1235
     62 H23        -2.4271  -12.0730   -1.8781 H         1 <0>         0.0831
     63 H24        -1.6080  -12.8888   -3.2440 H         1 <0>         0.0783
     64 H25        -3.8330  -13.9565   -1.9953 H         1 <0>         0.0815
     65 H26        -2.5524  -14.9850   -2.7203 H         1 <0>         0.0768
     66 H27        -2.3711  -15.7701   -0.5043 H         1 <0>         0.0826
     67 H28        -3.0023  -14.2451    0.1874 H         1 <0>         0.0863
     68 H29         7.7072  -11.9914   -0.6302 H         1 <0>         0.4186
     69 H30         9.9619  -12.1736   -1.7947 H         1 <0>         0.0568
     70 H31        10.0882  -12.7174   -0.1045 H         1 <0>         0.0563
     71 H32        10.7511  -13.7232   -1.4150 H         1 <0>         0.1145
     72 H33         2.7606   -0.4799   -0.8769 H         1 <0>         0.4244
@<TRIPOS>BOND
     1    1    2 1
     2    1   40 1
     3    1   41 1
     4    1   42 1
     5    2    7 1
     6    2    3 1
     7    2   72 1
     8    3    4 1
     9    3   43 1
    10    3   44 1
    11    4    5 1
    12    4   45 1
    13    4   46 1
    14    5    6 1
    15    5    8 1
    16    5   47 1
    17    6    7 1
    18    6   48 1
    19    6   49 1
    20    7   50 1
    21    7   51 1
    22    8   13 ar
    23    8    9 ar
    24    9   10 ar
    25    9   52 1
    26   10   11 ar
    27   10   53 1
    28   11   12 ar
    29   11   14 1
    30   12   13 ar
    31   12   54 1
    32   13   55 1
    33   14   15 1
    34   14   56 1
    35   15   25 ar
    36   15   16 ar
    37   16   17 ar
    38   17   18 ar
    39   17   57 1
    40   18   24 ar
    41   18   19 1
    42   19   20 2
    43   19   21 1
    44   21   22 2
    45   21   35 1
    46   22   23 1
    47   22   58 1
    48   23   24 1
    49   23   26 1
    50   24   25 ar
    51   26   31 ar
    52   26   27 ar
    53   27   28 ar
    54   27   59 1
    55   28   29 ar
    56   28   60 1
    57   29   34 1
    58   29   30 ar
    59   30   31 ar
    60   30   32 1
    61   31   61 1
    62   32   33 1
    63   32   62 1
    64   32   63 1
    65   33   34 1
    66   33   64 1
    67   33   65 1
    68   34   66 1
    69   34   67 1
    70   35   36 2
    71   35   37 am
    72   37   38 1
    73   37   68 1
    74   38   39 1
    75   39   69 1
    76   39   70 1
    77   39   71 1
@<TRIPOS>MOLECULE
ZINC03939511
   51    54     0     0     0
SMALL
USER_CHARGES
5-(5,6-dimethoxybenzoimidazol-1-yl)-3-[[2-(trifluoromethyl)phenyl]methoxy]thiophene-2-carboxamide
@<TRIPOS>ATOM
      1 C1         -0.0127    1.0858    0.0080 C.3       1 <0>         0.0222
      2 O1         -0.6816    1.5467    1.1837 O.3       1 <0>        -0.2998
      3 C2         -0.7875    2.8932    1.3463 C.ar      1 <0>         0.1125
      4 C3         -0.2596    3.7424    0.3960 C.ar      1 <0>        -0.1249
      5 C4         -0.3691    5.1259    0.5632 C.ar      1 <0>         0.0605
      6 C5         -1.0167    5.6383    1.6995 C.ar      1 <0>         0.0543
      7 C6         -1.5438    4.7741    2.6486 C.ar      1 <0>        -0.1734
      8 C7         -1.4348    3.4076    2.4710 C.ar      1 <0>         0.1403
      9 O2         -1.9560    2.5606    3.3989 O.3       1 <0>        -0.2950
     10 C8         -2.6053    3.1527    4.5258 C.3       1 <0>         0.0214
     11 N1         -0.9639    7.0169    1.5796 N.pl3     1 <0>        -0.4137
     12 C9         -0.3090    7.2957    0.4154 C.2       1 <0>         0.2752
     13 N2          0.0376    6.1909   -0.1768 N.2       1 <0>        -0.4657
     14 C10        -1.4815    7.9446    2.4786 C.2       1 <0>         0.1204
     15 C11        -0.8665    9.0319    3.0383 C.2       1 <0>        -0.2335
     16 C12        -1.5723    9.8251    3.9091 C.2       1 <0>         0.1982
     17 C13        -2.8919    9.4789    4.1948 C.2       1 <0>        -0.2745
     18 S1         -3.1128    8.0133    3.1997 S.3       1 <0>         0.1482
     19 C14        -3.8151   10.1211    5.0504 C.2       1 <0>         0.6130
     20 O3         -3.4860   11.1240    5.6587 O.2       1 <0>        -0.5182
     21 N3         -5.0597    9.6241    5.1934 N.am      1 <0>        -0.8524
     22 O4         -0.9985   10.9150    4.4803 O.3       1 <0>        -0.2616
     23 C15         0.3584   11.1930    4.1287 C.3       1 <0>         0.0759
     24 C16         0.8219   12.4300    4.8541 C.ar      1 <0>        -0.0454
     25 C17        -0.0429   13.1011    5.6986 C.ar      1 <0>        -0.0945
     26 C18         0.3837   14.2328    6.3675 C.ar      1 <0>        -0.0830
     27 C19         1.6720   14.6998    6.1841 C.ar      1 <0>        -0.1160
     28 C20         2.5349   14.0319    5.3358 C.ar      1 <0>        -0.0710
     29 C21         2.1098   12.8968    4.6707 C.ar      1 <0>        -0.1786
     30 C22         3.0506   12.1689    3.7454 C.3       1 <0>         0.5060
     31 F1          4.2855   12.8260    3.7246 F         1 <0>        -0.1717
     32 F2          3.2278   10.8571    4.1981 F         1 <0>        -0.1763
     33 F3          2.5117   12.1480    2.4545 F         1 <0>        -0.1763
     34 H1          0.0021   -0.0041    0.0020 H         1 <0>         0.1048
     35 H2          1.0099    1.4631    0.0003 H         1 <0>         0.0586
     36 H3         -0.5399    1.4469   -0.8751 H         1 <0>         0.0587
     37 H4          0.2370    3.3396   -0.4743 H         1 <0>         0.1508
     38 H5         -2.0417    5.1683    3.5222 H         1 <0>         0.1402
     39 H6         -1.8955    3.7787    5.0666 H         1 <0>         0.0573
     40 H7         -3.4413    3.7630    4.1841 H         1 <0>         0.0579
     41 H8         -2.9744    2.3680    5.1862 H         1 <0>         0.1068
     42 H9         -0.1079    8.2885    0.0407 H         1 <0>         0.2232
     43 H10         0.1599    9.2646    2.7959 H         1 <0>         0.1588
     44 H11        -5.3217    8.8255    4.7091 H         1 <0>         0.3977
     45 H12        -5.6934   10.0649    5.7808 H         1 <0>         0.4106
     46 H13         0.9873   10.3489    4.4116 H         1 <0>         0.0901
     47 H14         0.4293   11.3545    3.0531 H         1 <0>         0.0906
     48 H15        -1.0507   12.7388    5.8384 H         1 <0>         0.1533
     49 H16        -0.2907   14.7549    7.0301 H         1 <0>         0.1374
     50 H17         2.0040   15.5866    6.7034 H         1 <0>         0.1383
     51 H18         3.5412   14.3969    5.1923 H         1 <0>         0.1425
@<TRIPOS>BOND
     1    1    2 1
     2    1   34 1
     3    1   35 1
     4    1   36 1
     5    2    3 1
     6    3    8 ar
     7    3    4 ar
     8    4    5 ar
     9    4   37 1
    10    5   13 1
    11    5    6 ar
    12    6    7 ar
    13    6   11 1
    14    7    8 ar
    15    7   38 1
    16    8    9 1
    17    9   10 1
    18   10   39 1
    19   10   40 1
    20   10   41 1
    21   11   12 1
    22   11   14 1
    23   12   13 2
    24   12   42 1
    25   14   18 1
    26   14   15 2
    27   15   16 1
    28   15   43 1
    29   16   17 2
    30   16   22 1
    31   17   18 1
    32   17   19 1
    33   19   20 2
    34   19   21 am
    35   21   44 1
    36   21   45 1
    37   22   23 1
    38   23   24 1
    39   23   46 1
    40   23   47 1
    41   24   29 ar
    42   24   25 ar
    43   25   26 ar
    44   25   48 1
    45   26   27 ar
    46   26   49 1
    47   27   28 ar
    48   27   50 1
    49   28   29 ar
    50   28   51 1
    51   29   30 1
    52   30   31 1
    53   30   32 1
    54   30   33 1
@<TRIPOS>MOLECULE
ZINC40393428
   43    46     0     0     0
SMALL
USER_CHARGES

@<TRIPOS>ATOM
      1 C1          1.0860   -0.4602    0.7525 C.ar      1 <0>        -0.0841
      2 C2          2.2745    0.2438    0.7392 C.ar      1 <0>        -0.1151
      3 C3          2.3811    1.4103   -0.0065 C.ar      1 <0>         0.1760
      4 C4          1.2918    1.8661   -0.7371 C.ar      1 <0>        -0.1379
      5 C5          0.1052    1.1577   -0.7200 C.ar      1 <0>        -0.0148
      6 C6          0.0027   -0.0047    0.0245 C.ar      1 <0>        -0.1235
      7 Cl1        -1.2579    1.7264   -1.6324 Cl        1 <0>        -0.0629
      8 N1          3.5838    2.1253   -0.0212 N.am      1 <0>        -0.6779
      9 C7          4.7585    1.4702    0.0657 C.2       1 <0>         0.7004
     10 O1          4.7784    0.2546    0.0596 O.2       1 <0>        -0.5033
     11 N2          5.9109    2.1627    0.1596 N.am      1 <0>        -0.6266
     12 C8          7.1223    1.4870    0.2493 C.2       1 <0>         0.2860
     13 N3          7.3361    0.1891    0.2518 N.2       1 <0>        -0.5158
     14 C9          8.5589   -0.3008    0.3445 C.2       1 <0>         0.0768
     15 C10         9.5748    0.5917    0.4362 C.2       1 <0>        -0.2162
     16 S1          8.6723    2.1310    0.3736 S.3       1 <0>         0.1280
     17 C11        11.0579    0.3512    0.5526 C.3       1 <0>        -0.0363
     18 C12        11.6753    0.2860   -0.8457 C.3       1 <0>         0.1313
     19 N4         13.1171    0.0522   -0.7326 N.pl3     1 <0>        -0.7061
     20 C13        13.8949   -0.0448   -1.8749 C.ar      1 <0>         0.4986
     21 C14        15.2577   -0.2712   -1.7887 C.ar      1 <0>        -0.2996
     22 C15        16.0555   -0.3716   -2.9487 C.ar      1 <0>         0.1938
     23 C16        17.4235   -0.6022   -2.7204 C.2       1 <0>        -0.1561
     24 C17        17.8907   -0.7126   -1.4622 C.2       1 <0>        -0.1043
     25 S2         16.4217   -0.4971   -0.4711 S.3       1 <0>         0.0744
     26 N5         15.3968   -0.2319   -4.1261 N.ar      1 <0>        -0.5372
     27 C18        14.1074   -0.0188   -4.1645 C.ar      1 <0>         0.3437
     28 N6         13.3491    0.0719   -3.0857 N.ar      1 <0>        -0.5638
     29 H1          1.0044   -1.3699    1.3289 H         1 <0>         0.1384
     30 H2          3.1201   -0.1128    1.3086 H         1 <0>         0.1426
     31 H3          1.3716    2.7733   -1.3178 H         1 <0>         0.1376
     32 H4         -0.9253   -0.5572    0.0363 H         1 <0>         0.1366
     33 H5          3.5722    3.0925   -0.0941 H         1 <0>         0.4112
     34 H6          5.8950    3.1325    0.1645 H         1 <0>         0.4247
     35 H7          8.7413   -1.3653    0.3475 H         1 <0>         0.1767
     36 H8         11.5152    1.1660    1.1141 H         1 <0>         0.0881
     37 H9         11.2335   -0.5911    1.0716 H         1 <0>         0.0988
     38 H10        11.2181   -0.5287   -1.4072 H         1 <0>         0.0778
     39 H11        11.4997    1.2283   -1.3647 H         1 <0>         0.0747
     40 H12        13.5272   -0.0346    0.1422 H         1 <0>         0.4118
     41 H13        18.1015   -0.6915   -3.5564 H         1 <0>         0.1518
     42 H14        18.9044   -0.8881   -1.1337 H         1 <0>         0.2028
     43 H15        13.6355    0.0848   -5.1304 H         1 <0>         0.1990
@<TRIPOS>BOND
     1    1    6 ar
     2    1    2 ar
     3    1   29 1
     4    2    3 ar
     5    2   30 1
     6    3    4 ar
     7    3    8 1
     8    4    5 ar
     9    4   31 1
    10    5    6 ar
    11    5    7 1
    12    6   32 1
    13    8    9 am
    14    8   33 1
    15    9   10 2
    16    9   11 am
    17   11   12 1
    18   11   34 1
    19   12   16 1
    20   12   13 2
    21   13   14 1
    22   14   15 2
    23   14   35 1
    24   15   16 1
    25   15   17 1
    26   17   18 1
    27   17   36 1
    28   17   37 1
    29   18   19 1
    30   18   38 1
    31   18   39 1
    32   19   20 1
    33   19   40 1
    34   20   28 ar
    35   20   21 ar
    36   21   25 1
    37   21   22 ar
    38   22   23 1
    39   22   26 ar
    40   23   24 2
    41   23   41 1
    42   24   25 1
    43   24   42 1
    44   26   27 ar
    45   27   28 ar
    46   27   43 1
@<TRIPOS>MOLECULE
ZINC03816310
   51    55     0     0     0
SMALL
USER_CHARGES
4-amino-5-fluoro-3-[5-(4-methylpiperazin-1-yl)-3H-benzoimidazol-2-yl]-1H-quinolin-2-one
@<TRIPOS>ATOM
      1 C1         -4.4670    0.8494    3.0633 C.3       1 <0>        -0.0407
      2 C2         -3.3790    0.9463    0.9019 C.3       1 <0>         0.0019
      3 C3         -3.5151    1.4789   -0.5264 C.3       1 <0>         0.0203
      4 N1         -3.5799    2.9467   -0.4951 N.pl3     1 <0>        -0.4822
      5 C4         -4.7239    3.4034    0.3063 C.3       1 <0>         0.0231
      6 C5         -4.5878    2.8708    1.7347 C.3       1 <0>         0.0021
      7 C6         -3.6324    3.4738   -1.7895 C.ar      1 <0>         0.0898
      8 C7         -3.6187    2.6172   -2.8884 C.ar      1 <0>        -0.1658
      9 C8         -3.6694    3.1157   -4.1588 C.ar      1 <0>        -0.0428
     10 C9         -3.7362    4.4973   -4.3655 C.ar      1 <0>         0.0571
     11 C10        -3.7506    5.3641   -3.2589 C.ar      1 <0>         0.0655
     12 C11        -3.7036    4.8454   -1.9734 C.ar      1 <0>        -0.1134
     13 N2         -3.8198    6.6467   -3.7722 N.pl3     1 <0>        -0.5851
     14 H1         -3.8464    7.4962   -3.2453 H         1 <0>         0.4436
     15 C12        -3.8451    6.5353   -5.1390 C.2       1 <0>         0.4046
     16 N3         -3.7957    5.2687   -5.4809 N.2       1 <0>        -0.5294
     17 C13        -3.9164    7.6652   -6.0804 C.2       1 <0>        -0.3025
     18 C14        -4.0559    7.4305   -7.4504 C.2       1 <0>         0.3760
     19 C15        -4.1228    8.5898   -8.3476 C.ar      1 <0>        -0.1878
     20 C16        -4.0447    9.8830   -7.7997 C.ar      1 <0>         0.2450
     21 C17        -4.1078   10.9864   -8.6429 C.ar      1 <0>        -0.1734
     22 C18        -4.2458   10.8081  -10.0035 C.ar      1 <0>        -0.0185
     23 C19        -4.3231    9.5350  -10.5468 C.ar      1 <0>        -0.1801
     24 C20        -4.2628    8.4239   -9.7304 C.ar      1 <0>         0.1680
     25 F1         -4.3388    7.1843  -10.2623 F         1 <0>        -0.1206
     26 N4         -3.9076   10.0470   -6.4354 N.am      1 <0>        -0.6368
     27 H2         -3.8498   10.9715   -6.0585 H         1 <0>         0.4300
     28 C21        -3.8500    8.9949   -5.6023 C.2       1 <0>         0.5826
     29 O1         -3.7334    9.1908   -4.4050 O.2       1 <0>        -0.5600
     30 N5         -4.1288    6.1500   -7.9440 N.pl3     1 <0>        -0.8025
     31 H3         -3.5472    1.1734    3.5502 H         1 <0>         0.1241
     32 H4         -5.3249    1.2032    3.6351 H         1 <0>         0.1225
     33 H5         -4.4877   -0.2393    3.0134 H         1 <0>         0.1228
     34 H6         -3.3598   -0.1434    0.8835 H         1 <0>         0.1376
     35 H7         -2.4541    1.3189    1.3424 H         1 <0>         0.1399
     36 H8         -2.6529    1.1655   -1.1151 H         1 <0>         0.1307
     37 H9         -4.4260    1.0841   -0.9765 H         1 <0>         0.0717
     38 H10        -4.7431    4.4931    0.3248 H         1 <0>         0.1261
     39 H11        -5.6486    3.0309   -0.1345 H         1 <0>         0.0691
     40 H12        -3.6769    3.2656    2.1847 H         1 <0>         0.1400
     41 H13        -5.4498    3.1846    2.3235 H         1 <0>         0.1367
     42 H14        -3.5672    1.5496   -2.7341 H         1 <0>         0.1314
     43 H15        -3.6582    2.4431   -5.0037 H         1 <0>         0.1346
     44 H16        -3.7183    5.5073   -1.1202 H         1 <0>         0.1268
     45 H17        -4.0491   11.9836   -8.2323 H         1 <0>         0.1496
     46 H18        -4.2944   11.6697  -10.6529 H         1 <0>         0.1516
     47 H19        -4.4307    9.4121  -11.6144 H         1 <0>         0.1515
     48 H20        -4.3218    5.4103   -7.3468 H         1 <0>         0.4285
     49 H21        -3.9874    5.9859   -8.8895 H         1 <0>         0.4092
     50 N6         -4.5458    1.3938    1.6909 N.4       1 <0>        -0.3998
     51 H22        -5.4033    1.0486    1.2438 H         1 <0>         0.4274
@<TRIPOS>BOND
     1    1   31 1
     2    1   32 1
     3    1   33 1
     4    1   50 1
     5    2    3 1
     6    2   34 1
     7    2   35 1
     8    2   50 1
     9    3    4 1
    10    3   36 1
    11    3   37 1
    12    4    5 1
    13    4    7 1
    14    5    6 1
    15    5   38 1
    16    5   39 1
    17    6   40 1
    18    6   41 1
    19    6   50 1
    20    7   12 ar
    21    7    8 ar
    22    8    9 ar
    23    8   42 1
    24    9   10 ar
    25    9   43 1
    26   10   16 1
    27   10   11 ar
    28   11   12 ar
    29   11   13 1
    30   12   44 1
    31   13   14 1
    32   13   15 1
    33   15   16 2
    34   15   17 1
    35   17   28 1
    36   17   18 2
    37   18   19 1
    38   18   30 1
    39   19   24 ar
    40   19   20 ar
    41   20   21 ar
    42   20   26 1
    43   21   22 ar
    44   21   45 1
    45   22   23 ar
    46   22   46 1
    47   23   24 ar
    48   23   47 1
    49   24   25 1
    50   26   27 1
    51   26   28 am
    52   28   29 2
    53   30   48 1
    54   30   49 1
    55   50   51 1
@<TRIPOS>MOLECULE
ZINC18710085
   53    57     0     0     0
SMALL
USER_CHARGES

@<TRIPOS>ATOM
      1 C1          0.0890    1.3306    0.4873 C.3       1 <0>         0.0749
      2 N1          0.4081   -0.0534    0.1284 N.pl3     1 <0>        -0.5085
      3 C2          0.3528   -0.6077   -1.1416 C.ar      1 <0>         0.0507
      4 C3          0.0137   -0.1123   -2.3916 C.ar      1 <0>        -0.0838
      5 C4          0.0591   -0.9388   -3.4947 C.ar      1 <0>        -0.1077
      6 C5          0.4436   -2.2696   -3.3617 C.ar      1 <0>         0.0751
      7 C6          0.7843   -2.7778   -2.1231 C.ar      1 <0>        -0.0835
      8 C7          0.7420   -1.9496   -0.9988 C.ar      1 <0>         0.0911
      9 N2          1.0108   -2.1503    0.3180 N.2       1 <0>        -0.5208
     10 C8          0.8212   -1.0367    0.9810 C.2       1 <0>         0.5369
     11 N3          1.0073   -0.8814    2.3399 N.pl3     1 <0>        -0.6412
     12 C9          1.5328   -1.9319    3.0980 C.ar      1 <0>         0.2053
     13 C10         2.3998   -2.8463    2.5135 C.ar      1 <0>        -0.1275
     14 C11         2.9176   -3.8826    3.2654 C.ar      1 <0>        -0.0424
     15 C12         2.5735   -4.0107    4.5987 C.ar      1 <0>        -0.2053
     16 C13         1.7106   -3.1021    5.1837 C.ar      1 <0>        -0.0432
     17 C14         1.1938   -2.0602    4.4389 C.ar      1 <0>        -0.1549
     18 C15         3.1396   -5.1433    5.4158 C.3       1 <0>         0.5100
     19 F1          4.3412   -4.7372    6.0062 F         1 <0>        -0.1771
     20 F2          2.2267   -5.5000    6.4140 F         1 <0>        -0.1778
     21 F3          3.3767   -6.2442    4.5857 F         1 <0>        -0.1766
     22 O1          0.4838   -3.0743   -4.4569 O.3       1 <0>        -0.2390
     23 C16        -0.5198   -3.9726   -4.6248 C.ar      1 <0>         0.1693
     24 C17        -1.5519   -4.0724   -3.6928 C.ar      1 <0>        -0.2330
     25 C18        -2.5577   -4.9965   -3.8940 C.ar      1 <0>         0.1462
     26 N4         -2.5549   -5.7828   -4.9518 N.ar      1 <0>        -0.5008
     27 C19        -1.5918   -5.7224   -5.8653 C.ar      1 <0>         0.2185
     28 C20        -0.5464   -4.8114   -5.7333 C.ar      1 <0>        -0.1453
     29 C21        -1.6332   -6.6264   -7.0353 C.2       1 <0>         0.2951
     30 N5         -2.5993   -7.5546   -7.2938 N.pl3     1 <0>        -0.5196
     31 H1         -3.3797   -7.7419   -6.7491 H         1 <0>         0.4364
     32 C22        -2.2593   -8.1700   -8.4662 C.2       1 <0>        -0.1211
     33 C23        -1.1072   -7.6076   -8.8883 C.2       1 <0>         0.0664
     34 N6         -0.7487   -6.6689   -8.0066 N.2       1 <0>        -0.4582
     35 C24        -3.0256   -9.2688   -9.1565 C.3       1 <0>         0.5516
     36 F4         -3.9502   -8.7065  -10.0431 F         1 <0>        -0.1675
     37 F5         -2.1361  -10.0835   -9.8651 F         1 <0>        -0.1592
     38 F6         -3.7018  -10.0363   -8.2021 F         1 <0>        -0.1759
     39 H2          0.9883    1.9420    0.4122 H         1 <0>         0.0804
     40 H3         -0.6705    1.7164   -0.1926 H         1 <0>         0.0932
     41 H4         -0.2881    1.3632    1.5095 H         1 <0>         0.0841
     42 H5         -0.2858    0.9195   -2.5011 H         1 <0>         0.1337
     43 H6         -0.2058   -0.5511   -4.4673 H         1 <0>         0.1432
     44 H7          1.0819   -3.8113   -2.0243 H         1 <0>         0.1405
     45 H8          0.7733   -0.0434    2.7688 H         1 <0>         0.4223
     46 H9          2.6684   -2.7473    1.4722 H         1 <0>         0.1551
     47 H10         3.5917   -4.5939    2.8116 H         1 <0>         0.1402
     48 H11         1.4439   -3.2049    6.2251 H         1 <0>         0.1410
     49 H12         0.5234   -1.3483    4.8975 H         1 <0>         0.1374
     50 H13        -1.5643   -3.4335   -2.8221 H         1 <0>         0.1469
     51 H14        -3.3584   -5.0766   -3.1737 H         1 <0>         0.1687
     52 H15         0.2337   -4.7602   -6.4784 H         1 <0>         0.1618
     53 H16        -0.5687   -7.8687   -9.7873 H         1 <0>         0.1936
@<TRIPOS>BOND
     1    1    2 1
     2    1   39 1
     3    1   40 1
     4    1   41 1
     5    2   10 1
     6    2    3 1
     7    3    8 ar
     8    3    4 ar
     9    4    5 ar
    10    4   42 1
    11    5    6 ar
    12    5   43 1
    13    6    7 ar
    14    6   22 1
    15    7    8 ar
    16    7   44 1
    17    8    9 1
    18    9   10 2
    19   10   11 1
    20   11   12 1
    21   11   45 1
    22   12   17 ar
    23   12   13 ar
    24   13   14 ar
    25   13   46 1
    26   14   15 ar
    27   14   47 1
    28   15   16 ar
    29   15   18 1
    30   16   17 ar
    31   16   48 1
    32   17   49 1
    33   18   19 1
    34   18   20 1
    35   18   21 1
    36   22   23 1
    37   23   28 ar
    38   23   24 ar
    39   24   25 ar
    40   24   50 1
    41   25   26 ar
    42   25   51 1
    43   26   27 ar
    44   27   28 ar
    45   27   29 1
    46   28   52 1
    47   29   34 2
    48   29   30 1
    49   30   31 1
    50   30   32 1
    51   32   33 2
    52   32   35 1
    53   33   34 1
    54   33   53 1
    55   35   36 1
    56   35   37 1
    57   35   38 1
@<TRIPOS>MOLECULE
ZINC03820040
   62    66     0     0     0
SMALL
USER_CHARGES
N-[4-[4-(4-methylpiperazin-1-yl)-6-[(5-methyl-2H-pyrazol-3-yl)amino]pyrimidin-2-yl]sulfanylphenyl]cyclopropanecarboxamide
@<TRIPOS>ATOM
      1 C1          1.8035   -7.6837    0.5070 C.3       1 <0>        -0.0779
      2 C2          2.3685   -6.3674    0.0389 C.2       1 <0>         0.0949
      3 C3          1.9325   -5.1020    0.4407 C.2       1 <0>        -0.2905
      4 C4          2.6904   -4.1743   -0.2066 C.2       1 <0>         0.3252
      5 N1          3.5799   -4.8447   -0.9836 N.pl3     1 <0>        -0.4853
      6 H1          4.2729   -4.4328   -1.5753 H         1 <0>         0.4473
      7 N2          3.3537   -6.2159   -0.8085 N.2       1 <0>        -0.2711
      8 N3          2.5778   -2.7905   -0.0888 N.pl3     1 <0>        -0.6296
      9 C5          1.3376   -2.2123    0.1391 C.ar      1 <0>         0.4706
     10 C6          0.1755   -2.9717    0.0343 C.ar      1 <0>        -0.2983
     11 C7         -1.0466   -2.3490    0.2714 C.ar      1 <0>         0.3791
     12 N4         -1.0643   -1.0564    0.5886 N.ar      1 <0>        -0.5664
     13 C8          0.0620   -0.3646    0.6795 C.ar      1 <0>         0.3511
     14 N5          1.2425   -0.9231    0.4557 N.ar      1 <0>        -0.5606
     15 S1         -0.0125    1.3444    1.1018 S.3       1 <0>         0.1303
     16 C9          1.7078    1.7032    1.2298 C.ar      1 <0>        -0.1638
     17 C10         2.3806    1.4637    2.4214 C.ar      1 <0>        -0.0284
     18 C11         3.7293    1.7409    2.5200 C.ar      1 <0>        -0.1315
     19 C12         4.4114    2.2681    1.4313 C.ar      1 <0>         0.1902
     20 C13         3.7379    2.5125    0.2417 C.ar      1 <0>        -0.1573
     21 C14         2.3903    2.2311    0.1410 C.ar      1 <0>        -0.0288
     22 N6          5.7793    2.5539    1.5333 N.am      1 <0>        -0.6744
     23 C15         6.5739    1.7808    2.2997 C.2       1 <0>         0.5466
     24 O1          6.1269    0.7811    2.8213 O.2       1 <0>        -0.5140
     25 C16         8.0178    2.1584    2.5086 C.3       1 <0>        -0.2022
     26 C17         9.0818    1.2604    1.8742 C.3       1 <0>        -0.1494
     27 C18         8.8679    1.2402    3.3890 C.3       1 <0>        -0.1425
     28 N7         -2.2296   -3.0657    0.1789 N.pl3     1 <0>        -0.4710
     29 C19        -2.3617   -3.6957   -1.1422 C.3       1 <0>         0.0277
     30 C20        -3.6379   -4.5399   -1.1765 C.3       1 <0>         0.0040
     31 C21        -4.6643   -3.0537    0.4349 C.3       1 <0>        -0.0004
     32 C22        -3.3881   -2.2095    0.4692 C.3       1 <0>         0.0347
     33 C23        -6.0501   -4.4431   -0.9842 C.3       1 <0>        -0.0407
     34 H2          2.3381   -8.0122    1.3982 H         1 <0>         0.0831
     35 H3          0.7460   -7.5623    0.7417 H         1 <0>         0.0784
     36 H4          1.9177   -8.4287   -0.2805 H         1 <0>         0.0774
     37 H5          1.1347   -4.8964    1.1389 H         1 <0>         0.1550
     38 H6          3.3667   -2.2314   -0.1662 H         1 <0>         0.4241
     39 H7          0.2211   -4.0192   -0.2246 H         1 <0>         0.1631
     40 H8          1.8494    1.0573    3.2693 H         1 <0>         0.1319
     41 H9          4.2533    1.5509    3.4451 H         1 <0>         0.1405
     42 H10         4.2686    2.9225   -0.6049 H         1 <0>         0.1339
     43 H11         1.8666    2.4209   -0.7843 H         1 <0>         0.1341
     44 H12         6.1543    3.3081    1.0523 H         1 <0>         0.4168
     45 H13         8.2224    3.2282    2.5520 H         1 <0>         0.1306
     46 H14         8.7374    0.3965    1.3057 H         1 <0>         0.0995
     47 H15         9.9866    1.7393    1.5000 H         1 <0>         0.1100
     48 H16         9.6320    1.7059    4.0114 H         1 <0>         0.1092
     49 H17         8.3827    0.3633    3.8175 H         1 <0>         0.1093
     50 H18        -2.4158   -2.9234   -1.9095 H         1 <0>         0.0737
     51 H19        -1.4982   -4.3342   -1.3286 H         1 <0>         0.1318
     52 H20        -3.5722   -5.3290   -0.4274 H         1 <0>         0.1439
     53 H21        -3.7533   -4.9852   -2.1646 H         1 <0>         0.1412
     54 H22        -4.6102   -3.8259    1.2022 H         1 <0>         0.1407
     55 H23        -5.5278   -2.4152    0.6217 H         1 <0>         0.1407
     56 H24        -3.2729   -1.7645    1.4575 H         1 <0>         0.1357
     57 H25        -3.4537   -1.4201   -0.2796 H         1 <0>         0.0793
     58 H26        -6.8948   -3.7714   -0.8313 H         1 <0>         0.1238
     59 H27        -6.1225   -4.8989   -1.9717 H         1 <0>         0.1230
     60 H28        -6.0632   -5.2226   -0.2224 H         1 <0>         0.1251
     61 N8         -4.7966   -3.6630   -0.9051 N.4       1 <0>        -0.4014
     62 H29        -4.8229   -2.9169   -1.6099 H         1 <0>         0.4281
@<TRIPOS>BOND
     1    1    2 1
     2    1   34 1
     3    1   35 1
     4    1   36 1
     5    2    7 2
     6    2    3 1
     7    3    4 2
     8    3   37 1
     9    4    5 1
    10    4    8 1
    11    5    6 1
    12    5    7 1
    13    8    9 1
    14    8   38 1
    15    9   14 ar
    16    9   10 ar
    17   10   11 ar
    18   10   39 1
    19   11   12 ar
    20   11   28 1
    21   12   13 ar
    22   13   14 ar
    23   13   15 1
    24   15   16 1
    25   16   21 ar
    26   16   17 ar
    27   17   18 ar
    28   17   40 1
    29   18   19 ar
    30   18   41 1
    31   19   20 ar
    32   19   22 1
    33   20   21 ar
    34   20   42 1
    35   21   43 1
    36   22   23 am
    37   22   44 1
    38   23   24 2
    39   23   25 1
    40   25   27 1
    41   25   26 1
    42   25   45 1
    43   26   27 1
    44   26   46 1
    45   26   47 1
    46   27   48 1
    47   27   49 1
    48   28   32 1
    49   28   29 1
    50   29   30 1
    51   29   50 1
    52   29   51 1
    53   30   52 1
    54   30   53 1
    55   30   61 1
    56   31   32 1
    57   31   54 1
    58   31   55 1
    59   31   61 1
    60   32   56 1
    61   32   57 1
    62   33   58 1
    63   33   59 1
    64   33   60 1
    65   33   61 1
    66   61   62 1
@<TRIPOS>MOLECULE
ZINC18710082
   51    54     0     0     0
SMALL
USER_CHARGES
N-(3,3-dimethylindolin-6-yl)-2-(4-pyridylmethylamino)pyridine-3-carboxamide
@<TRIPOS>ATOM
      1 C1         -0.1736   12.3280    1.7993 C.3       1 <0>        -0.1353
      2 C2          0.1708   11.8132    0.4003 C.3       1 <0>        -0.0256
      3 C3         -1.0658   11.8695   -0.5114 C.3       1 <0>         0.1234
      4 N1         -1.3159   10.4807   -0.9061 N.pl3     1 <0>        -0.7429
      5 C4         -0.3660    9.6387   -0.3256 C.ar      1 <0>         0.2160
      6 C5          0.5375   10.3468    0.4531 C.ar      1 <0>        -0.1735
      7 C6          1.5592    9.6928    1.1152 C.ar      1 <0>        -0.0387
      8 C7          1.6921    8.3220    1.0083 C.ar      1 <0>        -0.1957
      9 C8          0.7942    7.6005    0.2318 C.ar      1 <0>         0.1856
     10 C9         -0.2273    8.2550   -0.4368 C.ar      1 <0>        -0.1821
     11 N2          0.9251    6.2127    0.1203 N.am      1 <0>        -0.6647
     12 C10        -0.1735    5.4372    0.0302 C.2       1 <0>         0.5789
     13 O1         -1.2750    5.9485   -0.0352 O.2       1 <0>        -0.5287
     14 C11        -0.0401    3.9694    0.0111 C.ar      1 <0>        -0.2727
     15 C12         1.2239    3.3691   -0.0284 C.ar      1 <0>         0.0067
     16 C13         1.2952    1.9877   -0.0446 C.ar      1 <0>        -0.2460
     17 C14         0.1281    1.2446   -0.0215 C.ar      1 <0>         0.1889
     18 N3         -1.0535    1.8288    0.0102 N.ar      1 <0>        -0.5475
     19 C15        -1.1794    3.1469    0.0326 C.ar      1 <0>         0.4585
     20 N4         -2.4385    3.7170    0.0712 N.pl3     1 <0>        -0.6966
     21 C16        -3.6235    2.8669    0.2103 C.3       1 <0>         0.1646
     22 C17        -4.8603    3.7278    0.2259 C.ar      1 <0>        -0.0635
     23 C18        -5.3699    4.2164    1.4192 C.ar      1 <0>        -0.1527
     24 C19        -6.5037    5.0063    1.3940 C.ar      1 <0>         0.0990
     25 N5         -7.1042    5.2881    0.2543 N.ar      1 <0>        -0.4796
     26 C20        -6.6504    4.8370   -0.8988 C.ar      1 <0>         0.0984
     27 C21        -5.5189    4.0453   -0.9522 C.ar      1 <0>        -0.1533
     28 C22         1.3163   12.6286   -0.2029 C.3       1 <0>        -0.1347
     29 H1          0.6875   12.2011    2.4554 H         1 <0>         0.0611
     30 H2         -0.4352   13.3847    1.7435 H         1 <0>         0.0600
     31 H3         -1.0186   11.7650    2.1958 H         1 <0>         0.0571
     32 H4         -0.8602   12.4810   -1.3900 H         1 <0>         0.0683
     33 H5         -1.9215   12.2676    0.0338 H         1 <0>         0.0682
     34 H6         -2.0366   10.1891   -1.4861 H         1 <0>         0.4122
     35 H7          2.2565   10.2556    1.7181 H         1 <0>         0.1233
     36 H8          2.4915    7.8130    1.5263 H         1 <0>         0.1249
     37 H9         -0.9211    7.6916   -1.0433 H         1 <0>         0.1338
     38 H10         1.8066    5.8081    0.1078 H         1 <0>         0.4114
     39 H11         2.1214    3.9696   -0.0455 H         1 <0>         0.1354
     40 H12         2.2547    1.4928   -0.0753 H         1 <0>         0.1405
     41 H13         0.1860    0.1663   -0.0342 H         1 <0>         0.1633
     42 H14        -2.5372    4.6797    0.0061 H         1 <0>         0.4269
     43 H15        -3.6739    2.1736   -0.6293 H         1 <0>         0.0815
     44 H16        -3.5601    2.3050    1.1421 H         1 <0>         0.0787
     45 H17        -4.8851    3.9853    2.3562 H         1 <0>         0.1361
     46 H18        -6.9051    5.3935    2.3188 H         1 <0>         0.1583
     47 H19        -7.1692    5.0889   -1.8119 H         1 <0>         0.1582
     48 H20        -5.1525    3.6783   -1.8995 H         1 <0>         0.1363
     49 H21         1.5192   12.2770   -1.2145 H         1 <0>         0.0571
     50 H22         1.0360   13.6815   -0.2335 H         1 <0>         0.0599
     51 H23         2.2099   12.5082    0.4097 H         1 <0>         0.0612
@<TRIPOS>BOND
     1    1    2 1
     2    1   29 1
     3    1   30 1
     4    1   31 1
     5    2    6 1
     6    2    3 1
     7    2   28 1
     8    3    4 1
     9    3   32 1
    10    3   33 1
    11    4    5 1
    12    4   34 1
    13    5   10 ar
    14    5    6 ar
    15    6    7 ar
    16    7    8 ar
    17    7   35 1
    18    8    9 ar
    19    8   36 1
    20    9   10 ar
    21    9   11 1
    22   10   37 1
    23   11   12 am
    24   11   38 1
    25   12   13 2
    26   12   14 1
    27   14   19 ar
    28   14   15 ar
    29   15   16 ar
    30   15   39 1
    31   16   17 ar
    32   16   40 1
    33   17   18 ar
    34   17   41 1
    35   18   19 ar
    36   19   20 1
    37   20   21 1
    38   20   42 1
    39   21   22 1
    40   21   43 1
    41   21   44 1
    42   22   27 ar
    43   22   23 ar
    44   23   24 ar
    45   23   45 1
    46   24   25 ar
    47   24   46 1
    48   25   26 ar
    49   26   27 ar
    50   26   47 1
    51   27   48 1
    52   28   49 1
    53   28   50 1
    54   28   51 1
@<TRIPOS>MOLECULE
ZINC18825339
   59    62     0     0     0
SMALL
USER_CHARGES
5-[(Z)-(5-fluoro-2-oxo-indolin-3-ylidene)methyl]-N-[(2R)-2-hydroxy-3-morpholino-propyl]-2,4-dimethyl-1H-pyrrole-3-carboxamide
@<TRIPOS>ATOM
      1 C1          3.5607    0.7280    0.3667 C.3       1 <0>        -0.0956
      2 C2          2.0758    0.7165    0.1102 C.2       1 <0>        -0.0564
      3 C3          1.2591    1.8188   -0.0477 C.2       1 <0>        -0.0308
      4 N1         -0.0271    1.3691   -0.2640 N.pl3     1 <0>        -0.5068
      5 H1         -0.8436    2.0903   -0.4163 H         1 <0>         0.4494
      6 C4         -0.0354    0.0257   -0.2455 C.2       1 <0>         0.1277
      7 C5          1.2525   -0.4230   -0.0155 C.2       1 <0>        -0.2308
      8 C6          1.6847   -1.8291    0.0810 C.2       1 <0>         0.5980
      9 O1          2.0430   -2.4250   -0.9167 O.2       1 <0>        -0.5421
     10 N2          1.6827   -2.4542    1.2750 N.am      1 <0>        -0.7266
     11 C7          2.1121   -3.8516    1.3710 C.3       1 <0>         0.1299
     12 C8          2.0150   -4.3162    2.8255 C.3       1 <0>         0.1144
     13 H2          2.5334   -3.6206    3.5018 H         1 <0>         0.0568
     14 C9          2.5799   -5.7329    2.9471 C.3       1 <0>         0.0228
     15 N3          2.4867   -6.1790    4.3436 N.3       1 <0>        -0.5349
     16 C10         3.3671   -5.3829    5.2109 C.3       1 <0>         0.0083
     17 C11         3.1945   -5.8402    6.6618 C.3       1 <0>         0.0618
     18 O2          3.4694   -7.2408    6.7508 O.3       1 <0>        -0.3843
     19 C12         2.6296   -8.0463    5.9193 C.3       1 <0>         0.0614
     20 C13         2.7965   -7.6114    4.4609 C.3       1 <0>         0.0172
     21 O3          0.6463   -4.3123    3.2364 O.3       1 <0>        -0.5882
     22 C14        -1.2476   -0.8477   -0.4426 C.3       1 <0>        -0.0994
     23 C15         1.6686    3.1691    0.0027 C.2       1 <0>         0.0908
     24 C16         0.8216    4.1284    0.5209 C.2       1 <0>        -0.2125
     25 C17         1.0162    5.5955    0.5210 C.ar      1 <0>        -0.0684
     26 C18         2.0202    6.4240    0.0297 C.ar      1 <0>        -0.1043
     27 C19         1.9118    7.7937    0.1786 C.ar      1 <0>         0.0808
     28 C20         0.8031    8.3379    0.8097 C.ar      1 <0>        -0.1198
     29 C21        -0.2000    7.5233    1.2941 C.ar      1 <0>        -0.1061
     30 C22        -0.1080    6.1430    1.1533 C.ar      1 <0>         0.1250
     31 N4         -0.9593    5.1144    1.5420 N.am      1 <0>        -0.6604
     32 C23        -0.4649    3.9133    1.1971 C.2       1 <0>         0.5647
     33 O4         -0.9909    2.8351    1.4086 O.2       1 <0>        -0.5132
     34 F1          2.8866    8.6030   -0.2904 F         1 <0>        -0.1355
     35 H3          3.9167    1.7678    0.4131 H         1 <0>         0.0672
     36 H4          4.0776    0.1994   -0.4478 H         1 <0>         0.0746
     37 H5          3.7717    0.2252    1.3221 H         1 <0>         0.0710
     38 H6          1.3586   -1.9152    2.1775 H         1 <0>         0.4262
     39 H7          1.4633   -4.4786    0.7417 H         1 <0>         0.0750
     40 H8          3.1531   -3.9398    1.0266 H         1 <0>         0.0785
     41 H9          2.0023   -6.4143    2.3052 H         1 <0>         0.0900
     42 H10         3.6334   -5.7360    2.6307 H         1 <0>         0.0465
     43 H11         4.4130   -5.5254    4.9015 H         1 <0>         0.0459
     44 H12         3.1012   -4.3189    5.1257 H         1 <0>         0.0881
     45 H13         3.8925   -5.2859    7.3064 H         1 <0>         0.1001
     46 H14         2.1618   -5.6458    6.9871 H         1 <0>         0.0615
     47 H15         2.9156   -9.1033    6.0238 H         1 <0>         0.1009
     48 H16         1.5805   -7.9185    6.2243 H         1 <0>         0.0621
     49 H17         2.1104   -8.1883    3.8234 H         1 <0>         0.0898
     50 H18         3.8332   -7.7899    4.1393 H         1 <0>         0.0455
     51 H19         0.3780   -4.6185    4.2583 H         1 <0>         0.4136
     52 H20        -0.9523   -1.9052   -0.3757 H         1 <0>         0.0845
     53 H21        -1.6843   -0.6508   -1.4328 H         1 <0>         0.0777
     54 H22        -1.9909   -0.6245    0.3369 H         1 <0>         0.0809
     55 H23         2.6624    3.4568   -0.3709 H         1 <0>         0.1579
     56 H24         2.8828    5.9984   -0.4614 H         1 <0>         0.1409
     57 H25         0.7239    9.4091    0.9228 H         1 <0>         0.1443
     58 H26        -1.0583    7.9589    1.7840 H         1 <0>         0.1386
     59 H27        -1.9003    5.3463    2.0623 H         1 <0>         0.4455
@<TRIPOS>BOND
     1    1    2 1
     2    1   35 1
     3    1   36 1
     4    1   37 1
     5    2    7 1
     6    2    3 2
     7    3    4 1
     8    3   23 1
     9    4    5 1
    10    4    6 1
    11    6    7 2
    12    6   22 1
    13    7    8 1
    14    8    9 2
    15    8   10 am
    16   10   11 1
    17   10   38 1
    18   11   12 1
    19   11   39 1
    20   11   40 1
    21   12   13 1
    22   12   14 1
    23   12   21 1
    24   14   15 1
    25   14   41 1
    26   14   42 1
    27   15   20 1
    28   15   16 1
    29   16   17 1
    30   16   43 1
    31   16   44 1
    32   17   18 1
    33   17   45 1
    34   17   46 1
    35   18   19 1
    36   19   20 1
    37   19   47 1
    38   19   48 1
    39   20   49 1
    40   20   50 1
    41   21   51 1
    42   22   52 1
    43   22   53 1
    44   22   54 1
    45   23   24 2
    46   23   55 1
    47   24   32 1
    48   24   25 1
    49   25   30 ar
    50   25   26 ar
    51   26   27 ar
    52   26   56 1
    53   27   28 ar
    54   27   34 1
    55   28   29 ar
    56   28   57 1
    57   29   30 ar
    58   29   58 1
    59   30   31 1
    60   31   32 am
    61   31   59 1
    62   32   33 2
@<TRIPOS>MOLECULE
ZINC18825344
   59    62     0     0     0
SMALL
USER_CHARGES
5-[(Z)-(5-fluoro-2-oxo-indolin-3-ylidene)methyl]-N-[(2S)-2-hydroxy-3-morpholino-propyl]-2,4-dimethyl-1H-pyrrole-3-carboxamide
@<TRIPOS>ATOM
      1 C1          4.7056    0.6287    1.0117 C.3       1 <0>        -0.0968
      2 C2          3.2464    0.8378    0.6983 C.2       1 <0>        -0.0523
      3 C3          2.5980    2.0501    0.5678 C.2       1 <0>        -0.0327
      4 N1          1.2732    1.7961    0.2789 N.pl3     1 <0>        -0.5060
      5 H1          0.5720    2.6311    0.1339 H         1 <0>         0.4496
      6 C4          1.0783    0.4679    0.2258 C.2       1 <0>         0.1246
      7 C5          2.2801   -0.1676    0.4808 C.2       1 <0>        -0.2308
      8 C6          2.5088   -1.6234    0.5191 C.2       1 <0>         0.5976
      9 O1          2.8262   -2.2159   -0.4944 O.2       1 <0>        -0.5428
     10 N2          2.3662   -2.2977    1.6773 N.am      1 <0>        -0.7254
     11 C7          2.5935   -3.7444    1.7154 C.3       1 <0>         0.1298
     12 C8          2.3672   -4.2590    3.1384 C.3       1 <0>         0.1172
     13 H2          1.3599   -4.0040    3.4994 H         1 <0>         0.0560
     14 C9          2.6045   -5.7699    3.1781 C.3       1 <0>         0.0219
     15 N3          2.3382   -6.2720    4.5327 N.3       1 <0>        -0.5356
     16 C10         2.9762   -7.5793    4.7450 C.3       1 <0>         0.0168
     17 C11         2.7241   -8.0365    6.1842 C.3       1 <0>         0.0612
     18 O2          1.3152   -8.0759    6.4267 O.3       1 <0>        -0.3844
     19 C12         0.6618   -6.8191    6.2299 C.3       1 <0>         0.0617
     20 C13         0.8930   -6.3496    4.7911 C.3       1 <0>         0.0111
     21 O3          3.2765   -3.6103    4.0297 O.3       1 <0>        -0.5892
     22 C14        -0.2328   -0.2165   -0.0637 C.3       1 <0>        -0.0987
     23 C15         3.1876    3.3256    0.7056 C.2       1 <0>         0.0935
     24 C16         2.4515    4.3746    1.2192 C.2       1 <0>        -0.2157
     25 C17         2.8515    5.7966    1.3077 C.ar      1 <0>        -0.0669
     26 C18         3.9943    6.4912    0.9234 C.ar      1 <0>        -0.1048
     27 C19         4.0710    7.8545    1.1363 C.ar      1 <0>         0.0814
     28 C20         3.0098    8.5263    1.7247 C.ar      1 <0>        -0.1204
     29 C21         1.8704    7.8457    2.1029 C.ar      1 <0>        -0.1055
     30 C22         1.7753    6.4739    1.8965 C.ar      1 <0>         0.1237
     31 N4          0.7622    5.5637    2.1775 N.am      1 <0>        -0.6596
     32 C23         1.1039    4.3195    1.8021 C.2       1 <0>         0.5657
     33 O4          0.4171    3.3209    1.9242 O.2       1 <0>        -0.5153
     34 F1          5.1807    8.5334    0.7715 F         1 <0>        -0.1355
     35 H3          5.1994    1.6049    1.1269 H         1 <0>         0.0668
     36 H4          5.1808    0.0720    0.1906 H         1 <0>         0.0744
     37 H5          4.8016    0.0567    1.9464 H         1 <0>         0.0741
     38 H6          2.0791   -1.7617    2.5940 H         1 <0>         0.4273
     39 H7          1.8935   -4.2437    1.0293 H         1 <0>         0.0777
     40 H8          3.6268   -3.9615    1.4070 H         1 <0>         0.0736
     41 H9          1.9304   -6.2658    2.4641 H         1 <0>         0.0486
     42 H10         3.6486   -5.9844    2.9062 H         1 <0>         0.0884
     43 H11         2.5501   -8.3132    4.0451 H         1 <0>         0.0451
     44 H12         4.0587   -7.4917    4.5704 H         1 <0>         0.0900
     45 H13         3.1515   -9.0395    6.3305 H         1 <0>         0.1008
     46 H14         3.1986   -7.3305    6.8817 H         1 <0>         0.0620
     47 H15        -0.4170   -6.9344    6.4112 H         1 <0>         0.1000
     48 H16         1.0741   -6.0778    6.9303 H         1 <0>         0.0613
     49 H17         0.4415   -5.3564    4.6504 H         1 <0>         0.0873
     50 H18         0.4333   -7.0637    4.0920 H         1 <0>         0.0461
     51 H19         3.2627   -3.8533    5.1024 H         1 <0>         0.4141
     52 H20        -0.0899   -1.3070   -0.0417 H         1 <0>         0.0829
     53 H21        -0.5927    0.0862   -1.0581 H         1 <0>         0.0781
     54 H22        -0.9728    0.0718    0.6974 H         1 <0>         0.0803
     55 H23         4.2335    3.4835    0.4037 H         1 <0>         0.1584
     56 H24         4.8196    5.9664    0.4654 H         1 <0>         0.1411
     57 H25         3.0756    9.5918    1.8882 H         1 <0>         0.1443
     58 H26         1.0507    8.3797    2.5605 H         1 <0>         0.1385
     59 H27        -0.1701    5.9069    2.6497 H         1 <0>         0.4455
@<TRIPOS>BOND
     1    1    2 1
     2    1   35 1
     3    1   36 1
     4    1   37 1
     5    2    7 1
     6    2    3 2
     7    3    4 1
     8    3   23 1
     9    4    5 1
    10    4    6 1
    11    6    7 2
    12    6   22 1
    13    7    8 1
    14    8    9 2
    15    8   10 am
    16   10   11 1
    17   10   38 1
    18   11   12 1
    19   11   39 1
    20   11   40 1
    21   12   13 1
    22   12   14 1
    23   12   21 1
    24   14   15 1
    25   14   41 1
    26   14   42 1
    27   15   20 1
    28   15   16 1
    29   16   17 1
    30   16   43 1
    31   16   44 1
    32   17   18 1
    33   17   45 1
    34   17   46 1
    35   18   19 1
    36   19   20 1
    37   19   47 1
    38   19   48 1
    39   20   49 1
    40   20   50 1
    41   21   51 1
    42   22   52 1
    43   22   53 1
    44   22   54 1
    45   23   24 2
    46   23   55 1
    47   24   32 1
    48   24   25 1
    49   25   30 ar
    50   25   26 ar
    51   26   27 ar
    52   26   56 1
    53   27   28 ar
    54   27   34 1
    55   28   29 ar
    56   28   57 1
    57   29   30 ar
    58   29   58 1
    59   30   31 1
    60   31   32 am
    61   31   59 1
    62   32   33 2
@<TRIPOS>MOLECULE
ZINC23247639
   69    72     0     0     0
SMALL
USER_CHARGES
1-[4-[(4-ethylpiperazin-1-yl)methyl]-3-(trifluoromethyl)phenyl]-3-[4-(6-methylaminopyrimidin-4-yl)oxyphenyl]urea
@<TRIPOS>ATOM
      1 C1          8.9417    3.3719    8.2172 C.3       1 <0>        -0.1901
      2 C2         10.1498    2.9102    7.3997 C.3       1 <0>        -0.0070
      3 N1          9.9972    3.3533    6.0075 N.4       1 <0>        -0.4011
      4 C3         11.2367    3.1387    5.2477 C.3       1 <0>         0.0016
      5 C4         11.0629    3.6845    3.8284 C.3       1 <0>         0.0271
      6 N2          9.9288    3.0094    3.1822 N.3       1 <0>        -0.5300
      7 C5          8.6893    3.2240    3.9420 C.3       1 <0>         0.0232
      8 C6          8.8631    2.6781    5.3612 C.3       1 <0>        -0.0016
      9 C7          9.7762    3.4524    1.7899 C.3       1 <0>         0.0786
     10 C8          8.7879    2.5601    1.0842 C.ar      1 <0>        -0.0666
     11 C9          7.5022    3.0092    0.8434 C.ar      1 <0>        -0.0932
     12 C10         6.5958    2.1959    0.1923 C.ar      1 <0>        -0.0888
     13 C11         6.9731    0.9214   -0.2106 C.ar      1 <0>         0.1880
     14 C12         8.2646    0.4735    0.0326 C.ar      1 <0>        -0.1043
     15 C13         9.1683    1.2940    0.6793 C.ar      1 <0>        -0.1369
     16 C14        10.5702    0.8086    0.9441 C.3       1 <0>         0.5111
     17 F1         10.7250   -0.4786    0.4184 F         1 <0>        -0.1776
     18 F2         11.4860    1.6739    0.3362 F         1 <0>        -0.1774
     19 F3         10.8008    0.7797    2.3237 F         1 <0>        -0.1628
     20 N3          6.0552    0.0926   -0.8655 N.am      1 <0>        -0.6979
     21 C15         4.7513    0.1311   -0.5266 C.2       1 <0>         0.7117
     22 O1          4.3858    0.8194    0.4067 O.2       1 <0>        -0.5623
     23 N4          3.8526   -0.5934   -1.2222 N.am      1 <0>        -0.6900
     24 C16         2.4863   -0.4790   -0.9335 C.ar      1 <0>         0.1635
     25 C17         1.5516   -0.5518   -1.9576 C.ar      1 <0>        -0.1265
     26 C18         0.2052   -0.4394   -1.6724 C.ar      1 <0>        -0.0923
     27 C19        -0.2137   -0.2543   -0.3628 C.ar      1 <0>         0.0841
     28 C20         0.7198   -0.1815    0.6609 C.ar      1 <0>        -0.0957
     29 C21         2.0665   -0.2932    0.3769 C.ar      1 <0>        -0.1058
     30 O2         -1.5393   -0.1385   -0.0833 O.3       1 <0>        -0.2424
     31 C22        -2.3129   -1.2454   -0.1983 C.ar      1 <0>         0.3836
     32 C23        -3.6894   -1.1637   -0.0277 C.ar      1 <0>        -0.3134
     33 C24        -4.4409   -2.3284   -0.1601 C.ar      1 <0>         0.4631
     34 N5         -3.8165   -3.4721   -0.4341 N.ar      1 <0>        -0.5936
     35 C25        -2.5082   -3.5081   -0.5840 C.ar      1 <0>         0.3760
     36 N6         -1.7644   -2.4263   -0.4707 N.ar      1 <0>        -0.6039
     37 N7         -5.8178   -2.2988   -0.0034 N.pl3     1 <0>        -0.7218
     38 C26        -6.4937   -1.0344    0.2979 C.3       1 <0>         0.0891
     39 H1          9.0560    3.0401    9.2597 H         1 <0>         0.1066
     40 H2          8.0243    2.9380    7.7928 H         1 <0>         0.0798
     41 H3          8.8763    4.4695    8.1868 H         1 <0>         0.0803
     42 H4         11.0672    3.3441    7.8241 H         1 <0>         0.1306
     43 H5         10.2153    1.8126    7.4301 H         1 <0>         0.1269
     44 H6         12.0665    3.6630    5.7442 H         1 <0>         0.1361
     45 H7         11.4577    2.0621    5.2031 H         1 <0>         0.1357
     46 H8         10.8699    4.7665    3.8728 H         1 <0>         0.0625
     47 H9         11.9796    3.4990    3.2494 H         1 <0>         0.1239
     48 H10         8.4684    4.3007    3.9867 H         1 <0>         0.0621
     49 H11         7.8594    2.6998    3.4455 H         1 <0>         0.1239
     50 H12         9.0569    1.5962    5.3178 H         1 <0>         0.1351
     51 H13         7.9470    2.8635    5.9412 H         1 <0>         0.1359
     52 H14         9.4106    4.4897    1.7732 H         1 <0>         0.0663
     53 H15        10.7489    3.3982    1.2791 H         1 <0>         0.1073
     54 H16         7.2082    3.9988    1.1607 H         1 <0>         0.1358
     55 H17         5.5933    2.5489    0.0003 H         1 <0>         0.1466
     56 H18         8.5625   -0.5152   -0.2838 H         1 <0>         0.1447
     57 H19         6.3979   -0.5903   -1.6569 H         1 <0>         0.4387
     58 H20         4.1917   -1.2745   -2.0166 H         1 <0>         0.4355
     59 H21         1.8775   -0.6959   -2.9771 H         1 <0>         0.1334
     60 H22        -0.5220   -0.4960   -2.4689 H         1 <0>         0.1303
     61 H23         0.3932   -0.0371    1.6801 H         1 <0>         0.1327
     62 H24         2.7931   -0.2369    1.1740 H         1 <0>         0.1442
     63 H25        -4.1646   -0.2205    0.1982 H         1 <0>         0.1466
     64 H26        -2.0315   -4.4515   -0.8058 H         1 <0>         0.2000
     65 H27        -6.4030   -3.2246   -0.1053 H         1 <0>         0.4376
     66 H28        -7.5762   -1.2091    0.3856 H         1 <0>         0.0864
     67 H29        -6.3028   -0.3146   -0.5117 H         1 <0>         0.0603
     68 H30        -6.1096   -0.6302    1.2461 H         1 <0>         0.0599
     69 H31         9.7882    4.4332    6.0188 H         1 <0>         0.4364
@<TRIPOS>BOND
     1    1    2 1
     2    1   39 1
     3    1   40 1
     4    1   41 1
     5    2    3 1
     6    2   42 1
     7    2   43 1
     8    3    8 1
     9    3    4 1
    10    3   69 1
    11    4    5 1
    12    4   44 1
    13    4   45 1
    14    5    6 1
    15    5   46 1
    16    5   47 1
    17    6    7 1
    18    6    9 1
    19    7    8 1
    20    7   48 1
    21    7   49 1
    22    8   50 1
    23    8   51 1
    24    9   10 1
    25    9   52 1
    26    9   53 1
    27   10   15 ar
    28   10   11 ar
    29   11   12 ar
    30   11   54 1
    31   12   13 ar
    32   12   55 1
    33   13   14 ar
    34   13   20 1
    35   14   15 ar
    36   14   56 1
    37   15   16 1
    38   16   17 1
    39   16   18 1
    40   16   19 1
    41   20   21 am
    42   20   57 1
    43   21   22 2
    44   21   23 am
    45   23   24 1
    46   23   58 1
    47   24   29 ar
    48   24   25 ar
    49   25   26 ar
    50   25   59 1
    51   26   27 ar
    52   26   60 1
    53   27   28 ar
    54   27   30 1
    55   28   29 ar
    56   28   61 1
    57   29   62 1
    58   30   31 1
    59   31   36 ar
    60   31   32 ar
    61   32   33 ar
    62   32   63 1
    63   33   34 ar
    64   33   37 1
    65   34   35 ar
    66   35   36 ar
    67   35   64 1
    68   37   38 1
    69   37   65 1
    70   38   66 1
    71   38   67 1
    72   38   68 1
@<TRIPOS>MOLECULE
ZINC23247639
   69    72     0     0     0
SMALL
USER_CHARGES
1-[4-[(4-ethylpiperazin-1-yl)methyl]-3-(trifluoromethyl)phenyl]-3-[4-(6-methylaminopyrimidin-4-yl)oxyphenyl]urea
@<TRIPOS>ATOM
      1 C1          8.9417    3.3719    8.2172 C.3       1 <0>        -0.1569
      2 C2         10.1498    2.9102    7.3997 C.3       1 <0>         0.0486
      3 N1          9.9972    3.3533    6.0075 N.3       1 <0>        -0.5379
      4 C3         11.2367    3.1387    5.2477 C.3       1 <0>         0.0250
      5 C4         11.0629    3.6845    3.8284 C.3       1 <0>         0.0004
      6 N2          9.9288    3.0094    3.1822 N.4       1 <0>        -0.4202
      7 C5          8.6893    3.2240    3.9420 C.3       1 <0>        -0.0009
      8 C6          8.8631    2.6781    5.3612 C.3       1 <0>         0.0222
      9 C7          9.7762    3.4524    1.7899 C.3       1 <0>         0.0266
     10 C8          8.7879    2.5601    1.0842 C.ar      1 <0>        -0.1272
     11 C9          7.5022    3.0092    0.8434 C.ar      1 <0>        -0.0630
     12 C10         6.5958    2.1959    0.1923 C.ar      1 <0>        -0.0846
     13 C11         6.9731    0.9214   -0.2106 C.ar      1 <0>         0.2154
     14 C12         8.2646    0.4735    0.0326 C.ar      1 <0>        -0.0955
     15 C13         9.1683    1.2940    0.6793 C.ar      1 <0>        -0.1507
     16 C14        10.5702    0.8086    0.9441 C.3       1 <0>         0.5109
     17 F1         10.7250   -0.4786    0.4184 F         1 <0>        -0.1491
     18 F2         11.4860    1.6739    0.3362 F         1 <0>        -0.1584
     19 F3         10.8008    0.7797    2.3237 F         1 <0>        -0.1724
     20 N3          6.0552    0.0926   -0.8655 N.am      1 <0>        -0.6988
     21 C15         4.7513    0.1311   -0.5266 C.2       1 <0>         0.7114
     22 O1          4.3858    0.8194    0.4067 O.2       1 <0>        -0.5584
     23 N4          3.8526   -0.5934   -1.2222 N.am      1 <0>        -0.6858
     24 C16         2.4863   -0.4790   -0.9335 C.ar      1 <0>         0.1577
     25 C17         1.5516   -0.5518   -1.9576 C.ar      1 <0>        -0.1240
     26 C18         0.2052   -0.4394   -1.6724 C.ar      1 <0>        -0.0926
     27 C19        -0.2137   -0.2543   -0.3628 C.ar      1 <0>         0.0883
     28 C20         0.7198   -0.1815    0.6609 C.ar      1 <0>        -0.0957
     29 C21         2.0665   -0.2932    0.3769 C.ar      1 <0>        -0.1046
     30 O2         -1.5393   -0.1385   -0.0833 O.3       1 <0>        -0.2426
     31 C22        -2.3129   -1.2454   -0.1983 C.ar      1 <0>         0.3832
     32 C23        -3.6894   -1.1637   -0.0277 C.ar      1 <0>        -0.3126
     33 C24        -4.4409   -2.3284   -0.1601 C.ar      1 <0>         0.4635
     34 N5         -3.8165   -3.4721   -0.4341 N.ar      1 <0>        -0.5931
     35 C25        -2.5082   -3.5081   -0.5840 C.ar      1 <0>         0.3762
     36 N6         -1.7644   -2.4263   -0.4707 N.ar      1 <0>        -0.6049
     37 N7         -5.8178   -2.2988   -0.0034 N.pl3     1 <0>        -0.7212
     38 C26        -6.4937   -1.0344    0.2979 C.3       1 <0>         0.0887
     39 H1          9.0560    3.0401    9.2597 H         1 <0>         0.0714
     40 H2          8.0243    2.9380    7.7928 H         1 <0>         0.0562
     41 H3          8.8763    4.4695    8.1868 H         1 <0>         0.0696
     42 H4         11.0672    3.3441    7.8241 H         1 <0>         0.0895
     43 H5         10.2153    1.8126    7.4301 H         1 <0>         0.0455
     44 H6         12.0665    3.6630    5.7442 H         1 <0>         0.1253
     45 H7         11.4577    2.0621    5.2031 H         1 <0>         0.0582
     46 H8         10.8699    4.7665    3.8728 H         1 <0>         0.1369
     47 H9         11.9796    3.4990    3.2494 H         1 <0>         0.1329
     48 H10         8.4684    4.3007    3.9867 H         1 <0>         0.1355
     49 H11         7.8594    2.6998    3.4455 H         1 <0>         0.1312
     50 H12         9.0569    1.5962    5.3178 H         1 <0>         0.0572
     51 H13         7.9470    2.8635    5.9412 H         1 <0>         0.1266
     52 H14         9.4106    4.4897    1.7732 H         1 <0>         0.1472
     53 H15        10.7489    3.3982    1.2791 H         1 <0>         0.1420
     54 H16         7.2082    3.9988    1.1607 H         1 <0>         0.1512
     55 H17         5.5933    2.5489    0.0003 H         1 <0>         0.1583
     56 H18         8.5625   -0.5152   -0.2838 H         1 <0>         0.1556
     57 H19         6.3979   -0.5903   -1.6569 H         1 <0>         0.4440
     58 H20         4.1917   -1.2745   -2.0166 H         1 <0>         0.4371
     59 H21         1.8775   -0.6959   -2.9771 H         1 <0>         0.1338
     60 H22        -0.5220   -0.4960   -2.4689 H         1 <0>         0.1313
     61 H23         0.3932   -0.0371    1.6801 H         1 <0>         0.1341
     62 H24         2.7931   -0.2369    1.1740 H         1 <0>         0.1440
     63 H25        -4.1646   -0.2205    0.1982 H         1 <0>         0.1470
     64 H26        -2.0315   -4.4515   -0.8058 H         1 <0>         0.2001
     65 H27        -6.4030   -3.2246   -0.1053 H         1 <0>         0.4380
     66 H28        -7.5762   -1.2091    0.3856 H         1 <0>         0.0868
     67 H29        -6.3028   -0.3146   -0.5117 H         1 <0>         0.0604
     68 H30        -6.1096   -0.6302    1.2461 H         1 <0>         0.0603
     69 H31        10.1379    1.9295    3.1711 H         1 <0>         0.4253
@<TRIPOS>BOND
     1    1    2 1
     2    1   39 1
     3    1   40 1
     4    1   41 1
     5    2    3 1
     6    2   42 1
     7    2   43 1
     8    3    8 1
     9    3    4 1
    10    4    5 1
    11    4   44 1
    12    4   45 1
    13    5    6 1
    14    5   46 1
    15    5   47 1
    16    6    7 1
    17    6    9 1
    18    6   69 1
    19    7    8 1
    20    7   48 1
    21    7   49 1
    22    8   50 1
    23    8   51 1
    24    9   10 1
    25    9   52 1
    26    9   53 1
    27   10   15 ar
    28   10   11 ar
    29   11   12 ar
    30   11   54 1
    31   12   13 ar
    32   12   55 1
    33   13   14 ar
    34   13   20 1
    35   14   15 ar
    36   14   56 1
    37   15   16 1
    38   16   17 1
    39   16   18 1
    40   16   19 1
    41   20   21 am
    42   20   57 1
    43   21   22 2
    44   21   23 am
    45   23   24 1
    46   23   58 1
    47   24   29 ar
    48   24   25 ar
    49   25   26 ar
    50   25   59 1
    51   26   27 ar
    52   26   60 1
    53   27   28 ar
    54   27   30 1
    55   28   29 ar
    56   28   61 1
    57   29   62 1
    58   30   31 1
    59   31   36 ar
    60   31   32 ar
    61   32   33 ar
    62   32   63 1
    63   33   34 ar
    64   33   37 1
    65   34   35 ar
    66   35   36 ar
    67   35   64 1
    68   37   38 1
    69   37   65 1
    70   38   66 1
    71   38   67 1
    72   38   68 1
@<TRIPOS>MOLECULE
ZINC23247639
   68    71     0     0     0
SMALL
USER_CHARGES
1-[4-[(4-ethylpiperazin-1-yl)methyl]-3-(trifluoromethyl)phenyl]-3-[4-(6-methylaminopyrimidin-4-yl)oxyphenyl]urea
@<TRIPOS>ATOM
      1 C1          8.9417    3.3719    8.2172 C.3       1 <0>        -0.1510
      2 C2         10.1498    2.9102    7.3997 C.3       1 <0>         0.0499
      3 N1          9.9972    3.3533    6.0075 N.3       1 <0>        -0.5402
      4 C3         11.2367    3.1387    5.2477 C.3       1 <0>         0.0569
      5 C4         11.0629    3.6845    3.8284 C.3       1 <0>         0.0590
      6 N2          9.9288    3.0094    3.1822 N.3       1 <0>        -0.5268
      7 C5          8.6893    3.2240    3.9420 C.3       1 <0>         0.0561
      8 C6          8.8631    2.6781    5.3612 C.3       1 <0>         0.0550
      9 C7          9.7762    3.4524    1.7899 C.3       1 <0>         0.0729
     10 C8          8.7879    2.5601    1.0842 C.ar      1 <0>        -0.0447
     11 C9          7.5022    3.0092    0.8434 C.ar      1 <0>        -0.0942
     12 C10         6.5958    2.1959    0.1923 C.ar      1 <0>        -0.0884
     13 C11         6.9731    0.9214   -0.2106 C.ar      1 <0>         0.1720
     14 C12         8.2646    0.4735    0.0326 C.ar      1 <0>        -0.1038
     15 C13         9.1683    1.2940    0.6793 C.ar      1 <0>        -0.1404
     16 C14        10.5702    0.8086    0.9441 C.3       1 <0>         0.5095
     17 F1         10.7250   -0.4786    0.4184 F         1 <0>        -0.1841
     18 F2         11.4860    1.6739    0.3362 F         1 <0>        -0.1795
     19 F3         10.8008    0.7797    2.3237 F         1 <0>        -0.1519
     20 N3          6.0552    0.0926   -0.8655 N.am      1 <0>        -0.6948
     21 C15         4.7513    0.1311   -0.5266 C.2       1 <0>         0.7096
     22 O1          4.3858    0.8194    0.4067 O.2       1 <0>        -0.5587
     23 N4          3.8526   -0.5934   -1.2222 N.am      1 <0>        -0.6930
     24 C16         2.4863   -0.4790   -0.9335 C.ar      1 <0>         0.1697
     25 C17         1.5516   -0.5518   -1.9576 C.ar      1 <0>        -0.1297
     26 C18         0.2052   -0.4394   -1.6724 C.ar      1 <0>        -0.0930
     27 C19        -0.2137   -0.2543   -0.3628 C.ar      1 <0>         0.0783
     28 C20         0.7198   -0.1815    0.6609 C.ar      1 <0>        -0.0936
     29 C21         2.0665   -0.2932    0.3769 C.ar      1 <0>        -0.1059
     30 O2         -1.5393   -0.1385   -0.0833 O.3       1 <0>        -0.2412
     31 C22        -2.3129   -1.2454   -0.1983 C.ar      1 <0>         0.3851
     32 C23        -3.6894   -1.1637   -0.0277 C.ar      1 <0>        -0.3141
     33 C24        -4.4409   -2.3284   -0.1601 C.ar      1 <0>         0.4620
     34 N5         -3.8165   -3.4721   -0.4341 N.ar      1 <0>        -0.5954
     35 C25        -2.5082   -3.5081   -0.5840 C.ar      1 <0>         0.3753
     36 N6         -1.7644   -2.4263   -0.4707 N.ar      1 <0>        -0.6017
     37 N7         -5.8178   -2.2988   -0.0034 N.pl3     1 <0>        -0.7231
     38 C26        -6.4937   -1.0344    0.2979 C.3       1 <0>         0.0898
     39 H1          9.0560    3.0401    9.2597 H         1 <0>         0.0595
     40 H2          8.0243    2.9380    7.7928 H         1 <0>         0.0547
     41 H3          8.8763    4.4695    8.1868 H         1 <0>         0.0631
     42 H4         11.0672    3.3441    7.8241 H         1 <0>         0.0746
     43 H5         10.2153    1.8126    7.4301 H         1 <0>         0.0335
     44 H6         12.0665    3.6630    5.7442 H         1 <0>         0.0800
     45 H7         11.4577    2.0621    5.2031 H         1 <0>         0.0441
     46 H8         10.8699    4.7665    3.8728 H         1 <0>         0.0445
     47 H9         11.9796    3.4990    3.2494 H         1 <0>         0.0809
     48 H10         8.4684    4.3007    3.9867 H         1 <0>         0.0435
     49 H11         7.8594    2.6998    3.4455 H         1 <0>         0.0808
     50 H12         9.0569    1.5962    5.3178 H         1 <0>         0.0425
     51 H13         7.9470    2.8635    5.9412 H         1 <0>         0.0819
     52 H14         9.4106    4.4897    1.7732 H         1 <0>         0.0550
     53 H15        10.7489    3.3982    1.2791 H         1 <0>         0.0962
     54 H16         7.2082    3.9988    1.1607 H         1 <0>         0.1355
     55 H17         5.5933    2.5489    0.0003 H         1 <0>         0.1427
     56 H18         8.5625   -0.5152   -0.2838 H         1 <0>         0.1409
     57 H19         6.3979   -0.5903   -1.6569 H         1 <0>         0.4343
     58 H20         4.1917   -1.2745   -2.0166 H         1 <0>         0.4332
     59 H21         1.8775   -0.6959   -2.9771 H         1 <0>         0.1323
     60 H22        -0.5220   -0.4960   -2.4689 H         1 <0>         0.1282
     61 H23         0.3932   -0.0371    1.6801 H         1 <0>         0.1328
     62 H24         2.7931   -0.2369    1.1740 H         1 <0>         0.1466
     63 H25        -4.1646   -0.2205    0.1982 H         1 <0>         0.1463
     64 H26        -2.0315   -4.4515   -0.8058 H         1 <0>         0.1996
     65 H27        -6.4030   -3.2246   -0.1053 H         1 <0>         0.4362
     66 H28        -7.5762   -1.2091    0.3856 H         1 <0>         0.0851
     67 H29        -6.3028   -0.3146   -0.5117 H         1 <0>         0.0598
     68 H30        -6.1096   -0.6302    1.2461 H         1 <0>         0.0599
@<TRIPOS>BOND
     1    1    2 1
     2    1   39 1
     3    1   40 1
     4    1   41 1
     5    2    3 1
     6    2   42 1
     7    2   43 1
     8    3    8 1
     9    3    4 1
    10    4    5 1
    11    4   44 1
    12    4   45 1
    13    5    6 1
    14    5   46 1
    15    5   47 1
    16    6    7 1
    17    6    9 1
    18    7    8 1
    19    7   48 1
    20    7   49 1
    21    8   50 1
    22    8   51 1
    23    9   10 1
    24    9   52 1
    25    9   53 1
    26   10   15 ar
    27   10   11 ar
    28   11   12 ar
    29   11   54 1
    30   12   13 ar
    31   12   55 1
    32   13   14 ar
    33   13   20 1
    34   14   15 ar
    35   14   56 1
    36   15   16 1
    37   16   17 1
    38   16   18 1
    39   16   19 1
    40   20   21 am
    41   20   57 1
    42   21   22 2
    43   21   23 am
    44   23   24 1
    45   23   58 1
    46   24   29 ar
    47   24   25 ar
    48   25   26 ar
    49   25   59 1
    50   26   27 ar
    51   26   60 1
    52   27   28 ar
    53   27   30 1
    54   28   29 ar
    55   28   61 1
    56   29   62 1
    57   30   31 1
    58   31   36 ar
    59   31   32 ar
    60   32   33 ar
    61   32   63 1
    62   33   34 ar
    63   33   37 1
    64   34   35 ar
    65   35   36 ar
    66   35   64 1
    67   37   38 1
    68   37   65 1
    69   38   66 1
    70   38   67 1
    71   38   68 1
@<TRIPOS>MOLECULE
ZINC00602803
   57    59     0     0     0
SMALL
USER_CHARGES

@<TRIPOS>ATOM
      1 C1         -1.3402   -4.8618    1.2145 C.3       1 <0>        -0.1534
      2 C2         -0.8181   -3.6495    0.4408 C.3       1 <0>         0.0511
      3 O1         -0.7742   -2.5142    1.3074 O.3       1 <0>        -0.3148
      4 C3         -0.3304   -1.3470    0.7727 C.ar      1 <0>         0.1525
      5 C4          0.0498   -1.3049   -0.5488 C.ar      1 <0>        -0.1831
      6 C5          0.5092   -0.1023   -1.1071 C.ar      1 <0>         0.1876
      7 C6          0.5748    1.0570   -0.2965 C.ar      1 <0>        -0.1304
      8 C7          0.1883    0.9932    1.0499 C.ar      1 <0>        -0.0592
      9 C8         -0.2650   -0.1967    1.5740 C.ar      1 <0>         0.1185
     10 N1         -0.6575   -0.2608    2.9161 N.am      1 <0>        -0.6449
     11 C9         -0.1566    0.6173    3.8075 C.2       1 <0>         0.5328
     12 O2          0.7152    1.3957    3.4703 O.2       1 <0>        -0.5071
     13 C10        -0.6641    0.6344    5.1877 C.2       1 <0>        -0.1271
     14 C11        -0.1697    1.5011    6.0673 C.2       1 <0>        -0.1492
     15 C12        -0.6897    1.5186    7.4817 C.3       1 <0>         0.0302
     16 C13         1.3312    2.5206    8.3617 C.3       1 <0>        -0.0486
     17 C14        -0.0528    1.1357    9.7861 C.3       1 <0>        -0.0433
     18 C15         1.0386    2.2666   -0.8642 C.ar      1 <0>         0.2844
     19 C16         1.4144    2.2536   -2.2161 C.ar      1 <0>        -0.1029
     20 C17         1.3165    1.0573   -2.9447 C.ar      1 <0>         0.2010
     21 N2          0.8834   -0.0478   -2.3940 N.ar      1 <0>        -0.4743
     22 C18         1.8922    3.4476   -2.8459 C.1       1 <0>         0.2469
     23 N3          2.2712    4.3948   -3.3456 N.1       1 <0>        -0.3851
     24 N4          1.1194    3.4219   -0.1130 N.pl3     1 <0>        -0.6979
     25 C19         2.3677    3.9814    0.1773 C.ar      1 <0>         0.1846
     26 C20         3.4715    3.1592    0.3659 C.ar      1 <0>        -0.1231
     27 C21         4.7048    3.7137    0.6463 C.ar      1 <0>        -0.1069
     28 C22         4.8398    5.0877    0.7520 C.ar      1 <0>         0.0844
     29 C23         3.7394    5.9099    0.5700 C.ar      1 <0>        -0.0407
     30 C24         2.5044    5.3592    0.2831 C.ar      1 <0>        -0.1222
     31 Cl1         3.9119    7.6322    0.7020 Cl        1 <0>        -0.0373
     32 F1          6.0462    5.6274    1.0324 F         1 <0>        -0.1244
     33 H1         -2.3423   -4.6506    1.5877 H         1 <0>         0.0676
     34 H2         -1.3737   -5.7279    0.5535 H         1 <0>         0.0859
     35 H3         -0.6765   -5.0706    2.0536 H         1 <0>         0.0665
     36 H4         -1.4818   -3.4407   -0.3983 H         1 <0>         0.0727
     37 H5          0.1840   -3.8607    0.0676 H         1 <0>         0.0719
     38 H6         -0.0049   -2.1965   -1.1558 H         1 <0>         0.1557
     39 H7          0.2375    1.8756    1.6707 H         1 <0>         0.1646
     40 H8         -1.2900   -0.9373    3.2047 H         1 <0>         0.4221
     41 H9         -1.4381   -0.0567    5.4870 H         1 <0>         0.1454
     42 H10         0.6043    2.1922    5.7680 H         1 <0>         0.1533
     43 H11        -1.1915    2.4672    7.6726 H         1 <0>         0.1468
     44 H12        -1.3959    0.6999    7.6193 H         1 <0>         0.1366
     45 H13         0.7789    3.4221    8.6269 H         1 <0>         0.1257
     46 H14         2.1523    2.3777    9.0642 H         1 <0>         0.1250
     47 H15         1.7302    2.6227    7.3524 H         1 <0>         0.1232
     48 H16        -0.6601    0.2309    9.8124 H         1 <0>         0.1226
     49 H17         0.7976    1.0222   10.4584 H         1 <0>         0.1252
     50 H18        -0.6553    1.9870   10.1029 H         1 <0>         0.1250
     51 H19         1.6056    1.0492   -3.9853 H         1 <0>         0.1765
     52 H20         0.3102    3.8456    0.2136 H         1 <0>         0.4201
     53 H21         3.3660    2.0871    0.2888 H         1 <0>         0.1375
     54 H22         5.5639    3.0747    0.7881 H         1 <0>         0.1500
     55 H23         1.6466    6.0000    0.1416 H         1 <0>         0.1457
     56 N5          0.4465    1.3376    8.4096 N.4       1 <0>        -0.3970
     57 H24         0.9816    0.5092    8.1241 H         1 <0>         0.4334
@<TRIPOS>BOND
     1    1    2 1
     2    1   33 1
     3    1   34 1
     4    1   35 1
     5    2    3 1
     6    2   36 1
     7    2   37 1
     8    3    4 1
     9    4    9 ar
    10    4    5 ar
    11    5    6 ar
    12    5   38 1
    13    6   21 ar
    14    6    7 ar
    15    7    8 ar
    16    7   18 ar
    17    8    9 ar
    18    8   39 1
    19    9   10 1
    20   10   11 am
    21   10   40 1
    22   11   12 2
    23   11   13 1
    24   13   14 2
    25   13   41 1
    26   14   15 1
    27   14   42 1
    28   15   43 1
    29   15   44 1
    30   15   56 1
    31   16   45 1
    32   16   46 1
    33   16   47 1
    34   16   56 1
    35   17   48 1
    36   17   49 1
    37   17   50 1
    38   17   56 1
    39   18   19 ar
    40   18   24 1
    41   19   20 ar
    42   19   22 1
    43   20   21 ar
    44   20   51 1
    45   22   23 3
    46   24   25 1
    47   24   52 1
    48   25   30 ar
    49   25   26 ar
    50   26   27 ar
    51   26   53 1
    52   27   28 ar
    53   27   54 1
    54   28   29 ar
    55   28   32 1
    56   29   30 ar
    57   29   31 1
    58   30   55 1
    59   56   57 1
@<TRIPOS>MOLECULE
ZINC19632618
   69    73     0     0     0
SMALL
USER_CHARGES

@<TRIPOS>ATOM
      1 C1         -0.1643    1.5374    0.2772 C.3       1 <0>        -0.1166
      2 C2          0.0708    0.1281   -0.2021 C.ar      1 <0>        -0.1228
      3 C3         -0.6192   -0.3521   -1.2987 C.ar      1 <0>        -0.0806
      4 C4         -0.4070   -1.6434   -1.7410 C.ar      1 <0>        -0.1294
      5 C5          0.5017   -2.4641   -1.0837 C.ar      1 <0>         0.1504
      6 C6          1.1965   -1.9850    0.0175 C.ar      1 <0>        -0.1394
      7 C7          0.9852   -0.6852    0.4558 C.ar      1 <0>         0.1826
      8 N1          1.6874   -0.1967    1.5617 N.pl3     1 <0>        -0.6314
      9 C8          2.1285   -1.0695    2.5429 C.ar      1 <0>         0.5659
     10 N2          1.7764   -2.3456    2.4776 N.ar      1 <0>        -0.5577
     11 C9          2.1776   -3.2107    3.3953 C.ar      1 <0>         0.1910
     12 C10         2.9764   -2.7714    4.4364 C.ar      1 <0>        -0.2706
     13 C11         3.3313   -1.4207    4.4789 C.ar      1 <0>         0.2697
     14 N3          2.8950   -0.6087    3.5185 N.ar      1 <0>        -0.5576
     15 C12         4.1856   -0.9008    5.5740 C.ar      1 <0>        -0.1200
     16 C13         4.4510    0.4679    5.6793 C.ar      1 <0>        -0.0267
     17 C14         5.2541    0.9026    6.7193 C.ar      1 <0>        -0.1772
     18 C15         5.7636   -0.0222    7.6129 C.ar      1 <0>         0.1192
     19 N4          5.4957   -1.3077    7.4879 N.ar      1 <0>        -0.4844
     20 C16         4.7320   -1.7677    6.5181 C.ar      1 <0>         0.1336
     21 N5          0.7153   -3.7716   -1.5315 N.am      1 <0>        -0.6649
     22 C17         0.7404   -4.0356   -2.8529 C.2       1 <0>         0.5545
     23 O1          0.4912   -3.1555   -3.6535 O.2       1 <0>        -0.5086
     24 C18         1.0709   -5.3955   -3.3287 C.ar      1 <0>        -0.1216
     25 C19         1.3519   -6.4100   -2.4119 C.ar      1 <0>        -0.0841
     26 C20         1.6592   -7.6771   -2.8626 C.ar      1 <0>        -0.1244
     27 C21         1.6892   -7.9435   -4.2200 C.ar      1 <0>        -0.0692
     28 C22         1.4117   -6.9425   -5.1341 C.ar      1 <0>        -0.0994
     29 C23         1.0978   -5.6724   -4.6966 C.ar      1 <0>        -0.0536
     30 C24         2.0262   -9.3299   -4.7050 C.3       1 <0>         0.0939
     31 N6          0.7933  -10.1196   -4.8258 N.3       1 <0>        -0.5345
     32 C25         0.1866  -10.3538   -3.5078 C.3       1 <0>         0.0185
     33 C26        -1.1228  -11.1262   -3.6823 C.3       1 <0>        -0.0025
     34 N7         -0.8513  -12.4061   -4.3498 N.4       1 <0>        -0.3884
     35 C27        -0.2685  -12.1554   -5.6746 C.3       1 <0>        -0.0024
     36 C28         1.0481  -11.3916   -5.5166 C.3       1 <0>         0.0250
     37 C29        -2.1059  -13.1551   -4.5009 C.3       1 <0>        -0.0460
     38 H1          0.5251    2.2130   -0.2290 H         1 <0>         0.0728
     39 H2         -1.1901    1.8307    0.0540 H         1 <0>         0.0743
     40 H3          0.0021    1.5877    1.3533 H         1 <0>         0.0627
     41 H4         -1.3262    0.2836   -1.8111 H         1 <0>         0.1320
     42 H5         -0.9481   -2.0158   -2.5982 H         1 <0>         0.1349
     43 H6          1.9030   -2.6209    0.5302 H         1 <0>         0.1479
     44 H7          1.8658    0.7534    1.6418 H         1 <0>         0.4260
     45 H8          1.8844   -4.2483    3.3325 H         1 <0>         0.1734
     46 H9          3.3172   -3.4566    5.1985 H         1 <0>         0.1507
     47 H10         4.0401    1.1680    4.9670 H         1 <0>         0.1466
     48 H11         5.4807    1.9525    6.8318 H         1 <0>         0.1437
     49 H12         6.3909    0.3135    8.4254 H         1 <0>         0.1633
     50 H13         4.5316   -2.8268    6.4514 H         1 <0>         0.1617
     51 H14         0.8453   -4.4884   -0.8911 H         1 <0>         0.4084
     52 H15         1.3291   -6.2032   -1.3521 H         1 <0>         0.1294
     53 H16         1.8771   -8.4627   -2.1544 H         1 <0>         0.1265
     54 H17         1.4372   -7.1570   -6.1922 H         1 <0>         0.1340
     55 H18         0.8770   -4.8931   -5.4110 H         1 <0>         0.1424
     56 H19         2.5135   -9.2661   -5.6779 H         1 <0>         0.1008
     57 H20         2.6973   -9.8107   -3.9933 H         1 <0>         0.0595
     58 H21         0.8718  -10.9344   -2.8900 H         1 <0>         0.0618
     59 H22        -0.0167   -9.3975   -3.0259 H         1 <0>         0.1265
     60 H23        -1.5673  -11.3133   -2.7048 H         1 <0>         0.1359
     61 H24        -1.8127  -10.5393   -4.2887 H         1 <0>         0.1379
     62 H25        -0.0795  -13.1056   -6.1741 H         1 <0>         0.1367
     63 H26        -0.9627  -11.5633   -6.2708 H         1 <0>         0.1381
     64 H27         1.4733  -11.1924   -6.5003 H         1 <0>         0.1253
     65 H28         1.7474  -11.9892   -4.9320 H         1 <0>         0.0621
     66 H29        -2.8061  -12.5737   -5.1008 H         1 <0>         0.1233
     67 H30        -1.9046  -14.1049   -4.9963 H         1 <0>         0.1246
     68 H31        -2.5379  -13.3423   -3.5179 H         1 <0>         0.1243
     69 H32        -0.2036  -12.9443   -3.7940 H         1 <0>         0.4222
@<TRIPOS>BOND
     1    1    2 1
     2    1   38 1
     3    1   39 1
     4    1   40 1
     5    2    7 ar
     6    2    3 ar
     7    3    4 ar
     8    3   41 1
     9    4    5 ar
    10    4   42 1
    11    5    6 ar
    12    5   21 1
    13    6    7 ar
    14    6   43 1
    15    7    8 1
    16    8    9 1
    17    8   44 1
    18    9   14 ar
    19    9   10 ar
    20   10   11 ar
    21   11   12 ar
    22   11   45 1
    23   12   13 ar
    24   12   46 1
    25   13   14 ar
    26   13   15 1
    27   15   20 ar
    28   15   16 ar
    29   16   17 ar
    30   16   47 1
    31   17   18 ar
    32   17   48 1
    33   18   19 ar
    34   18   49 1
    35   19   20 ar
    36   20   50 1
    37   21   22 am
    38   21   51 1
    39   22   23 2
    40   22   24 1
    41   24   29 ar
    42   24   25 ar
    43   25   26 ar
    44   25   52 1
    45   26   27 ar
    46   26   53 1
    47   27   28 ar
    48   27   30 1
    49   28   29 ar
    50   28   54 1
    51   29   55 1
    52   30   31 1
    53   30   56 1
    54   30   57 1
    55   31   36 1
    56   31   32 1
    57   32   33 1
    58   32   58 1
    59   32   59 1
    60   33   34 1
    61   33   60 1
    62   33   61 1
    63   34   35 1
    64   34   37 1
    65   34   69 1
    66   35   36 1
    67   35   62 1
    68   35   63 1
    69   36   64 1
    70   36   65 1
    71   37   66 1
    72   37   67 1
    73   37   68 1
@<TRIPOS>MOLECULE
ZINC19632618
   69    73     0     0     0
SMALL
USER_CHARGES

@<TRIPOS>ATOM
      1 C1         -0.1643    1.5374    0.2772 C.3       1 <0>        -0.1179
      2 C2          0.0708    0.1281   -0.2021 C.ar      1 <0>        -0.1195
      3 C3         -0.6192   -0.3521   -1.2987 C.ar      1 <0>        -0.0803
      4 C4         -0.4070   -1.6434   -1.7410 C.ar      1 <0>        -0.1287
      5 C5          0.5017   -2.4641   -1.0837 C.ar      1 <0>         0.1452
      6 C6          1.1965   -1.9850    0.0175 C.ar      1 <0>        -0.1374
      7 C7          0.9852   -0.6852    0.4558 C.ar      1 <0>         0.1839
      8 N1          1.6874   -0.1967    1.5617 N.pl3     1 <0>        -0.6318
      9 C8          2.1285   -1.0695    2.5429 C.ar      1 <0>         0.5654
     10 N2          1.7764   -2.3456    2.4776 N.ar      1 <0>        -0.5590
     11 C9          2.1776   -3.2107    3.3953 C.ar      1 <0>         0.1907
     12 C10         2.9764   -2.7714    4.4364 C.ar      1 <0>        -0.2695
     13 C11         3.3313   -1.4207    4.4789 C.ar      1 <0>         0.2707
     14 N3          2.8950   -0.6087    3.5185 N.ar      1 <0>        -0.5571
     15 C12         4.1856   -0.9008    5.5740 C.ar      1 <0>        -0.1213
     16 C13         4.4510    0.4679    5.6793 C.ar      1 <0>        -0.0264
     17 C14         5.2541    0.9026    6.7193 C.ar      1 <0>        -0.1772
     18 C15         5.7636   -0.0222    7.6129 C.ar      1 <0>         0.1201
     19 N4          5.4957   -1.3077    7.4879 N.ar      1 <0>        -0.4842
     20 C16         4.7320   -1.7677    6.5181 C.ar      1 <0>         0.1342
     21 N5          0.7153   -3.7716   -1.5315 N.am      1 <0>        -0.6603
     22 C17         0.7404   -4.0356   -2.8529 C.2       1 <0>         0.5491
     23 O1          0.4912   -3.1555   -3.6535 O.2       1 <0>        -0.5015
     24 C18         1.0709   -5.3955   -3.3287 C.ar      1 <0>        -0.0938
     25 C19         1.3519   -6.4100   -2.4119 C.ar      1 <0>        -0.0834
     26 C20         1.6592   -7.6771   -2.8626 C.ar      1 <0>        -0.1009
     27 C21         1.6892   -7.9435   -4.2200 C.ar      1 <0>        -0.1382
     28 C22         1.4117   -6.9425   -5.1341 C.ar      1 <0>        -0.0966
     29 C23         1.0978   -5.6724   -4.6966 C.ar      1 <0>        -0.0538
     30 C24         2.0262   -9.3299   -4.7050 C.3       1 <0>         0.0425
     31 N6          0.7933  -10.1196   -4.8258 N.4       1 <0>        -0.3856
     32 C25         0.1989  -10.3052   -3.4955 C.3       1 <0>        -0.0078
     33 C26        -1.0954  -11.1117   -3.6230 C.3       1 <0>         0.0256
     34 N7         -0.7986  -12.4159   -4.2323 N.3       1 <0>        -0.5431
     35 C27        -0.1799  -12.2456   -5.5546 C.3       1 <0>         0.0239
     36 C28         1.1068  -11.4297   -5.4112 C.3       1 <0>        -0.0024
     37 C29        -2.0090  -13.2436   -4.3201 C.3       1 <0>         0.0192
     38 H1          0.5251    2.2130   -0.2290 H         1 <0>         0.0738
     39 H2         -1.1901    1.8307    0.0540 H         1 <0>         0.0752
     40 H3          0.0021    1.5877    1.3533 H         1 <0>         0.0636
     41 H4         -1.3262    0.2836   -1.8111 H         1 <0>         0.1330
     42 H5         -0.9481   -2.0158   -2.5982 H         1 <0>         0.1345
     43 H6          1.9030   -2.6209    0.5302 H         1 <0>         0.1487
     44 H7          1.8658    0.7534    1.6418 H         1 <0>         0.4265
     45 H8          1.8844   -4.2483    3.3325 H         1 <0>         0.1737
     46 H9          3.3172   -3.4566    5.1985 H         1 <0>         0.1513
     47 H10         4.0401    1.1680    4.9670 H         1 <0>         0.1465
     48 H11         5.4807    1.9525    6.8318 H         1 <0>         0.1439
     49 H12         6.3909    0.3135    8.4254 H         1 <0>         0.1636
     50 H13         4.5316   -2.8268    6.4514 H         1 <0>         0.1618
     51 H14         0.8453   -4.4884   -0.8911 H         1 <0>         0.4091
     52 H15         1.3291   -6.2032   -1.3521 H         1 <0>         0.1399
     53 H16         1.8771   -8.4627   -2.1544 H         1 <0>         0.1405
     54 H17         1.4372   -7.1570   -6.1922 H         1 <0>         0.1409
     55 H18         0.8770   -4.8931   -5.4110 H         1 <0>         0.1513
     56 H19         2.5135   -9.2661   -5.6779 H         1 <0>         0.1411
     57 H20         2.6973   -9.8107   -3.9933 H         1 <0>         0.1402
     58 H21         0.8998  -10.8418   -2.8560 H         1 <0>         0.1385
     59 H22        -0.0212   -9.3320   -3.0568 H         1 <0>         0.1352
     60 H23        -1.5289  -11.2624   -2.6343 H         1 <0>         0.1235
     61 H24        -1.8016  -10.5690   -4.2513 H         1 <0>         0.0601
     62 H25         0.0544  -13.2235   -5.9751 H         1 <0>         0.1247
     63 H26        -0.8711  -11.7216   -6.2147 H         1 <0>         0.0606
     64 H27         1.5598  -11.2902   -6.3927 H         1 <0>         0.1372
     65 H28         1.8030  -11.9606   -4.7619 H         1 <0>         0.1392
     66 H29        -2.7542  -12.7340   -4.9308 H         1 <0>         0.0396
     67 H30        -1.7610  -14.2028   -4.7745 H         1 <0>         0.0842
     68 H31        -2.4099  -13.4082   -3.3199 H         1 <0>         0.0844
     69 H32         0.1396   -9.6332   -5.4209 H         1 <0>         0.4206
@<TRIPOS>BOND
     1    1    2 1
     2    1   38 1
     3    1   39 1
     4    1   40 1
     5    2    7 ar
     6    2    3 ar
     7    3    4 ar
     8    3   41 1
     9    4    5 ar
    10    4   42 1
    11    5    6 ar
    12    5   21 1
    13    6    7 ar
    14    6   43 1
    15    7    8 1
    16    8    9 1
    17    8   44 1
    18    9   14 ar
    19    9   10 ar
    20   10   11 ar
    21   11   12 ar
    22   11   45 1
    23   12   13 ar
    24   12   46 1
    25   13   14 ar
    26   13   15 1
    27   15   20 ar
    28   15   16 ar
    29   16   17 ar
    30   16   47 1
    31   17   18 ar
    32   17   48 1
    33   18   19 ar
    34   18   49 1
    35   19   20 ar
    36   20   50 1
    37   21   22 am
    38   21   51 1
    39   22   23 2
    40   22   24 1
    41   24   29 ar
    42   24   25 ar
    43   25   26 ar
    44   25   52 1
    45   26   27 ar
    46   26   53 1
    47   27   28 ar
    48   27   30 1
    49   28   29 ar
    50   28   54 1
    51   29   55 1
    52   30   31 1
    53   30   56 1
    54   30   57 1
    55   31   36 1
    56   31   32 1
    57   31   69 1
    58   32   33 1
    59   32   58 1
    60   32   59 1
    61   33   34 1
    62   33   60 1
    63   33   61 1
    64   34   35 1
    65   34   37 1
    66   35   36 1
    67   35   62 1
    68   35   63 1
    69   36   64 1
    70   36   65 1
    71   37   66 1
    72   37   67 1
    73   37   68 1
@<TRIPOS>MOLECULE
ZINC19632618
   68    72     0     0     0
SMALL
USER_CHARGES

@<TRIPOS>ATOM
      1 C1         -0.1643    1.5374    0.2772 C.3       1 <0>        -0.1139
      2 C2          0.0708    0.1281   -0.2021 C.ar      1 <0>        -0.1276
      3 C3         -0.6192   -0.3521   -1.2987 C.ar      1 <0>        -0.0809
      4 C4         -0.4070   -1.6434   -1.7410 C.ar      1 <0>        -0.1296
      5 C5          0.5017   -2.4641   -1.0837 C.ar      1 <0>         0.1575
      6 C6          1.1965   -1.9850    0.0175 C.ar      1 <0>        -0.1408
      7 C7          0.9852   -0.6852    0.4558 C.ar      1 <0>         0.1805
      8 N1          1.6874   -0.1967    1.5617 N.pl3     1 <0>        -0.6310
      9 C8          2.1285   -1.0695    2.5429 C.ar      1 <0>         0.5658
     10 N2          1.7764   -2.3456    2.4776 N.ar      1 <0>        -0.5548
     11 C9          2.1776   -3.2107    3.3953 C.ar      1 <0>         0.1930
     12 C10         2.9764   -2.7714    4.4364 C.ar      1 <0>        -0.2707
     13 C11         3.3313   -1.4207    4.4789 C.ar      1 <0>         0.2660
     14 N3          2.8950   -0.6087    3.5185 N.ar      1 <0>        -0.5591
     15 C12         4.1856   -0.9008    5.5740 C.ar      1 <0>        -0.1161
     16 C13         4.4510    0.4679    5.6793 C.ar      1 <0>        -0.0277
     17 C14         5.2541    0.9026    6.7193 C.ar      1 <0>        -0.1780
     18 C15         5.7636   -0.0222    7.6129 C.ar      1 <0>         0.1167
     19 N4          5.4957   -1.3077    7.4879 N.ar      1 <0>        -0.4846
     20 C16         4.7320   -1.7677    6.5181 C.ar      1 <0>         0.1331
     21 N5          0.7153   -3.7716   -1.5315 N.am      1 <0>        -0.6684
     22 C17         0.7404   -4.0356   -2.8529 C.2       1 <0>         0.5607
     23 O1          0.4912   -3.1555   -3.6535 O.2       1 <0>        -0.5149
     24 C18         1.0709   -5.3955   -3.3287 C.ar      1 <0>        -0.1367
     25 C19         1.3519   -6.4100   -2.4119 C.ar      1 <0>        -0.0845
     26 C20         1.6592   -7.6771   -2.8626 C.ar      1 <0>        -0.1214
     27 C21         1.6892   -7.9435   -4.2200 C.ar      1 <0>        -0.0481
     28 C22         1.4117   -6.9425   -5.1341 C.ar      1 <0>        -0.1045
     29 C23         1.0978   -5.6724   -4.6966 C.ar      1 <0>        -0.0549
     30 C24         2.0262   -9.3299   -4.7050 C.3       1 <0>         0.0887
     31 N6          0.7933  -10.1196   -4.8258 N.3       1 <0>        -0.5346
     32 C25         0.1854  -10.3517   -3.5082 C.3       1 <0>         0.0528
     33 C26        -1.1341  -11.1069   -3.6840 C.3       1 <0>         0.0560
     34 N7         -0.8794  -12.3787   -4.3748 N.3       1 <0>        -0.5467
     35 C27        -0.2715  -12.1466   -5.6924 C.3       1 <0>         0.0557
     36 C28         1.0481  -11.3914   -5.5165 C.3       1 <0>         0.0569
     37 C29        -2.1122  -13.1683   -4.4955 C.3       1 <0>         0.0243
     38 H1          0.5251    2.2130   -0.2290 H         1 <0>         0.0707
     39 H2         -1.1901    1.8307    0.0540 H         1 <0>         0.0727
     40 H3          0.0021    1.5877    1.3533 H         1 <0>         0.0612
     41 H4         -1.3262    0.2836   -1.8111 H         1 <0>         0.1306
     42 H5         -0.9481   -2.0158   -2.5982 H         1 <0>         0.1361
     43 H6          1.9030   -2.6209    0.5302 H         1 <0>         0.1478
     44 H7          1.8658    0.7534    1.6418 H         1 <0>         0.4247
     45 H8          1.8844   -4.2483    3.3325 H         1 <0>         0.1749
     46 H9          3.3172   -3.4566    5.1985 H         1 <0>         0.1504
     47 H10         4.0401    1.1680    4.9670 H         1 <0>         0.1465
     48 H11         5.4807    1.9525    6.8318 H         1 <0>         0.1424
     49 H12         6.3909    0.3135    8.4254 H         1 <0>         0.1620
     50 H13         4.5316   -2.8268    6.4514 H         1 <0>         0.1624
     51 H14         0.8453   -4.4884   -0.8911 H         1 <0>         0.4098
     52 H15         1.3291   -6.2032   -1.3521 H         1 <0>         0.1256
     53 H16         1.8771   -8.4627   -2.1544 H         1 <0>         0.1277
     54 H17         1.4372   -7.1570   -6.1922 H         1 <0>         0.1323
     55 H18         0.8770   -4.8931   -5.4110 H         1 <0>         0.1380
     56 H19         2.5135   -9.2661   -5.6779 H         1 <0>         0.0885
     57 H20         2.6973   -9.8107   -3.9933 H         1 <0>         0.0490
     58 H21         0.8640  -10.9435   -2.8938 H         1 <0>         0.0436
     59 H22        -0.0051   -9.3950   -3.0219 H         1 <0>         0.0840
     60 H23        -1.5725  -11.3056   -2.7060 H         1 <0>         0.0799
     61 H24        -1.8225  -10.5033   -4.2756 H         1 <0>         0.0432
     62 H25        -0.0810  -13.1033   -6.1787 H         1 <0>         0.0811
     63 H26        -0.9501  -11.5548   -6.3068 H         1 <0>         0.0437
     64 H27         1.4864  -11.1926   -6.4945 H         1 <0>         0.0821
     65 H28         1.7364  -11.9950   -4.9250 H         1 <0>         0.0450
     66 H29        -2.8511  -12.6037   -5.0641 H         1 <0>         0.0271
     67 H30        -1.8953  -14.1043   -5.0104 H         1 <0>         0.0693
     68 H31        -2.5051  -13.3830   -3.5017 H         1 <0>         0.0693
@<TRIPOS>BOND
     1    1    2 1
     2    1   38 1
     3    1   39 1
     4    1   40 1
     5    2    7 ar
     6    2    3 ar
     7    3    4 ar
     8    3   41 1
     9    4    5 ar
    10    4   42 1
    11    5    6 ar
    12    5   21 1
    13    6    7 ar
    14    6   43 1
    15    7    8 1
    16    8    9 1
    17    8   44 1
    18    9   14 ar
    19    9   10 ar
    20   10   11 ar
    21   11   12 ar
    22   11   45 1
    23   12   13 ar
    24   12   46 1
    25   13   14 ar
    26   13   15 1
    27   15   20 ar
    28   15   16 ar
    29   16   17 ar
    30   16   47 1
    31   17   18 ar
    32   17   48 1
    33   18   19 ar
    34   18   49 1
    35   19   20 ar
    36   20   50 1
    37   21   22 am
    38   21   51 1
    39   22   23 2
    40   22   24 1
    41   24   29 ar
    42   24   25 ar
    43   25   26 ar
    44   25   52 1
    45   26   27 ar
    46   26   53 1
    47   27   28 ar
    48   27   30 1
    49   28   29 ar
    50   28   54 1
    51   29   55 1
    52   30   31 1
    53   30   56 1
    54   30   57 1
    55   31   36 1
    56   31   32 1
    57   32   33 1
    58   32   58 1
    59   32   59 1
    60   33   34 1
    61   33   60 1
    62   33   61 1
    63   34   35 1
    64   34   37 1
    65   35   36 1
    66   35   62 1
    67   35   63 1
    68   36   64 1
    69   36   65 1
    70   37   66 1
    71   37   67 1
    72   37   68 1
