@<TRIPOS>MOLECULE
ZINC00777985
   21    22     0     0     0
SMALL
USER_CHARGES

@<TRIPOS>ATOM
      1 C1         -0.0167    1.3815    0.0096 C.ar      1 <0>        -0.0782
      2 C2          1.1926    2.0594    0.0017 C.ar      1 <0>        -0.1426
      3 C3          2.3755    1.3381   -0.0134 C.ar      1 <0>         0.1016
      4 N1          2.3648    0.0229   -0.0204 N.ar      1 <0>        -0.4631
      5 C4          1.2291   -0.6642   -0.0132 C.ar      1 <0>         0.0754
      6 C5          0.0021   -0.0041    0.0020 C.ar      1 <0>        -0.1043
      7 C6          1.2665   -2.1448   -0.0220 C.2       1 <0>         0.5711
      8 O1          0.2297   -2.7788   -0.0156 O.2       1 <0>        -0.4593
      9 N2          2.4502   -2.7889   -0.0373 N.am      1 <0>        -0.6064
     10 C7          2.4853   -4.1772   -0.0455 C.2       1 <0>         0.2695
     11 N3          1.4754   -5.0205   -0.0463 N.2       1 <0>        -0.5241
     12 C8          1.6761   -6.3252   -0.0552 C.2       1 <0>         0.0627
     13 C9          2.9635   -6.7506   -0.0634 C.2       1 <0>        -0.2445
     14 S1          3.8298   -5.1894   -0.0644 S.3       1 <0>         0.1158
     15 H1         -0.9521    1.9211    0.0259 H         1 <0>         0.1472
     16 H2          1.2124    3.1392    0.0070 H         1 <0>         0.1455
     17 H3          3.3193    1.8630   -0.0200 H         1 <0>         0.1680
     18 H4         -0.9212   -0.5644    0.0082 H         1 <0>         0.1516
     19 H5          3.2777   -2.2828   -0.0424 H         1 <0>         0.4361
     20 H6          0.8516   -7.0227   -0.0555 H         1 <0>         0.1773
     21 H7          3.3565   -7.7565   -0.0713 H         1 <0>         0.2005
@<TRIPOS>BOND
     1    1    6 ar
     2    1    2 ar
     3    1   15 1
     4    2    3 ar
     5    2   16 1
     6    3    4 ar
     7    3   17 1
     8    4    5 ar
     9    5    6 ar
    10    5    7 1
    11    6   18 1
    12    7    8 2
    13    7    9 am
    14    9   10 1
    15    9   19 1
    16   10   14 1
    17   10   11 2
    18   11   12 1
    19   12   13 2
    20   12   20 1
    21   13   14 1
    22   13   21 1
