@<TRIPOS>MOLECULE
ZINC12652747
   41    44     0     0     0
SMALL
USER_CHARGES
2-(2-chlorophenyl)-4-methyl-5-(2-pyridylmethyl)-1H-pyrazolo[5,4-d]pyridine-3,6-dione
@<TRIPOS>ATOM
      1 C1         -5.9190    4.1432    2.2487 C.3       1 <0>        -0.1383
      2 C2         -5.6369    4.9406    1.0015 C.2       1 <0>         0.3071
      3 C3         -4.4429    4.7859    0.3456 C.2       1 <0>        -0.3300
      4 C4         -4.1857    5.5721   -0.8700 C.2       1 <0>         0.2881
      5 C5         -5.1634    6.4399   -1.3050 C.2       1 <0>        -0.3264
      6 C6         -6.3550    6.5366   -0.5755 C.2       1 <0>         0.5475
      7 O1         -7.2262    7.3030   -0.9541 O.2       1 <0>        -0.5426
      8 N1         -6.5601    5.8043    0.5313 N.am      1 <0>        -0.4920
      9 C7         -7.8274    5.9487    1.2518 C.3       1 <0>         0.1348
     10 C8         -7.6602    6.9486    2.3669 C.ar      1 <0>         0.0943
     11 C9         -8.0010    8.2713    2.1552 C.ar      1 <0>        -0.1401
     12 C10        -7.8438    9.1830    3.1877 C.ar      1 <0>        -0.0759
     13 C11        -7.3473    8.7280    4.3999 C.ar      1 <0>        -0.1612
     14 C12        -7.0280    7.3907    4.5376 C.ar      1 <0>         0.0982
     15 N2         -7.1954    6.5505    3.5349 N.ar      1 <0>        -0.4717
     16 N3         -2.9303    5.2241   -1.3043 N.pl3     1 <0>        -0.4947
     17 H1         -2.4909    5.5886   -2.0885 H         1 <0>         0.4450
     18 N4         -2.3814    4.2636   -0.4498 N.am      1 <0>        -0.3681
     19 C13        -3.2375    3.9703    0.5495 C.2       1 <0>         0.5965
     20 O2         -3.0475    3.1776    1.4524 O.2       1 <0>        -0.4967
     21 C14        -1.1151    3.6897   -0.6068 C.ar      1 <0>         0.1494
     22 C15        -0.9797    2.3092   -0.6711 C.ar      1 <0>        -0.0875
     23 C16         0.2723    1.7455   -0.8204 C.ar      1 <0>        -0.0964
     24 C17         1.3898    2.5544   -0.9177 C.ar      1 <0>        -0.0981
     25 C18         1.2588    3.9296   -0.8608 C.ar      1 <0>        -0.0967
     26 C19         0.0095    4.5003   -0.7053 C.ar      1 <0>        -0.0437
     27 Cl1        -0.1547    6.2270   -0.6338 Cl        1 <0>        -0.0522
     28 H2         -5.6626    4.7375    3.1257 H         1 <0>         0.1141
     29 H3         -6.9770    3.8835    2.2824 H         1 <0>         0.0899
     30 H4         -5.3213    3.2317    2.2402 H         1 <0>         0.1021
     31 H5         -5.0137    7.0351   -2.1937 H         1 <0>         0.1534
     32 H6         -8.5986    6.2966    0.5645 H         1 <0>         0.1263
     33 H7         -8.1202    4.9851    1.6688 H         1 <0>         0.1154
     34 H8         -8.3854    8.5905    1.1977 H         1 <0>         0.1434
     35 H9         -8.1014   10.2228    3.0510 H         1 <0>         0.1384
     36 H10        -7.2115    9.4105    5.2259 H         1 <0>         0.1382
     37 H11        -6.6408    7.0285    5.4785 H         1 <0>         0.1605
     38 H12        -1.8522    1.6766   -0.6001 H         1 <0>         0.1412
     39 H13         0.3783    0.6717   -0.8656 H         1 <0>         0.1424
     40 H14         2.3670    2.1109   -1.0389 H         1 <0>         0.1420
     41 H15         2.1334    4.5586   -0.9374 H         1 <0>         0.1439
@<TRIPOS>BOND
     1    1    2 1
     2    1   28 1
     3    1   29 1
     4    1   30 1
     5    2    8 1
     6    2    3 2
     7    3   19 1
     8    3    4 1
     9    4    5 2
    10    4   16 1
    11    5    6 1
    12    5   31 1
    13    6    7 2
    14    6    8 am
    15    8    9 1
    16    9   10 1
    17    9   32 1
    18    9   33 1
    19   10   15 ar
    20   10   11 ar
    21   11   12 ar
    22   11   34 1
    23   12   13 ar
    24   12   35 1
    25   13   14 ar
    26   13   36 1
    27   14   15 ar
    28   14   37 1
    29   16   17 1
    30   16   18 1
    31   18   19 am
    32   18   21 1
    33   19   20 2
    34   21   26 ar
    35   21   22 ar
    36   22   23 ar
    37   22   38 1
    38   23   24 ar
    39   23   39 1
    40   24   25 ar
    41   24   40 1
    42   25   26 ar
    43   25   41 1
    44   26   27 1
@<TRIPOS>MOLECULE
ZINC04741476
   41    44     0     0     0
SMALL
USER_CHARGES

@<TRIPOS>ATOM
      1 C1         -0.0091    1.5011    0.0974 C.3       1 <0>        -0.1483
      2 C2          0.0065   -0.0049    0.0437 C.2       1 <0>         0.2973
      3 C3         -1.1670   -0.7057    0.1500 C.2       1 <0>        -0.3256
      4 C4         -1.1321   -2.1747    0.0953 C.2       1 <0>         0.2815
      5 C5          0.0889   -2.7931   -0.0623 C.2       1 <0>        -0.3159
      6 C6          1.2397   -2.0013   -0.1634 C.2       1 <0>         0.5469
      7 O1          2.3254   -2.5413   -0.3036 O.2       1 <0>        -0.5354
      8 N1          1.1744   -0.6610   -0.1146 N.am      1 <0>        -0.4918
      9 C7          2.4123    0.1137   -0.2315 C.3       1 <0>         0.1280
     10 C8          3.0387    0.2683    1.1303 C.ar      1 <0>        -0.1739
     11 C9          2.7097    1.3480    1.9360 C.ar      1 <0>        -0.0630
     12 C10         3.3107    1.4495    3.1811 C.ar      1 <0>        -0.1762
     13 C11         4.2115    0.4780    3.5754 C.ar      1 <0>         0.1104
     14 N2          4.5008   -0.5351    2.7826 N.ar      1 <0>        -0.4842
     15 C12         3.9438   -0.6670    1.5944 C.ar      1 <0>         0.1339
     16 N3         -2.4303   -2.6033    0.2250 N.pl3     1 <0>        -0.5002
     17 H1         -2.7136   -3.5310    0.2244 H         1 <0>         0.4476
     18 N4         -3.2826   -1.5034    0.3578 N.am      1 <0>        -0.3529
     19 C13        -2.5832   -0.3515    0.3198 C.2       1 <0>         0.5915
     20 O2         -3.0395    0.7724    0.4100 O.2       1 <0>        -0.4940
     21 C14        -4.6706   -1.5865    0.5087 C.ar      1 <0>         0.1614
     22 C15        -5.4283   -0.4285    0.6267 C.ar      1 <0>        -0.1451
     23 C16        -6.7987   -0.5140    0.7751 C.ar      1 <0>        -0.0843
     24 C17        -7.4165   -1.7508    0.8061 C.ar      1 <0>        -0.1369
     25 C18        -6.6650   -2.9056    0.6889 C.ar      1 <0>        -0.0867
     26 C19        -5.2947   -2.8269    0.5350 C.ar      1 <0>        -0.1573
     27 H2          0.7500    1.8966   -0.5774 H         1 <0>         0.0935
     28 H3         -0.9905    1.8654   -0.2062 H         1 <0>         0.1118
     29 H4          0.2020    1.8305    1.1148 H         1 <0>         0.1029
     30 H5          0.1576   -3.8700   -0.1068 H         1 <0>         0.1559
     31 H6          3.1051   -0.4062   -0.8932 H         1 <0>         0.1202
     32 H7          2.1874    1.0981   -0.6419 H         1 <0>         0.1112
     33 H8          2.0024    2.0923    1.6012 H         1 <0>         0.1368
     34 H9          3.0783    2.2773    3.8346 H         1 <0>         0.1395
     35 H10         4.6840    0.5497    4.5438 H         1 <0>         0.1590
     36 H11         4.2017   -1.5133    0.9750 H         1 <0>         0.1659
     37 H12        -4.9464    0.5377    0.6029 H         1 <0>         0.1595
     38 H13        -7.3885    0.3861    0.8672 H         1 <0>         0.1344
     39 H14        -8.4883   -1.8149    0.9226 H         1 <0>         0.1291
     40 H15        -7.1505   -3.8700    0.7135 H         1 <0>         0.1318
     41 H16        -4.7088   -3.7291    0.4393 H         1 <0>         0.1216
@<TRIPOS>BOND
     1    1    2 1
     2    1   27 1
     3    1   28 1
     4    1   29 1
     5    2    8 1
     6    2    3 2
     7    3   19 1
     8    3    4 1
     9    4    5 2
    10    4   16 1
    11    5    6 1
    12    5   30 1
    13    6    7 2
    14    6    8 am
    15    8    9 1
    16    9   10 1
    17    9   31 1
    18    9   32 1
    19   10   15 ar
    20   10   11 ar
    21   11   12 ar
    22   11   33 1
    23   12   13 ar
    24   12   34 1
    25   13   14 ar
    26   13   35 1
    27   14   15 ar
    28   15   36 1
    29   16   17 1
    30   16   18 1
    31   18   19 am
    32   18   21 1
    33   19   20 2
    34   21   26 ar
    35   21   22 ar
    36   22   23 ar
    37   22   37 1
    38   23   24 ar
    39   23   38 1
    40   24   25 ar
    41   24   39 1
    42   25   26 ar
    43   25   40 1
    44   26   41 1
