@<TRIPOS>MOLECULE
ZINC00075209
   38    41     0     0     0
SMALL
USER_CHARGES
3-(9-oxofluoren-1-yl)carbonylaminobenzoic acid
@<TRIPOS>ATOM
      1 C1          2.3658    0.1079   -0.8267 C.ar      1 <0>        -0.0934
      2 C2          2.3225    1.4833   -0.9461 C.ar      1 <0>        -0.1216
      3 C3          1.1130    2.1532   -0.8608 C.ar      1 <0>        -0.0488
      4 C4         -0.0610    1.4388   -0.6530 C.ar      1 <0>        -0.1606
      5 C5         -0.0177    0.0401   -0.5315 C.ar      1 <0>        -0.0279
      6 C6          1.2016   -0.6161   -0.6201 C.ar      1 <0>        -0.1004
      7 C7         -1.4009   -0.4615   -0.3175 C.ar      1 <0>        -0.0304
      8 C8         -1.9031   -1.7457   -0.1406 C.ar      1 <0>        -0.0812
      9 C9         -3.2617   -1.9460    0.0429 C.ar      1 <0>        -0.0952
     10 C10        -4.1340   -0.8763    0.0518 C.ar      1 <0>        -0.0943
     11 C11        -3.6513    0.4221   -0.1240 C.ar      1 <0>        -0.0591
     12 C12        -2.2779    0.6315   -0.3097 C.ar      1 <0>        -0.1092
     13 C13        -1.4748    1.8614   -0.5130 C.2       1 <0>         0.4201
     14 O1         -1.8965    2.9988   -0.5630 O.2       1 <0>        -0.3493
     15 C14        -4.5844    1.5705   -0.1139 C.2       1 <0>         0.5291
     16 O2         -4.1604    2.6993   -0.2668 O.2       1 <0>        -0.4606
     17 N1         -5.9043    1.3649    0.0650 N.am      1 <0>        -0.6663
     18 C15        -6.7719    2.4551    0.1852 C.ar      1 <0>         0.1183
     19 C16        -8.0698    2.3681   -0.3054 C.ar      1 <0>        -0.1482
     20 C17        -8.9314    3.4425   -0.1888 C.ar      1 <0>        -0.1231
     21 C18        -8.5093    4.6092    0.4156 C.ar      1 <0>        -0.0891
     22 C19        -7.2078    4.7071    0.9117 C.ar      1 <0>        -0.0959
     23 C20        -6.3396    3.6205    0.7986 C.ar      1 <0>        -0.0813
     24 C21        -6.7533    5.9548    1.5596 C.2       1 <0>         0.4890
     25 O3         -5.6206    6.0377    1.9905 O.co2     1 <0>        -0.6242
     26 H1          3.3128   -0.4070   -0.8951 H         1 <0>         0.1329
     27 H2          3.2348    2.0383   -1.1073 H         1 <0>         0.1345
     28 H3          1.0825    3.2287   -0.9545 H         1 <0>         0.1364
     29 H4          1.2439   -1.6913   -0.5278 H         1 <0>         0.1308
     30 H5         -1.2311   -2.5912   -0.1463 H         1 <0>         0.1359
     31 H6         -3.6414   -2.9477    0.1802 H         1 <0>         0.1410
     32 H7         -5.1913   -1.0438    0.1953 H         1 <0>         0.1382
     33 H8         -6.2525    0.4607    0.1103 H         1 <0>         0.4022
     34 H9         -8.4060    1.4576   -0.7791 H         1 <0>         0.1163
     35 H10        -9.9385    3.3686   -0.5716 H         1 <0>         0.1206
     36 H11        -9.1857    5.4464    0.5051 H         1 <0>         0.1318
     37 H12        -5.3330    3.6888    1.1840 H         1 <0>         0.1390
     38 O4         -7.5951    7.0004    1.6725 O.co2     1 <0>        -0.7558
@<TRIPOS>BOND
     1    1    6 ar
     2    1    2 ar
     3    1   26 1
     4    2    3 ar
     5    2   27 1
     6    3    4 ar
     7    3   28 1
     8    4   13 1
     9    4    5 ar
    10    5    6 ar
    11    5    7 1
    12    6   29 1
    13    7   12 ar
    14    7    8 ar
    15    8    9 ar
    16    8   30 1
    17    9   10 ar
    18    9   31 1
    19   10   11 ar
    20   10   32 1
    21   11   12 ar
    22   11   15 1
    23   12   13 1
    24   13   14 2
    25   15   16 2
    26   15   17 am
    27   17   18 1
    28   17   33 1
    29   18   23 ar
    30   18   19 ar
    31   19   20 ar
    32   19   34 1
    33   20   21 ar
    34   20   35 1
    35   21   22 ar
    36   21   36 1
    37   22   23 ar
    38   22   24 1
    39   23   37 1
    40   24   25 2
    41   24   38 1
@<TRIPOS>MOLECULE
ZINC00075022
   42    45     0     0     0
SMALL
USER_CHARGES

@<TRIPOS>ATOM
      1 C1         -0.0173    1.4248    0.0099 C.3       1 <0>         0.0280
      2 O1          0.0021   -0.0041    0.0020 O.3       1 <0>        -0.3184
      3 C2          0.6058   -0.6071   -1.0557 C.ar      1 <0>         0.1248
      4 C3          1.1731    0.1608   -2.0626 C.ar      1 <0>        -0.2090
      5 C4          1.7865   -0.4545   -3.1363 C.ar      1 <0>        -0.0796
      6 C5          1.8356   -1.8347   -3.2084 C.ar      1 <0>        -0.1387
      7 C6          1.2707   -2.6020   -2.2067 C.ar      1 <0>        -0.0576
      8 C7          0.6609   -1.9913   -1.1277 C.ar      1 <0>        -0.1399
      9 C8          1.3255   -4.1057   -2.2887 C.3       1 <0>         0.2158
     10 H1          0.5519   -4.5152   -1.6390 H         1 <0>         0.0687
     11 C9          2.6752   -4.5664   -1.7789 C.3       1 <0>        -0.0875
     12 H2          3.4529   -3.8431   -2.0241 H         1 <0>         0.0870
     13 C10         2.5652   -4.7750   -0.2424 C.3       1 <0>        -0.0900
     14 C11         2.2068   -6.2370   -0.0909 C.2       1 <0>        -0.1901
     15 C12         2.4736   -6.9000   -1.1880 C.2       1 <0>        -0.1324
     16 C13         3.0625   -5.9688   -2.2438 C.3       1 <0>        -0.0069
     17 H3          4.1486   -6.0541   -2.2111 H         1 <0>         0.0852
     18 C14         2.6166   -6.3065   -3.6267 C.ar      1 <0>        -0.1705
     19 C15         3.1770   -7.3880   -4.2593 C.ar      1 <0>        -0.0344
     20 C16         2.7921   -7.7251   -5.5591 C.ar      1 <0>        -0.1865
     21 C17         1.8302   -6.9543   -6.2229 C.ar      1 <0>        -0.0374
     22 C18         1.2713   -5.8826   -5.5900 C.ar      1 <0>        -0.2117
     23 C19         1.6521   -5.5545   -4.2885 C.ar      1 <0>         0.2168
     24 N1          1.0397   -4.5022   -3.6495 N.pl3     1 <0>        -0.7338
     25 C20         3.3966   -8.8872   -6.2292 C.2       1 <0>         0.5231
     26 O2          4.2374   -9.5596   -5.6479 O.co2     1 <0>        -0.6958
     27 O3          3.0584   -9.1812   -7.3677 O.co2     1 <0>        -0.6960
     28 H4          1.0053    1.8021    0.0021 H         1 <0>         0.0547
     29 H5         -0.5445    1.7859   -0.8732 H         1 <0>         0.0545
     30 H6         -0.5275    1.7763    0.9067 H         1 <0>         0.0990
     31 H7          1.1347    1.2387   -2.0069 H         1 <0>         0.1258
     32 H8          2.2279    0.1427   -3.9204 H         1 <0>         0.1248
     33 H9          2.3157   -2.3139   -4.0487 H         1 <0>         0.1278
     34 H10         0.2237   -2.5911   -0.3432 H         1 <0>         0.1311
     35 H11         3.5194   -4.5642    0.2405 H         1 <0>         0.0768
     36 H12         1.7790   -4.1445    0.1729 H         1 <0>         0.0713
     37 H13         1.7873   -6.6751    0.8027 H         1 <0>         0.1236
     38 H14         2.3028   -7.9573   -1.3274 H         1 <0>         0.1272
     39 H15         3.9201   -7.9825   -3.7486 H         1 <0>         0.1217
     40 H16         1.5327   -7.2064   -7.2300 H         1 <0>         0.1243
     41 H17         0.5296   -5.2851   -6.0993 H         1 <0>         0.1108
     42 H18         0.3915   -3.9848   -4.1525 H         1 <0>         0.3934
@<TRIPOS>BOND
     1    1    2 1
     2    1   28 1
     3    1   29 1
     4    1   30 1
     5    2    3 1
     6    3    8 ar
     7    3    4 ar
     8    4    5 ar
     9    4   31 1
    10    5    6 ar
    11    5   32 1
    12    6    7 ar
    13    6   33 1
    14    7    8 ar
    15    7    9 1
    16    8   34 1
    17    9   10 1
    18    9   24 1
    19    9   11 1
    20   11   12 1
    21   11   16 1
    22   11   13 1
    23   13   14 1
    24   13   35 1
    25   13   36 1
    26   14   15 2
    27   14   37 1
    28   15   16 1
    29   15   38 1
    30   16   17 1
    31   16   18 1
    32   18   23 ar
    33   18   19 ar
    34   19   20 ar
    35   19   39 1
    36   20   21 ar
    37   20   25 1
    38   21   22 ar
    39   21   40 1
    40   22   23 ar
    41   22   41 1
    42   23   24 1
    43   24   42 1
    44   25   26 2
    45   25   27 1
@<TRIPOS>MOLECULE
ZINC00132711
   40    43     0     0     0
SMALL
USER_CHARGES
4-(9-anthrylmethyleneamino)-2-hydroxy-benzoic acid
@<TRIPOS>ATOM
      1 C1          7.9638    3.0226    1.9001 C.ar      1 <0>        -0.1220
      2 C2          6.7751    2.2957    1.9115 C.ar      1 <0>        -0.1046
      3 C3          5.7668    2.5626    1.0375 C.ar      1 <0>        -0.1160
      4 C4          5.9167    3.5973    0.0997 C.ar      1 <0>        -0.0136
      5 C5          7.1666    4.3593    0.0817 C.ar      1 <0>        -0.0607
      6 C6          8.1731    4.0324    1.0155 C.ar      1 <0>        -0.0995
      7 C7          7.3506    5.3908   -0.8407 C.ar      1 <0>        -0.0677
      8 C8          6.3422    5.6974   -1.7560 C.ar      1 <0>        -0.0591
      9 C9          6.5075    6.7357   -2.6974 C.ar      1 <0>        -0.1176
     10 C10         5.5074    7.0094   -3.5755 C.ar      1 <0>        -0.1112
     11 C11         4.3151    6.2884   -3.5730 C.ar      1 <0>        -0.1207
     12 C12         4.0948    5.2764   -2.6904 C.ar      1 <0>        -0.1192
     13 C13         5.0881    4.9420   -1.7555 C.ar      1 <0>        -0.0069
     14 C14         4.8925    3.8965   -0.8260 C.ar      1 <0>        -0.0561
     15 C15         3.6811    3.1606   -0.8183 C.2       1 <0>         0.1829
     16 N1          2.6913    3.5205   -1.5968 N.2       1 <0>        -0.4585
     17 C16         1.5263    2.8128   -1.5895 C.ar      1 <0>         0.0725
     18 C17         1.5580    1.4117   -1.6155 C.ar      1 <0>        -0.1672
     19 C18         0.3969    0.6980   -1.6083 C.ar      1 <0>        -0.0521
     20 C19        -0.8365    1.3600   -1.5748 C.ar      1 <0>        -0.1368
     21 C20        -0.8779    2.7640   -1.5486 C.ar      1 <0>         0.1472
     22 C21         0.3014    3.4849   -1.5560 C.ar      1 <0>        -0.1417
     23 O1         -2.0706    3.4097   -1.5167 O.3       1 <0>        -0.4728
     24 C22        -2.0875    0.5863   -1.5667 C.2       1 <0>         0.4868
     25 O2         -3.1578    1.1617   -1.5377 O.co2     1 <0>        -0.6132
     26 H1          8.7378    2.7775    2.6123 H         1 <0>         0.1220
     27 H2          6.6508    1.5010    2.6321 H         1 <0>         0.1241
     28 H3          4.8552    1.9843    1.0671 H         1 <0>         0.1317
     29 H4          9.1034    4.5809    1.0265 H         1 <0>         0.1285
     30 H5          8.2735    5.9516   -0.8464 H         1 <0>         0.1335
     31 H6          7.4225    7.3091   -2.7194 H         1 <0>         0.1259
     32 H7          5.6401    7.8053   -4.2935 H         1 <0>         0.1189
     33 H8          3.5466    6.5390   -4.2893 H         1 <0>         0.1211
     34 H9          3.1615    4.7331   -2.7090 H         1 <0>         0.1910
     35 H10         3.5742    2.3032   -0.1705 H         1 <0>         0.1147
     36 H11         2.5064    0.8956   -1.6410 H         1 <0>         0.1194
     37 H12         0.4284   -0.3815   -1.6239 H         1 <0>         0.1376
     38 H13         0.2764    4.5645   -1.5363 H         1 <0>         0.1297
     39 H14        -2.4014    3.5808   -0.6243 H         1 <0>         0.3866
     40 O3         -2.0469   -0.7609   -1.5914 O.co2     1 <0>        -0.7570
@<TRIPOS>BOND
     1    1    6 ar
     2    1    2 ar
     3    1   26 1
     4    2    3 ar
     5    2   27 1
     6    3    4 ar
     7    3   28 1
     8    4   14 ar
     9    4    5 ar
    10    5    6 ar
    11    5    7 ar
    12    6   29 1
    13    7    8 ar
    14    7   30 1
    15    8   13 ar
    16    8    9 ar
    17    9   10 ar
    18    9   31 1
    19   10   11 ar
    20   10   32 1
    21   11   12 ar
    22   11   33 1
    23   12   13 ar
    24   12   34 1
    25   13   14 ar
    26   14   15 1
    27   15   16 2
    28   15   35 1
    29   16   17 1
    30   17   22 ar
    31   17   18 ar
    32   18   19 ar
    33   18   36 1
    34   19   20 ar
    35   19   37 1
    36   20   21 ar
    37   20   24 1
    38   21   22 ar
    39   21   23 1
    40   22   38 1
    41   23   39 1
    42   24   25 2
    43   24   40 1
