@<TRIPOS>MOLECULE
ZINC04016958
   43    44     0     0     0
SMALL
USER_CHARGES
N-methyl-2-phenoxy-N-[4-[2,2,2-trifluoro-1-hydroxy-1-(trifluoromethyl)ethyl]phenyl]-acetamide
@<TRIPOS>ATOM
      1 C1          1.2965    0.9982    2.5116 C.3       1 <0>         0.0712
      2 N1          0.0870    1.8193    2.4146 N.am      1 <0>        -0.5789
      3 C2         -0.5857    2.2138    3.5764 C.ar      1 <0>         0.1680
      4 C3          0.0140    3.1012    4.4604 C.ar      1 <0>        -0.1158
      5 C4         -0.6554    3.4938    5.6029 C.ar      1 <0>        -0.0636
      6 C5         -1.9162    2.9944    5.8734 C.ar      1 <0>        -0.1595
      7 C6         -2.5136    2.1059    4.9982 C.ar      1 <0>        -0.0821
      8 C7         -1.8522    1.7145    3.8507 C.ar      1 <0>        -0.0971
      9 C8         -2.6410    3.4198    7.1243 C.3       1 <0>         0.1016
     10 C9         -3.9410    4.1311    6.7436 C.3       1 <0>         0.4343
     11 F1         -4.7718    3.2445    6.0501 F         1 <0>        -0.1604
     12 F2         -4.5902    4.5682    7.9032 F         1 <0>        -0.1572
     13 F3         -3.6497    5.2309    5.9295 F         1 <0>        -0.1605
     14 C10        -2.9633    2.1869    7.9712 C.3       1 <0>         0.4803
     15 F4         -1.7746    1.5365    8.3192 F         1 <0>        -0.1523
     16 F5         -3.6361    2.5818    9.1324 F         1 <0>        -0.1567
     17 F6         -3.7738    1.3152    7.2361 F         1 <0>        -0.1570
     18 O1         -1.8130    4.3102    7.8751 O.3       1 <0>        -0.4984
     19 C11        -0.3776    2.1946    1.2065 C.2       1 <0>         0.5191
     20 O2         -1.4258    2.7988    1.1208 O.2       1 <0>        -0.4917
     21 C12         0.4052    1.8636   -0.0380 C.3       1 <0>         0.0465
     22 O3         -0.2878    2.3630   -1.1836 O.3       1 <0>        -0.2910
     23 C13         0.2878    2.1469   -2.3956 C.ar      1 <0>         0.1255
     24 C14         1.4975    1.4730   -2.4800 C.ar      1 <0>        -0.2113
     25 C15         2.0774    1.2492   -3.7137 C.ar      1 <0>        -0.0796
     26 C16         1.4593    1.7069   -4.8628 C.ar      1 <0>        -0.1555
     27 C17         0.2564    2.3837   -4.7808 C.ar      1 <0>        -0.0784
     28 C18        -0.3306    2.6047   -3.5500 C.ar      1 <0>        -0.1463
     29 H1          2.1707    1.6457    2.5791 H         1 <0>         0.0689
     30 H2          1.2394    0.3709    3.4011 H         1 <0>         0.0842
     31 H3          1.3791    0.3673    1.6266 H         1 <0>         0.0808
     32 H4          1.0008    3.4875    4.2523 H         1 <0>         0.1384
     33 H5         -0.1918    4.1881    6.2880 H         1 <0>         0.1422
     34 H6         -3.4985    1.7179    5.2121 H         1 <0>         0.1485
     35 H7         -2.3196    1.0211    3.1672 H         1 <0>         0.1364
     36 H8         -1.5687    5.1156    7.3990 H         1 <0>         0.4083
     37 H9          0.5139    0.7822   -0.1220 H         1 <0>         0.0971
     38 H10         1.3913    2.3244    0.0197 H         1 <0>         0.0978
     39 H11         1.9831    1.1196   -1.5824 H         1 <0>         0.1266
     40 H12         3.0169    0.7207   -3.7804 H         1 <0>         0.1267
     41 H13         1.9167    1.5351   -5.8259 H         1 <0>         0.1258
     42 H14        -0.2247    2.7396   -5.6798 H         1 <0>         0.1319
     43 H15        -1.2700    3.1338   -3.4865 H         1 <0>         0.1332
@<TRIPOS>BOND
     1    1    2 1
     2    1   29 1
     3    1   30 1
     4    1   31 1
     5    2    3 1
     6    2   19 am
     7    3    8 ar
     8    3    4 ar
     9    4    5 ar
    10    4   32 1
    11    5    6 ar
    12    5   33 1
    13    6    7 ar
    14    6    9 1
    15    7    8 ar
    16    7   34 1
    17    8   35 1
    18    9   10 1
    19    9   14 1
    20    9   18 1
    21   10   11 1
    22   10   12 1
    23   10   13 1
    24   14   15 1
    25   14   16 1
    26   14   17 1
    27   18   36 1
    28   19   20 2
    29   19   21 1
    30   21   22 1
    31   21   37 1
    32   21   38 1
    33   22   23 1
    34   23   28 ar
    35   23   24 ar
    36   24   25 ar
    37   24   39 1
    38   25   26 ar
    39   25   40 1
    40   26   27 ar
    41   26   41 1
    42   27   28 ar
    43   27   42 1
    44   28   43 1
@<TRIPOS>MOLECULE
ZINC03206636
   40    41     0     0     0
SMALL
USER_CHARGES
2-phenoxy-N-[4-[2,2,2-trifluoro-1-hydroxy-1-(trifluoromethyl)ethyl]phenyl]-acetamide
@<TRIPOS>ATOM
      1 C1          5.4887   -3.0551   -0.2164 C.ar      1 <0>        -0.1548
      2 C2          5.2574   -3.6779    0.9962 C.ar      1 <0>        -0.0785
      3 C3          4.3684   -3.1268    1.8985 C.ar      1 <0>        -0.1457
      4 C4          3.7074   -1.9475    1.5872 C.ar      1 <0>         0.1247
      5 C5          3.9369   -1.3276    0.3675 C.ar      1 <0>        -0.2111
      6 C6          4.8316   -1.8794   -0.5289 C.ar      1 <0>        -0.0798
      7 O1          2.8323   -1.4033    2.4732 O.3       1 <0>        -0.2901
      8 C7          2.1882   -0.1880    2.0857 C.3       1 <0>         0.0440
      9 C8          1.2613    0.2620    3.1855 C.2       1 <0>         0.5172
     10 O2          1.1622   -0.3934    4.2012 O.2       1 <0>        -0.4868
     11 N1          0.5426    1.3929    3.0404 N.am      1 <0>        -0.6720
     12 C9         -0.3923    1.7577    4.0156 C.ar      1 <0>         0.1740
     13 C10        -1.5705    2.3935    3.6467 C.ar      1 <0>        -0.1371
     14 C11        -2.4941    2.7463    4.6110 C.ar      1 <0>        -0.0744
     15 C12        -2.2410    2.4785    5.9438 C.ar      1 <0>        -0.1757
     16 C13        -1.0659    1.8511    6.3150 C.ar      1 <0>        -0.0532
     17 C14        -0.1412    1.4898    5.3549 C.ar      1 <0>        -0.1198
     18 C15        -3.2480    2.8709    6.9940 C.3       1 <0>         0.1039
     19 C16        -3.4864    4.3810    6.9331 C.3       1 <0>         0.4345
     20 F1         -4.0912    4.7089    5.7150 F         1 <0>        -0.1619
     21 F2         -4.3228    4.7640    7.9871 F         1 <0>        -0.1573
     22 F3         -2.2630    5.0510    7.0415 F         1 <0>        -0.1614
     23 C17        -4.5652    2.1360    6.7375 C.3       1 <0>         0.4790
     24 F4         -4.3473    0.7552    6.7932 F         1 <0>        -0.1517
     25 F5         -5.5000    2.5003    7.7124 F         1 <0>        -0.1584
     26 F6         -5.0526    2.4805    5.4722 F         1 <0>        -0.1579
     27 O3         -2.7501    2.5191    8.2864 O.3       1 <0>        -0.4985
     28 H1          6.1842   -3.4876   -0.9205 H         1 <0>         0.1260
     29 H2          5.7725   -4.5958    1.2382 H         1 <0>         0.1322
     30 H3          4.1877   -3.6138    2.8454 H         1 <0>         0.1335
     31 H4          3.4202   -0.4118    0.1209 H         1 <0>         0.1272
     32 H5          5.0140   -1.3949   -1.4767 H         1 <0>         0.1268
     33 H6          2.9399    0.5807    1.9069 H         1 <0>         0.0994
     34 H7          1.6154   -0.3553    1.1736 H         1 <0>         0.0997
     35 H8          0.6733    1.9539    2.2599 H         1 <0>         0.4170
     36 H9         -1.7664    2.6076    2.6064 H         1 <0>         0.1396
     37 H10        -3.4131    3.2358    4.3243 H         1 <0>         0.1471
     38 H11        -0.8713    1.6430    7.3567 H         1 <0>         0.1413
     39 H12         0.7760    0.9991    5.6453 H         1 <0>         0.1508
     40 H13        -1.9153    2.9492    8.5168 H         1 <0>         0.4081
@<TRIPOS>BOND
     1    1    6 ar
     2    1    2 ar
     3    1   28 1
     4    2    3 ar
     5    2   29 1
     6    3    4 ar
     7    3   30 1
     8    4    5 ar
     9    4    7 1
    10    5    6 ar
    11    5   31 1
    12    6   32 1
    13    7    8 1
    14    8    9 1
    15    8   33 1
    16    8   34 1
    17    9   10 2
    18    9   11 am
    19   11   12 1
    20   11   35 1
    21   12   17 ar
    22   12   13 ar
    23   13   14 ar
    24   13   36 1
    25   14   15 ar
    26   14   37 1
    27   15   16 ar
    28   15   18 1
    29   16   17 ar
    30   16   38 1
    31   17   39 1
    32   18   19 1
    33   18   23 1
    34   18   27 1
    35   19   20 1
    36   19   21 1
    37   19   22 1
    38   23   24 1
    39   23   25 1
    40   23   26 1
    41   27   40 1
@<TRIPOS>MOLECULE
ZINC05727254
   30    30     0     0     0
SMALL
USER_CHARGES
N-isopropyl-4-(2,2,2-trifluoroacetyl)-benzamide
@<TRIPOS>ATOM
      1 C1          2.7920    0.8346   -1.4572 C.3       1 <0>        -0.1657
      2 C2          2.4220    1.1856   -0.0147 C.3       1 <0>         0.1350
      3 C3          3.5111    2.0743    0.5893 C.3       1 <0>        -0.1627
      4 N1          1.1435    1.9007    0.0013 N.am      1 <0>        -0.7196
      5 C4         -0.0144    1.2110    0.0087 C.2       1 <0>         0.5548
      6 O1          0.0021   -0.0041    0.0020 O.2       1 <0>        -0.5241
      7 C5         -1.3066    1.9339    0.0188 C.ar      1 <0>        -0.0885
      8 C6         -1.3248    3.3294    0.0322 C.ar      1 <0>        -0.0959
      9 C7         -2.5266    4.0032    0.0358 C.ar      1 <0>        -0.0692
     10 C8         -3.7281    3.2884    0.0371 C.ar      1 <0>        -0.1516
     11 C9         -3.7084    1.8905    0.0295 C.ar      1 <0>        -0.0496
     12 C10        -2.5054    1.2191    0.0206 C.ar      1 <0>        -0.0708
     13 C11        -5.0144    4.0079    0.0462 C.2       1 <0>         0.3688
     14 O2         -6.0559    3.3876    0.0469 O.2       1 <0>        -0.3688
     15 C12        -5.0348    5.5147    0.0545 C.3       1 <0>         0.4272
     16 F1         -6.3600    5.9631    0.0622 F         1 <0>        -0.1584
     17 F2         -4.3772    5.9838    1.1967 F         1 <0>        -0.1626
     18 F3         -4.3863    5.9962   -1.0878 F         1 <0>        -0.1626
     19 H1          3.7432    0.3025   -1.4692 H         1 <0>         0.0691
     20 H2          2.0160    0.2015   -1.8875 H         1 <0>         0.0614
     21 H3          2.8802    1.7498   -2.0426 H         1 <0>         0.0581
     22 H4          2.3337    0.2704    0.5707 H         1 <0>         0.0916
     23 H5          3.2475    2.3244    1.6170 H         1 <0>         0.0632
     24 H6          4.4623    1.5422    0.5774 H         1 <0>         0.0764
     25 H7          3.5994    2.9895    0.0039 H         1 <0>         0.0624
     26 H8          1.1303    2.8706    0.0067 H         1 <0>         0.4004
     27 H9         -0.3965    3.8813    0.0352 H         1 <0>         0.1396
     28 H10        -2.5404    5.0831    0.0417 H         1 <0>         0.1414
     29 H11        -4.6359    1.3371    0.0301 H         1 <0>         0.1490
     30 H12        -2.4899    0.1392    0.0146 H         1 <0>         0.1516
@<TRIPOS>BOND
     1    1    2 1
     2    1   19 1
     3    1   20 1
     4    1   21 1
     5    2    3 1
     6    2    4 1
     7    2   22 1
     8    3   23 1
     9    3   24 1
    10    3   25 1
    11    4    5 am
    12    4   26 1
    13    5    6 2
    14    5    7 1
    15    7   12 ar
    16    7    8 ar
    17    8    9 ar
    18    8   27 1
    19    9   10 ar
    20    9   28 1
    21   10   11 ar
    22   10   13 1
    23   11   12 ar
    24   11   29 1
    25   12   30 1
    26   13   14 2
    27   13   15 1
    28   15   16 1
    29   15   17 1
    30   15   18 1
