@<TRIPOS>MOLECULE
ZINC01706757
   30    31     0     0     0
SMALL
USER_CHARGES
4-(1-methyl-3,6-dihydro-2H-pyridin-4-yl)phenol
@<TRIPOS>ATOM
      1 C1          1.3445    7.7662    0.1846 C.3       1 <0>        -0.0414
      2 C2          1.2307    5.7520   -1.1590 C.3       1 <0>         0.0005
      3 C3          1.7066    4.2974   -1.1874 C.3       1 <0>        -0.1157
      4 C4          1.1680    3.5644    0.0096 C.2       1 <0>        -0.0455
      5 C5          0.6786    4.1847    1.0608 C.2       1 <0>        -0.1907
      6 C6          0.6124    5.6808    1.1720 C.3       1 <0>         0.0412
      7 C7          1.1836    2.0868    0.0020 C.ar      1 <0>        -0.0963
      8 C8         -0.0166    1.3743    0.0096 C.ar      1 <0>        -0.0814
      9 C9          0.0021   -0.0041    0.0020 C.ar      1 <0>        -0.1435
     10 C10         1.2129   -0.6837   -0.0132 C.ar      1 <0>         0.1278
     11 C11         2.4090    0.0215   -0.0208 C.ar      1 <0>        -0.1438
     12 C12         2.3986    1.4000   -0.0129 C.ar      1 <0>        -0.0825
     13 O1          1.2272   -2.0423   -0.0202 O.3       1 <0>        -0.4971
     14 H1          0.3268    8.0270   -0.1058 H         1 <0>         0.1235
     15 H2          1.5462    8.1488    1.1851 H         1 <0>         0.1241
     16 H3          2.0482    8.2070   -0.5216 H         1 <0>         0.1239
     17 H4          1.7728    6.3293   -1.9079 H         1 <0>         0.1369
     18 H5          0.1612    5.7914   -1.3659 H         1 <0>         0.1334
     19 H6          2.7962    4.2719   -1.1682 H         1 <0>         0.1067
     20 H7          1.3487    3.8171   -2.0980 H         1 <0>         0.1249
     21 H8          0.3103    3.5904    1.8841 H         1 <0>         0.1508
     22 H9          0.9213    5.9848    2.1721 H         1 <0>         0.1398
     23 H10        -0.4134    6.0051    0.9968 H         1 <0>         0.1393
     24 H11        -0.9588    1.9023    0.0169 H         1 <0>         0.1298
     25 H12        -0.9262   -0.5560    0.0076 H         1 <0>         0.1370
     26 H13         3.3487   -0.5107   -0.0327 H         1 <0>         0.1368
     27 H14         3.3294    1.9478   -0.0181 H         1 <0>         0.1283
     28 H15         1.2228   -2.4311   -0.9055 H         1 <0>         0.3999
     29 N1          1.5181    6.2958    0.1841 N.4       1 <0>        -0.3985
     30 H16         2.4887    6.0739    0.4350 H         1 <0>         0.4318
@<TRIPOS>BOND
     1    1   14 1
     2    1   15 1
     3    1   16 1
     4    1   29 1
     5    2    3 1
     6    2   17 1
     7    2   18 1
     8    2   29 1
     9    3    4 1
    10    3   19 1
    11    3   20 1
    12    4    5 2
    13    4    7 1
    14    5    6 1
    15    5   21 1
    16    6   22 1
    17    6   23 1
    18    6   29 1
    19    7   12 ar
    20    7    8 ar
    21    8    9 ar
    22    8   24 1
    23    9   10 ar
    24    9   25 1
    25   10   11 ar
    26   10   13 1
    27   11   12 ar
    28   11   26 1
    29   12   27 1
    30   13   28 1
    31   29   30 1
