@<TRIPOS>MOLECULE
ZINC03877744
   45    49     0     0     0
SMALL
USER_CHARGES
4-[(4,6-dichloro-1,3,5-triazin-2-yl)amino]-2-(6-hydroxy-3-oxo-xanthen-9-yl)-benzoic acid
@<TRIPOS>ATOM
      1 C1         -1.0520    3.1303   -0.1922 C.ar      1 <0>        -0.1302
      2 C2         -2.1834    3.9156   -0.2684 C.ar      1 <0>        -0.0564
      3 C3         -3.4468    3.3296   -0.2046 C.ar      1 <0>        -0.0850
      4 C4         -3.5625    1.9291   -0.0676 C.ar      1 <0>        -0.0491
      5 C5         -2.4127    1.1474    0.0024 C.ar      1 <0>        -0.0949
      6 C6         -1.1611    1.7487   -0.0628 C.ar      1 <0>         0.1356
      7 N1         -0.0111    0.9658    0.0074 N.pl3     1 <0>        -0.6017
      8 C7          0.0007   -0.1765    0.7847 C.ar      1 <0>         0.6282
      9 N2         -1.0432   -0.4691    1.5550 N.ar      1 <0>        -0.5709
     10 C8         -1.0313   -1.5659    2.2936 C.ar      1 <0>         0.4596
     11 N3          0.0232   -2.3670    2.2751 N.ar      1 <0>        -0.5702
     12 C9          1.0665   -2.0754    1.5131 C.ar      1 <0>         0.4620
     13 N4          1.0582   -0.9829    0.7682 N.ar      1 <0>        -0.5833
     14 Cl1         2.4465   -3.1283    1.4927 Cl        1 <0>         0.0589
     15 Cl2        -2.3964   -1.9524    3.2940 Cl        1 <0>         0.0626
     16 C10        -4.8937    1.2981    0.0004 C.2       1 <0>         0.1925
     17 C11        -5.5718    1.0946    1.2824 C.ar      1 <0>        -0.1376
     18 C12        -4.9718    1.4947    2.4843 C.ar      1 <0>        -0.0143
     19 C13        -5.6225    1.2954    3.6654 C.ar      1 <0>        -0.1724
     20 C14        -6.8822    0.6945    3.6844 C.ar      1 <0>         0.1692
     21 C15        -7.4901    0.2924    2.5063 C.ar      1 <0>        -0.1745
     22 C16        -6.8444    0.4868    1.2938 C.ar      1 <0>         0.1761
     23 O1         -7.4274    0.0986    0.1418 O.3       1 <0>        -0.2149
     24 C17        -6.8375    0.2674   -1.0595 C.2       1 <0>         0.2181
     25 C18        -7.4853   -0.1512   -2.2050 C.2       1 <0>        -0.3134
     26 C19        -6.8769    0.0214   -3.4539 C.2       1 <0>         0.4136
     27 O2         -7.4531   -0.3506   -4.4690 O.2       1 <0>        -0.5242
     28 C20        -5.6039    0.6220   -3.5499 C.2       1 <0>        -0.2338
     29 C21        -4.9588    1.0362   -2.4315 C.2       1 <0>        -0.0128
     30 C22        -5.5623    0.8738   -1.1686 C.2       1 <0>        -0.1686
     31 O3         -7.5170    0.5021    4.8677 O.3       1 <0>        -0.4898
     32 C23        -4.6567    4.1687   -0.2804 C.2       1 <0>         0.4834
     33 O4         -5.7566    3.6552   -0.2250 O.co2     1 <0>        -0.6029
     34 H1         -0.0756    3.5897   -0.2377 H         1 <0>         0.1317
     35 H2         -2.0904    4.9865   -0.3732 H         1 <0>         0.1488
     36 H3         -2.4930    0.0755    0.1076 H         1 <0>         0.1357
     37 H4          0.7828    1.2247   -0.4863 H         1 <0>         0.4333
     38 H5         -3.9972    1.9601    2.4746 H         1 <0>         0.1411
     39 H6         -5.1607    1.6038    4.5917 H         1 <0>         0.1403
     40 H7         -8.4652   -0.1713    2.5316 H         1 <0>         0.1494
     41 H8         -8.4599   -0.6116   -2.1374 H         1 <0>         0.1384
     42 H9         -5.1416    0.7519   -4.5172 H         1 <0>         0.1341
     43 H10        -3.9844    1.4955   -2.5091 H         1 <0>         0.1301
     44 H11        -7.3209   -0.3477    5.2856 H         1 <0>         0.3957
     45 O5         -4.5429    5.5051   -0.4112 O.co2     1 <0>        -0.7374
@<TRIPOS>BOND
     1    1    6 ar
     2    1    2 ar
     3    1   34 1
     4    2    3 ar
     5    2   35 1
     6    3    4 ar
     7    3   32 1
     8    4    5 ar
     9    4   16 1
    10    5    6 ar
    11    5   36 1
    12    6    7 1
    13    7    8 1
    14    7   37 1
    15    8   13 ar
    16    8    9 ar
    17    9   10 ar
    18   10   11 ar
    19   10   15 1
    20   11   12 ar
    21   12   13 ar
    22   12   14 1
    23   16   30 2
    24   16   17 1
    25   17   22 ar
    26   17   18 ar
    27   18   19 ar
    28   18   38 1
    29   19   20 ar
    30   19   39 1
    31   20   21 ar
    32   20   31 1
    33   21   22 ar
    34   21   40 1
    35   22   23 1
    36   23   24 1
    37   24   30 1
    38   24   25 2
    39   25   26 1
    40   25   41 1
    41   26   27 2
    42   26   28 1
    43   28   29 2
    44   28   42 1
    45   29   30 1
    46   29   43 1
    47   31   44 1
    48   32   33 2
    49   32   45 1
