@<TRIPOS>MOLECULE
ZINC06067808
   48    50     0     0     0
SMALL
USER_CHARGES
1,7-bis(hydroxymethyl)-1,4a-dimethyl-2,3,4,9,10,10a-hexahydrophenanthrene-2,6-diol
@<TRIPOS>ATOM
      1 C1         -0.2502   -4.3932    1.4991 C.3       1 <0>        -0.1488
      2 C2         -0.0304   -4.0106    0.0351 C.3       1 <0>        -0.0015
      3 C3         -1.1944   -4.5465   -0.7936 C.3       1 <0>        -0.1021
      4 C4         -1.1613   -6.0751   -0.7891 C.3       1 <0>        -0.1527
      5 C5          0.1364   -6.5838   -1.4006 C.3       1 <0>         0.1225
      6 H1          0.1553   -7.6782   -1.3341 H         1 <0>         0.0588
      7 C6          1.3731   -6.0300   -0.6906 C.3       1 <0>        -0.0284
      8 C7          1.2875   -4.5316   -0.5074 C.3       1 <0>        -0.0596
      9 H2          1.4011   -4.0849   -1.5270 H         1 <0>         0.0712
     10 C8          2.4364   -3.9586    0.3207 C.3       1 <0>        -0.1176
     11 C9          2.5374   -2.4619    0.0192 C.3       1 <0>        -0.0804
     12 C10         1.1859   -1.8019   -0.0227 C.ar      1 <0>        -0.0820
     13 C11        -0.0037   -2.4978   -0.0152 C.ar      1 <0>        -0.0480
     14 C12        -1.2093   -1.8191   -0.0485 C.ar      1 <0>        -0.1401
     15 C13        -1.2330   -0.4338   -0.0940 C.ar      1 <0>         0.1040
     16 C14        -0.0381    0.2701   -0.1066 C.ar      1 <0>        -0.1199
     17 C15         1.1590   -0.4114   -0.0699 C.ar      1 <0>        -0.0835
     18 C16        -0.0491    1.7764   -0.1587 C.3       1 <0>         0.1243
     19 O1          1.2946    2.2628   -0.1608 O.3       1 <0>        -0.5709
     20 O2         -2.4190    0.2284   -0.1241 O.3       1 <0>        -0.4967
     21 C17         1.6038   -6.7760    0.6228 C.3       1 <0>        -0.1459
     22 C18         2.5824   -6.3359   -1.6084 C.3       1 <0>         0.0846
     23 O3          2.6895   -7.7478   -1.8005 O.3       1 <0>        -0.5702
     24 O4          0.1864   -6.2195   -2.7844 O.3       1 <0>        -0.5641
     25 H3         -1.1300   -3.8758    1.8817 H         1 <0>         0.0567
     26 H4         -0.4004   -5.4701    1.5746 H         1 <0>         0.0664
     27 H5          0.6233   -4.1063    2.0846 H         1 <0>         0.0610
     28 H6         -2.1375   -4.2060   -0.3618 H         1 <0>         0.0652
     29 H7         -1.1146   -4.1781   -1.8168 H         1 <0>         0.0706
     30 H8         -2.0023   -6.4421   -1.3938 H         1 <0>         0.0634
     31 H9         -1.2852   -6.4620    0.2183 H         1 <0>         0.0762
     32 H10         2.2846   -4.1082    1.3842 H         1 <0>         0.0728
     33 H11         3.3808   -4.4311    0.0346 H         1 <0>         0.0684
     34 H12         3.0293   -2.3287   -0.9453 H         1 <0>         0.0752
     35 H13         3.1430   -1.9861    0.7917 H         1 <0>         0.0764
     36 H14        -2.1423   -2.3623   -0.0397 H         1 <0>         0.1304
     37 H15         2.0883    0.1384   -0.0786 H         1 <0>         0.1344
     38 H16        -0.5558    2.1048   -1.0662 H         1 <0>         0.0567
     39 H17        -0.5753    2.1663    0.7126 H         1 <0>         0.0628
     40 H18         1.3639    3.2268   -0.1933 H         1 <0>         0.3847
     41 H19        -2.7554    0.3926   -1.0157 H         1 <0>         0.3884
     42 H20         0.7262   -6.6690    1.2604 H         1 <0>         0.0608
     43 H21         1.7756   -7.8322    0.4154 H         1 <0>         0.0671
     44 H22         2.4741   -6.3590    1.1295 H         1 <0>         0.0611
     45 H23         2.4395   -5.8478   -2.5725 H         1 <0>         0.0561
     46 H24         3.4949   -5.9622   -1.1438 H         1 <0>         0.0407
     47 H25         3.4272   -8.0129   -2.3667 H         1 <0>         0.3777
     48 H26        -0.5666   -6.5361   -3.3019 H         1 <0>         0.3739
@<TRIPOS>BOND
     1    1    2 1
     2    1   25 1
     3    1   26 1
     4    1   27 1
     5    2    8 1
     6    2   13 1
     7    2    3 1
     8    3    4 1
     9    3   28 1
    10    3   29 1
    11    4    5 1
    12    4   30 1
    13    4   31 1
    14    5    6 1
    15    5    7 1
    16    5   24 1
    17    7    8 1
    18    7   21 1
    19    7   22 1
    20    8    9 1
    21    8   10 1
    22   10   11 1
    23   10   32 1
    24   10   33 1
    25   11   12 1
    26   11   34 1
    27   11   35 1
    28   12   17 ar
    29   12   13 ar
    30   13   14 ar
    31   14   15 ar
    32   14   36 1
    33   15   16 ar
    34   15   20 1
    35   16   17 ar
    36   16   18 1
    37   17   37 1
    38   18   19 1
    39   18   38 1
    40   18   39 1
    41   19   40 1
    42   20   41 1
    43   21   42 1
    44   21   43 1
    45   21   44 1
    46   22   23 1
    47   22   45 1
    48   22   46 1
    49   23   47 1
    50   24   48 1
@<TRIPOS>MOLECULE
ZINC03789195
   58    61     0     0     0
SMALL
USER_CHARGES

@<TRIPOS>ATOM
      1 C1          0.0517    1.5165   -0.0013 C.3       1 <0>        -0.1510
      2 C2          0.0597   -0.0113   -0.0039 C.3       1 <0>        -0.0205
      3 C3         -1.3839   -0.5183    0.0681 C.3       1 <0>        -0.1057
      4 C4         -2.0073   -0.0926    1.3956 C.3       1 <0>        -0.1522
      5 C5         -1.2467   -0.7149    2.5584 C.3       1 <0>         0.1241
      6 H1         -1.6690   -0.3382    3.4995 H         1 <0>         0.0545
      7 C6          0.2443   -0.3839    2.5303 C.3       1 <0>        -0.0289
      8 C7          0.8591   -0.5918    1.1619 C.3       1 <0>        -0.0651
      9 H2          0.8616   -1.6981    1.0154 H         1 <0>         0.0708
     10 C8          2.3272   -0.1820    1.1054 C.3       1 <0>        -0.1144
     11 C9          2.9588   -0.6405   -0.2274 C.3       1 <0>        -0.1116
     12 C10         2.1628    0.0090   -1.3378 C.3       1 <0>        -0.0892
     13 H3          2.1939    1.0957   -1.1977 H         1 <0>         0.0728
     14 C11         0.7113   -0.5117   -1.2851 C.3       1 <0>        -0.0404
     15 C12         0.6599   -2.0338   -1.3497 C.3       1 <0>        -0.1018
     16 C13         1.4022   -2.6209   -2.5424 C.3       1 <0>        -0.1367
     17 C14         1.0650   -1.8831   -3.8405 C.3       1 <0>         0.1458
     18 C15         1.2842   -0.3737   -3.5928 C.3       1 <0>        -0.0767
     19 H4          1.2955    0.2236   -4.5095 H         1 <0>         0.0879
     20 C16         2.6032   -0.2675   -2.7728 C.3       1 <0>        -0.1192
     21 C17         0.1513    0.0486   -2.6005 C.3       1 <0>        -0.1034
     22 C18         1.9787   -2.3701   -4.9727 C.3       1 <0>         0.0475
     23 O1          1.7902   -3.7733   -5.1666 O.3       1 <0>        -0.5736
     24 O2         -0.2979   -2.1346   -4.2044 O.3       1 <0>        -0.5537
     25 C19         0.4780    1.0227    3.0785 C.3       1 <0>        -0.1459
     26 C20         0.9253   -1.3705    3.5128 C.3       1 <0>         0.0830
     27 O3          0.3833   -1.1888    4.8225 O.3       1 <0>        -0.5704
     28 O4         -1.4166   -2.1369    2.5351 O.3       1 <0>        -0.5646
     29 H5          1.0764    1.8851    0.0448 H         1 <0>         0.0581
     30 H6         -0.4242    1.8789   -0.9125 H         1 <0>         0.0571
     31 H7         -0.5029    1.8754    0.8657 H         1 <0>         0.0608
     32 H8         -1.9566   -0.0961   -0.7578 H         1 <0>         0.0622
     33 H9         -1.3910   -1.6059   -0.0036 H         1 <0>         0.0714
     34 H10        -2.0319    0.9887    1.4885 H         1 <0>         0.0736
     35 H11        -3.0458   -0.4531    1.4215 H         1 <0>         0.0589
     36 H12         2.4249    0.8974    1.1806 H         1 <0>         0.0647
     37 H13         2.8795   -0.6491    1.9186 H         1 <0>         0.0605
     38 H14         3.9969   -0.3105   -0.2686 H         1 <0>         0.0612
     39 H15         2.9097   -1.7236   -0.3037 H         1 <0>         0.0658
     40 H16         1.0855   -2.4583   -0.4407 H         1 <0>         0.0656
     41 H17        -0.3894   -2.3441   -1.4097 H         1 <0>         0.0638
     42 H18         2.4733   -2.6120   -2.3584 H         1 <0>         0.0711
     43 H19         1.0986   -3.6727   -2.6533 H         1 <0>         0.0628
     44 H20         3.1914    0.5850   -3.1375 H         1 <0>         0.0600
     45 H21         3.2044   -1.1630   -2.8329 H         1 <0>         0.0736
     46 H22        -0.8004   -0.4149   -2.8519 H         1 <0>         0.0837
     47 H23         0.0558    1.1339   -2.5766 H         1 <0>         0.0667
     48 H24         1.7318   -1.8398   -5.8924 H         1 <0>         0.0526
     49 H25         3.0185   -2.1762   -4.7094 H         1 <0>         0.0524
     50 H26         2.3375   -4.1503   -5.8691 H         1 <0>         0.3828
     51 H27        -0.4999   -3.0688   -4.3511 H         1 <0>         0.3797
     52 H28         0.2229    1.0468    4.1379 H         1 <0>         0.0661
     53 H29         1.5262    1.2929    2.9508 H         1 <0>         0.0601
     54 H30        -0.1485    1.7321    2.5377 H         1 <0>         0.0589
     55 H31         0.7448   -2.3938    3.1836 H         1 <0>         0.0553
     56 H32         1.9983   -1.1796    3.5340 H         1 <0>         0.0390
     57 H33         0.7642   -1.7749    5.4907 H         1 <0>         0.3766
     58 H34        -2.3368   -2.4243    2.6102 H         1 <0>         0.3734
@<TRIPOS>BOND
     1    1    2 1
     2    1   29 1
     3    1   30 1
     4    1   31 1
     5    2    8 1
     6    2   14 1
     7    2    3 1
     8    3    4 1
     9    3   32 1
    10    3   33 1
    11    4    5 1
    12    4   34 1
    13    4   35 1
    14    5    6 1
    15    5    7 1
    16    5   28 1
    17    7    8 1
    18    7   25 1
    19    7   26 1
    20    8    9 1
    21    8   10 1
    22   10   11 1
    23   10   36 1
    24   10   37 1
    25   11   12 1
    26   11   38 1
    27   11   39 1
    28   12   13 1
    29   12   20 1
    30   12   14 1
    31   14   21 1
    32   14   15 1
    33   15   16 1
    34   15   40 1
    35   15   41 1
    36   16   17 1
    37   16   42 1
    38   16   43 1
    39   17   18 1
    40   17   22 1
    41   17   24 1
    42   18   19 1
    43   18   20 1
    44   18   21 1
    45   20   44 1
    46   20   45 1
    47   21   46 1
    48   21   47 1
    49   22   23 1
    50   22   48 1
    51   22   49 1
    52   23   50 1
    53   24   51 1
    54   25   52 1
    55   25   53 1
    56   25   54 1
    57   26   27 1
    58   26   55 1
    59   26   56 1
    60   27   57 1
    61   28   58 1
@<TRIPOS>MOLECULE
ZINC13600398
   48    50     0     0     0
SMALL
USER_CHARGES
(1R,2S,4aS,10aR)-1,7-bis(hydroxymethyl)-1,4a-dimethyl-2,3,4,9,10,10a-hexahydrophenanthrene-2,6-diol
@<TRIPOS>ATOM
      1 C1         -2.5032    0.6797    1.9710 C.3       1 <0>        -0.1484
      2 C2         -1.9792    2.0912    1.7050 C.3       1 <0>        -0.0031
      3 C3         -2.5682    2.5939    0.3904 C.3       1 <0>        -0.1046
      4 C4         -2.0102    1.7653   -0.7678 C.3       1 <0>        -0.1533
      5 C5         -0.4960    1.9126   -0.8391 C.3       1 <0>         0.1248
      6 H1         -0.2473    2.9587   -1.0473 H         1 <0>         0.0444
      7 C6          0.1859    1.4944    0.4654 C.3       1 <0>        -0.0320
      8 C7         -0.4637    2.1454    1.6648 C.3       1 <0>        -0.0600
      9 H2         -0.1989    3.2333    1.6054 H         1 <0>         0.0639
     10 C8          0.0978    1.6659    3.0012 C.3       1 <0>        -0.1144
     11 C9         -0.2268    2.7275    4.0550 C.3       1 <0>        -0.0807
     12 C10        -1.6350    3.2414    3.9230 C.ar      1 <0>        -0.0825
     13 C11        -2.4568    2.9513    2.8555 C.ar      1 <0>        -0.0500
     14 C12        -3.7502    3.4425    2.8170 C.ar      1 <0>        -0.1400
     15 C13        -4.2282    4.2397    3.8454 C.ar      1 <0>         0.1047
     16 C14        -3.4008    4.5427    4.9165 C.ar      1 <0>        -0.1192
     17 C15        -2.1162    4.0455    4.9518 C.ar      1 <0>        -0.0831
     18 C16        -3.9059    5.4130    6.0387 C.3       1 <0>         0.1240
     19 O1         -2.8754    5.5771    7.0150 O.3       1 <0>        -0.5710
     20 O2         -5.4980    4.7212    3.8026 O.3       1 <0>        -0.4965
     21 C17         0.2293   -0.0295    0.5708 C.3       1 <0>        -0.1339
     22 C18         1.6501    1.9897    0.3778 C.3       1 <0>         0.0796
     23 O3          2.2760    1.4240   -0.7756 O.3       1 <0>        -0.5476
     24 O4          0.0079    1.1063   -1.9099 O.3       1 <0>        -0.5426
     25 H3         -2.0358    0.2824    2.8720 H         1 <0>         0.0610
     26 H4         -3.5842    0.7131    2.1068 H         1 <0>         0.0569
     27 H5         -2.2631    0.0374    1.1237 H         1 <0>         0.0689
     28 H6         -3.6548    2.4954    0.4135 H         1 <0>         0.0709
     29 H7         -2.3046    3.6435    0.2505 H         1 <0>         0.0654
     30 H8         -2.2879    0.7208   -0.6666 H         1 <0>         0.0772
     31 H9         -2.4442    2.1403   -1.7045 H         1 <0>         0.0625
     32 H10        -0.3228    0.7119    3.3005 H         1 <0>         0.0747
     33 H11         1.1852    1.5629    2.9406 H         1 <0>         0.0700
     34 H12         0.4692    3.5599    3.9427 H         1 <0>         0.0755
     35 H13        -0.0977    2.2909    5.0463 H         1 <0>         0.0778
     36 H14        -4.3990    3.2070    1.9870 H         1 <0>         0.1309
     37 H15        -1.4736    4.2817    5.7868 H         1 <0>         0.1348
     38 H16        -4.1899    6.3880    5.6428 H         1 <0>         0.0569
     39 H17        -4.7732    4.9421    6.5016 H         1 <0>         0.0632
     40 H18        -3.1309    6.1274    7.7679 H         1 <0>         0.3850
     41 H19        -5.5786    5.5797    3.3651 H         1 <0>         0.3887
     42 H20         0.6697   -0.3153    1.5260 H         1 <0>         0.0496
     43 H21        -0.7833   -0.4272    0.5040 H         1 <0>         0.0564
     44 H22         0.8325   -0.4329   -0.2426 H         1 <0>         0.0750
     45 H23         1.6618    3.0769    0.3011 H         1 <0>         0.0378
     46 H24         2.1917    1.6827    1.2725 H         1 <0>         0.0445
     47 H25         3.1977    1.6917   -0.8940 H         1 <0>         0.3705
     48 H26        -0.3778    1.3123   -2.7724 H         1 <0>         0.3677
@<TRIPOS>BOND
     1    1    2 1
     2    1   25 1
     3    1   26 1
     4    1   27 1
     5    2    8 1
     6    2   13 1
     7    2    3 1
     8    3    4 1
     9    3   28 1
    10    3   29 1
    11    4    5 1
    12    4   30 1
    13    4   31 1
    14    5    6 1
    15    5    7 1
    16    5   24 1
    17    7    8 1
    18    7   21 1
    19    7   22 1
    20    8    9 1
    21    8   10 1
    22   10   11 1
    23   10   32 1
    24   10   33 1
    25   11   12 1
    26   11   34 1
    27   11   35 1
    28   12   17 ar
    29   12   13 ar
    30   13   14 ar
    31   14   15 ar
    32   14   36 1
    33   15   16 ar
    34   15   20 1
    35   16   17 ar
    36   16   18 1
    37   17   37 1
    38   18   19 1
    39   18   38 1
    40   18   39 1
    41   19   40 1
    42   20   41 1
    43   21   42 1
    44   21   43 1
    45   21   44 1
    46   22   23 1
    47   22   45 1
    48   22   46 1
    49   23   47 1
    50   24   48 1
