@<TRIPOS>MOLECULE
ZINC38140516
   80    84     0     0     0
SMALL
USER_CHARGES

@<TRIPOS>ATOM
      1 C1          1.0496    1.4744   -0.2424 C.3       1 <0>        -0.1544
      2 C2          0.9776   -0.0468   -0.1716 C.3       1 <0>        -0.0344
      3 C3         -0.4414   -0.4320    0.2852 C.3       1 <0>        -0.1100
      4 C4         -0.6897    0.1067    1.6909 C.3       1 <0>        -0.1479
      5 C5          0.2812   -0.5259    2.6789 C.3       1 <0>         0.1192
      6 H1          0.0837   -1.6021    2.7373 H         1 <0>         0.0462
      7 C6          1.7401   -0.3149    2.2727 C.3       1 <0>        -0.0370
      8 C7          1.9789   -0.6323    0.8152 C.3       1 <0>        -0.0576
      9 H2          1.8838   -1.7444    0.7165 H         1 <0>         0.0567
     10 C8          3.3983   -0.3014    0.3539 C.3       1 <0>        -0.1127
     11 C9          3.6415   -1.0889   -0.9453 C.3       1 <0>        -0.1111
     12 C10         2.6563   -0.6599   -2.0262 C.3       1 <0>        -0.0258
     13 C11         1.2136   -0.6828   -1.5431 C.3       1 <0>        -0.0554
     14 H3          0.8926   -1.7402   -1.4417 H         1 <0>         0.0588
     15 C12         0.3116   -0.0483   -2.6021 C.3       1 <0>        -0.0723
     16 C13         0.6022   -0.6520   -3.9456 C.2       1 <0>        -0.1754
     17 C14         1.6958   -1.3013   -4.2436 C.2       1 <0>        -0.0465
     18 C15         2.7840   -1.5827   -3.2502 C.3       1 <0>         0.0076
     19 C16         4.1715   -1.4761   -3.8675 C.3       1 <0>        -0.0993
     20 C17         4.2334   -2.1439   -5.2427 C.3       1 <0>        -0.0860
     21 C18         3.2141   -1.5179   -6.1889 C.3       1 <0>        -0.1131
     22 C19         1.8056   -1.8053   -5.6737 C.3       1 <0>        -0.0179
     23 H4          1.0844   -1.2438   -6.2878 H         1 <0>         0.0687
     24 C20         1.4872   -3.2910   -5.7424 C.3       1 <0>        -0.0990
     25 C21         1.6418   -3.8241   -7.1678 C.3       1 <0>        -0.0627
     26 C22         3.0578   -3.5504   -7.6696 C.3       1 <0>        -0.1012
     27 C23         3.3860   -2.0656   -7.6041 C.3       1 <0>        -0.0919
     28 C24         0.6108   -3.1802   -8.0925 C.3       1 <0>        -0.1396
     29 C25         1.4091   -5.3427   -7.1506 C.3       1 <0>        -0.1397
     30 C26         3.4206   -0.0218   -6.2447 C.2       1 <0>         0.5073
     31 O1          4.4867    0.4328   -6.6234 O.co2     1 <0>        -0.7086
     32 O2          2.5212    0.7307   -5.9109 O.co2     1 <0>        -0.6827
     33 C27         2.6055   -3.0264   -2.7623 C.3       1 <0>        -0.1509
     34 C28         3.0344    0.7562   -2.4903 C.3       1 <0>        -0.1529
     35 C29         2.5744   -1.3054    3.1239 C.3       1 <0>        -0.1461
     36 C30         2.1912    1.0937    2.6572 C.3       1 <0>        -0.1324
     37 O3          0.0720    0.0412    3.9783 O.3       1 <0>        -0.5663
     38 H5          2.0840    1.7824   -0.3946 H         1 <0>         0.0654
     39 H6          0.4390    1.8287   -1.0729 H         1 <0>         0.0591
     40 H7          0.6772    1.8995    0.6896 H         1 <0>         0.0551
     41 H8         -1.1651   -0.0028   -0.4063 H         1 <0>         0.0681
     42 H9         -0.5304   -1.5174    0.2840 H         1 <0>         0.0591
     43 H10        -0.6146    1.1895    1.7190 H         1 <0>         0.0756
     44 H11        -1.7152   -0.1601    1.9877 H         1 <0>         0.0527
     45 H12         3.5355    0.7555    0.1833 H         1 <0>         0.0698
     46 H13         4.1252   -0.6437    1.0936 H         1 <0>         0.0562
     47 H14         4.6626   -0.8894   -1.2809 H         1 <0>         0.0598
     48 H15         3.5506   -2.1435   -0.6978 H         1 <0>         0.0615
     49 H16        -0.7358   -0.2597   -2.3499 H         1 <0>         0.0505
     50 H17         0.4350    1.0275   -2.6637 H         1 <0>         0.0736
     51 H18        -0.1434   -0.5441   -4.7229 H         1 <0>         0.0900
     52 H19         4.5381   -0.4615   -3.9450 H         1 <0>         0.0747
     53 H20         4.8786   -2.0149   -3.2085 H         1 <0>         0.0379
     54 H21         5.2371   -2.0027   -5.6578 H         1 <0>         0.0520
     55 H22         4.0472   -3.2116   -5.1475 H         1 <0>         0.0448
     56 H23         2.1681   -3.8584   -5.1047 H         1 <0>         0.0615
     57 H24         0.4628   -3.4656   -5.4046 H         1 <0>         0.0491
     58 H25         3.7720   -4.1106   -7.0604 H         1 <0>         0.0548
     59 H26         3.1439   -3.8952   -8.7049 H         1 <0>         0.0481
     60 H27         2.7473   -1.5053   -8.2880 H         1 <0>         0.0507
     61 H28         4.4266   -1.9146   -7.9138 H         1 <0>         0.0570
     62 H29         0.7544   -2.0997   -8.1004 H         1 <0>         0.0623
     63 H30         0.7347   -3.5705   -9.1026 H         1 <0>         0.0466
     64 H31        -0.3926   -3.4107   -7.7344 H         1 <0>         0.0478
     65 H32         0.4047   -5.5522   -6.7827 H         1 <0>         0.0490
     66 H33         1.5159   -5.7381   -8.1607 H         1 <0>         0.0486
     67 H34         2.1417   -5.8150   -6.4961 H         1 <0>         0.0496
     68 H35         1.5831   -3.1677   -2.4120 H         1 <0>         0.0497
     69 H36         2.8068   -3.7148   -3.5830 H         1 <0>         0.0574
     70 H37         3.2999   -3.2222   -1.9452 H         1 <0>         0.0536
     71 H38         4.0220    0.7360   -2.9511 H         1 <0>         0.0541
     72 H39         2.3017    1.1083   -3.2165 H         1 <0>         0.0769
     73 H40         3.0474    1.4284   -1.6323 H         1 <0>         0.0461
     74 H41         2.2528   -2.3255    2.9138 H         1 <0>         0.0476
     75 H42         3.6302   -1.1987    2.8748 H         1 <0>         0.0558
     76 H43         2.4271   -1.0887    4.1820 H         1 <0>         0.0574
     77 H44         2.2161    1.1834    3.7433 H         1 <0>         0.0562
     78 H45         3.1870    1.2789    2.2545 H         1 <0>         0.0526
     79 H46         1.4923    1.8233    2.2483 H         1 <0>         0.0566
     80 H47        -0.8199   -0.0929    4.3270 H         1 <0>         0.3711
@<TRIPOS>BOND
     1    1    2 1
     2    1   38 1
     3    1   39 1
     4    1   40 1
     5    2    8 1
     6    2   13 1
     7    2    3 1
     8    3    4 1
     9    3   41 1
    10    3   42 1
    11    4    5 1
    12    4   43 1
    13    4   44 1
    14    5    6 1
    15    5    7 1
    16    5   37 1
    17    7    8 1
    18    7   35 1
    19    7   36 1
    20    8    9 1
    21    8   10 1
    22   10   11 1
    23   10   45 1
    24   10   46 1
    25   11   12 1
    26   11   47 1
    27   11   48 1
    28   12   18 1
    29   12   13 1
    30   12   34 1
    31   13   14 1
    32   13   15 1
    33   15   16 1
    34   15   49 1
    35   15   50 1
    36   16   17 2
    37   16   51 1
    38   17   22 1
    39   17   18 1
    40   18   19 1
    41   18   33 1
    42   19   20 1
    43   19   52 1
    44   19   53 1
    45   20   21 1
    46   20   54 1
    47   20   55 1
    48   21   27 1
    49   21   22 1
    50   21   30 1
    51   22   23 1
    52   22   24 1
    53   24   25 1
    54   24   56 1
    55   24   57 1
    56   25   26 1
    57   25   28 1
    58   25   29 1
    59   26   27 1
    60   26   58 1
    61   26   59 1
    62   27   60 1
    63   27   61 1
    64   28   62 1
    65   28   63 1
    66   28   64 1
    67   29   65 1
    68   29   66 1
    69   29   67 1
    70   30   31 2
    71   30   32 1
    72   33   68 1
    73   33   69 1
    74   33   70 1
    75   34   71 1
    76   34   72 1
    77   34   73 1
    78   35   74 1
    79   35   75 1
    80   35   76 1
    81   36   77 1
    82   36   78 1
    83   36   79 1
    84   37   80 1
@<TRIPOS>MOLECULE
ZINC03978827
   80    84     0     0     0
SMALL
USER_CHARGES

@<TRIPOS>ATOM
      1 C1         -2.2499    1.7395    1.5965 C.3       1 <0>        -0.1448
      2 C2         -2.3630    0.2147    1.6179 C.3       1 <0>        -0.0886
      3 H1         -2.1511   -0.1868    0.6297 H         1 <0>         0.0647
      4 C3         -3.7754   -0.1882    2.0495 C.3       1 <0>        -0.1142
      5 C4         -3.8831   -1.7109    2.0243 C.3       1 <0>        -0.0863
      6 C5         -2.8712   -2.3453    2.9771 C.3       1 <0>        -0.1168
      7 C6         -3.2034   -1.9924    4.4220 C.3       1 <0>        -0.0858
      8 C7         -2.2907   -2.7490    5.3888 C.3       1 <0>        -0.0975
      9 C8         -0.8207   -2.4481    5.1311 C.3       1 <0>         0.0200
     10 C9         -0.4927   -2.4623    3.6663 C.2       1 <0>        -0.0271
     11 C10         0.6115   -2.9748    3.1888 C.2       1 <0>        -0.1945
     12 C11         1.6871   -3.6146    4.0173 C.3       1 <0>        -0.0682
     13 C12         1.5217   -3.2085    5.4824 C.3       1 <0>        -0.0549
     14 H2          1.7443   -2.1224    5.5395 H         1 <0>         0.0556
     15 C13         0.0772   -3.4243    5.9096 C.3       1 <0>        -0.0252
     16 C14        -0.1263   -3.2338    7.4071 C.3       1 <0>        -0.1101
     17 C15         0.9033   -4.0493    8.2060 C.3       1 <0>        -0.1119
     18 C16         2.2898   -3.5411    7.8160 C.3       1 <0>        -0.0569
     19 H3          2.2178   -2.4232    7.8479 H         1 <0>         0.0555
     20 C17         2.5695   -3.8926    6.3613 C.3       1 <0>        -0.0335
     21 C18         3.9485   -3.3245    5.9787 C.3       1 <0>        -0.1101
     22 C19         5.0165   -3.9216    6.8907 C.3       1 <0>        -0.1478
     23 C20         4.7602   -3.5214    8.3374 C.3       1 <0>         0.1195
     24 H4          4.8674   -2.4352    8.4331 H         1 <0>         0.0460
     25 C21         3.3625   -3.9218    8.8099 C.3       1 <0>        -0.0368
     26 C22         3.3394   -5.4064    9.1716 C.3       1 <0>        -0.1352
     27 C23         3.1067   -3.1345   10.1199 C.3       1 <0>        -0.1462
     28 O1          5.7353   -4.1464    9.1809 O.3       1 <0>        -0.5663
     29 C24         2.6012   -5.3981    6.1216 C.3       1 <0>        -0.1547
     30 C25        -0.3721   -4.8467    5.5369 C.3       1 <0>        -0.1382
     31 C26        -1.4543   -1.8772    2.6495 C.3       1 <0>        -0.0155
     32 H5         -1.1832   -2.2584    1.6510 H         1 <0>         0.0546
     33 C27        -1.3629   -0.3562    2.6314 C.3       1 <0>        -0.0770
     34 H6         -1.6059    0.0562    3.6092 H         1 <0>         0.0715
     35 C28         0.0468    0.0829    2.2258 C.3       1 <0>        -0.1463
     36 C29        -0.5399   -1.0348    5.6568 C.3       1 <0>        -0.1536
     37 C30        -2.9445   -3.8442    2.7896 C.2       1 <0>         0.4993
     38 O2         -3.7239   -4.3202    1.9818 O.co2     1 <0>        -0.7070
     39 O3         -2.2243   -4.5767    3.4463 O.co2     1 <0>        -0.6696
     40 H7         -1.2399    2.0248    1.3019 H         1 <0>         0.0532
     41 H8         -2.9654    2.1470    0.8823 H         1 <0>         0.0474
     42 H9         -2.4636    2.1337    2.5900 H         1 <0>         0.0494
     43 H10        -3.9698    0.1803    3.0558 H         1 <0>         0.0549
     44 H11        -4.5022    0.2419    1.3592 H         1 <0>         0.0487
     45 H12        -4.8906   -2.0096    2.3196 H         1 <0>         0.0523
     46 H13        -3.6916   -2.0691    1.0098 H         1 <0>         0.0574
     47 H14        -3.1028   -0.9193    4.5760 H         1 <0>         0.0430
     48 H15        -4.2426   -2.2738    4.6258 H         1 <0>         0.0414
     49 H16        -2.5347   -2.4030    6.4107 H         1 <0>         0.0259
     50 H17        -2.5341   -3.8025    5.3536 H         1 <0>         0.0990
     51 H18         0.7546   -2.9368    2.1160 H         1 <0>         0.0852
     52 H19         1.6485   -4.6899    3.8782 H         1 <0>         0.0722
     53 H20         2.6596   -3.2560    3.6562 H         1 <0>         0.0490
     54 H21        -0.0128   -2.1972    7.7151 H         1 <0>         0.0590
     55 H22        -1.1267   -3.5776    7.6859 H         1 <0>         0.0595
     56 H23         0.7201   -3.8720    9.2680 H         1 <0>         0.0543
     57 H24         0.7855   -5.1037    8.0015 H         1 <0>         0.0688
     58 H25         4.1631   -3.5839    4.9433 H         1 <0>         0.0672
     59 H26         3.9302   -2.2417    6.0898 H         1 <0>         0.0588
     60 H27         5.0618   -5.0017    6.7929 H         1 <0>         0.0755
     61 H28         5.9952   -3.5229    6.5845 H         1 <0>         0.0520
     62 H29         3.6150   -5.9975    8.2982 H         1 <0>         0.0582
     63 H30         4.0494   -5.5953    9.9768 H         1 <0>         0.0579
     64 H31         2.3375   -5.6854    9.4977 H         1 <0>         0.0518
     65 H32         2.1229   -3.3919   10.5123 H         1 <0>         0.0557
     66 H33         3.8698   -3.3932   10.8541 H         1 <0>         0.0571
     67 H34         3.1476   -2.0648    9.9148 H         1 <0>         0.0475
     68 H35         6.6482   -3.9040    8.9733 H         1 <0>         0.3709
     69 H36         2.6560   -5.5945    5.0508 H         1 <0>         0.0577
     70 H37         3.4740   -5.8262    6.6146 H         1 <0>         0.0548
     71 H38         1.6963   -5.8499    6.5280 H         1 <0>         0.0675
     72 H39        -0.1640   -5.0289    4.4826 H         1 <0>         0.0772
     73 H40         0.1712   -5.5703    6.1448 H         1 <0>         0.0333
     74 H41        -1.4418   -4.9494    5.7192 H         1 <0>         0.0634
     75 H42         0.1016    1.1715    2.2228 H         1 <0>         0.0481
     76 H43         0.7702   -0.3153    2.9372 H         1 <0>         0.0561
     77 H44         0.2722   -0.2949    1.2285 H         1 <0>         0.0471
     78 H45        -0.6486   -1.0223    6.7413 H         1 <0>         0.0530
     79 H46         0.4759   -0.7431    5.3901 H         1 <0>         0.0476
     80 H47        -1.2475   -0.3347    5.2127 H         1 <0>         0.0547
@<TRIPOS>BOND
     1    1    2 1
     2    1   40 1
     3    1   41 1
     4    1   42 1
     5    2    3 1
     6    2   33 1
     7    2    4 1
     8    4    5 1
     9    4   43 1
    10    4   44 1
    11    5    6 1
    12    5   45 1
    13    5   46 1
    14    6   31 1
    15    6    7 1
    16    6   37 1
    17    7    8 1
    18    7   47 1
    19    7   48 1
    20    8    9 1
    21    8   49 1
    22    8   50 1
    23    9   15 1
    24    9   10 1
    25    9   36 1
    26   10   11 2
    27   10   31 1
    28   11   12 1
    29   11   51 1
    30   12   13 1
    31   12   52 1
    32   12   53 1
    33   13   14 1
    34   13   20 1
    35   13   15 1
    36   15   16 1
    37   15   30 1
    38   16   17 1
    39   16   54 1
    40   16   55 1
    41   17   18 1
    42   17   56 1
    43   17   57 1
    44   18   19 1
    45   18   25 1
    46   18   20 1
    47   20   21 1
    48   20   29 1
    49   21   22 1
    50   21   58 1
    51   21   59 1
    52   22   23 1
    53   22   60 1
    54   22   61 1
    55   23   24 1
    56   23   25 1
    57   23   28 1
    58   25   26 1
    59   25   27 1
    60   26   62 1
    61   26   63 1
    62   26   64 1
    63   27   65 1
    64   27   66 1
    65   27   67 1
    66   28   68 1
    67   29   69 1
    68   29   70 1
    69   29   71 1
    70   30   72 1
    71   30   73 1
    72   30   74 1
    73   31   32 1
    74   31   33 1
    75   33   34 1
    76   33   35 1
    77   35   75 1
    78   35   76 1
    79   35   77 1
    80   36   78 1
    81   36   79 1
    82   36   80 1
    83   37   38 2
    84   37   39 1
@<TRIPOS>MOLECULE
ZINC04097714
   80    84     0     0     0
SMALL
USER_CHARGES

@<TRIPOS>ATOM
      1 C1         -0.1519    1.9684   -3.2118 C.3       1 <0>        -0.1182
      2 C2         -0.0298    0.4664   -3.1991 C.2       1 <0>        -0.0929
      3 C3          0.5261   -0.1369   -2.1778 C.2       1 <0>        -0.2195
      4 C4         -0.5480   -0.3429   -4.3633 C.3       1 <0>        -0.0495
      5 H1         -0.3705   -1.4031   -4.1994 H         1 <0>         0.0705
      6 C5          0.1422    0.1323   -5.6696 C.3       1 <0>        -0.1004
      7 C6         -0.9994    0.6354   -6.5961 C.3       1 <0>        -0.0975
      8 C7         -2.1948   -0.2070   -6.1114 C.3       1 <0>        -0.1318
      9 C8         -2.0366   -0.0732   -4.5751 C.3       1 <0>        -0.0514
     10 H2         -2.2311    0.9648   -4.2844 H         1 <0>         0.0550
     11 C9         -3.0213   -0.9986   -3.8994 C.3       1 <0>        -0.0648
     12 H3         -2.8282   -2.0240   -4.2355 H         1 <0>         0.1045
     13 C10        -2.8570   -0.9826   -2.3816 C.3       1 <0>        -0.1115
     14 C11        -3.8808   -1.9142   -1.7221 C.3       1 <0>        -0.1102
     15 C12        -5.2907   -1.5109   -2.1369 C.3       1 <0>        -0.0563
     16 H4         -5.4281   -0.4608   -1.7957 H         1 <0>         0.0549
     17 C13        -6.3580   -2.2900   -1.3611 C.3       1 <0>        -0.0353
     18 C14        -6.2202   -1.9136    0.1275 C.3       1 <0>        -0.1108
     19 C15        -7.3255   -2.5984    0.9265 C.3       1 <0>        -0.1485
     20 C16        -8.6922   -2.1042    0.4748 C.3       1 <0>         0.1193
     21 H5         -8.7745   -1.0344    0.6977 H         1 <0>         0.0457
     22 C17        -8.9087   -2.3073   -1.0262 C.3       1 <0>        -0.0373
     23 C18        -7.7278   -1.8274   -1.8382 C.3       1 <0>        -0.0568
     24 H6         -7.7166   -0.7098   -1.7311 H         1 <0>         0.0538
     25 C19        -7.8794   -2.0850   -3.3364 C.3       1 <0>        -0.1121
     26 C20        -6.8708   -1.1851   -4.0678 C.3       1 <0>        -0.1102
     27 C21        -5.4469   -1.5545   -3.6483 C.3       1 <0>        -0.0258
     28 C22        -4.4451   -0.5767   -4.2871 C.3       1 <0>        -0.0145
     29 C23        -4.6332   -0.5331   -5.7992 C.3       1 <0>        -0.1037
     30 C24        -3.5603    0.3202   -6.4912 C.3       1 <0>        -0.0810
     31 C25        -4.7157    0.8383   -3.7596 C.3       1 <0>        -0.1514
     32 C26        -5.1440   -2.9532   -4.2107 C.3       1 <0>        -0.1436
     33 C27       -10.1398   -1.4488   -1.4093 C.3       1 <0>        -0.1460
     34 C28        -9.2720   -3.7648   -1.3060 C.3       1 <0>        -0.1326
     35 O1         -9.7159   -2.8020    1.1935 O.3       1 <0>        -0.5651
     36 C29        -6.1474   -3.7927   -1.4812 C.3       1 <0>        -0.1516
     37 C30        -2.0102   -1.6234   -6.5877 C.2       1 <0>         0.5118
     38 O2         -1.0408   -1.9169   -7.2663 O.co2     1 <0>        -0.6990
     39 O3         -2.8303   -2.4768   -6.2948 O.co2     1 <0>        -0.6812
     40 H7          0.7361    2.4013   -3.6724 H         1 <0>         0.0624
     41 H8         -1.0345    2.2563   -3.7830 H         1 <0>         0.0658
     42 H9         -0.2457    2.3340   -2.1892 H         1 <0>         0.0552
     43 H10         0.8968    0.4421   -1.3449 H         1 <0>         0.0875
     44 H11         0.6136   -1.2133   -2.1687 H         1 <0>         0.0926
     45 H12         0.8317    0.9471   -5.4496 H         1 <0>         0.0428
     46 H13         0.6733   -0.6948   -6.1363 H         1 <0>         0.0743
     47 H14        -1.1971    1.6929   -6.4387 H         1 <0>         0.0392
     48 H15        -0.7784    0.4182   -7.6395 H         1 <0>         0.0656
     49 H16        -1.8545   -1.3483   -2.1293 H         1 <0>         0.0515
     50 H17        -2.9651    0.0226   -1.9863 H         1 <0>         0.0489
     51 H18        -3.6562   -2.9399   -2.0004 H         1 <0>         0.0640
     52 H19        -3.7833   -1.8160   -0.6351 H         1 <0>         0.0484
     53 H20        -5.2496   -2.2458    0.4879 H         1 <0>         0.0675
     54 H21        -6.3059   -0.8336    0.2279 H         1 <0>         0.0586
     55 H22        -7.2574   -3.6795    0.8503 H         1 <0>         0.0754
     56 H23        -7.1929   -2.3418    1.9886 H         1 <0>         0.0511
     57 H24        -7.7063   -3.1235   -3.5816 H         1 <0>         0.0694
     58 H25        -8.8811   -1.8050   -3.6675 H         1 <0>         0.0546
     59 H26        -6.9836   -1.3317   -5.1425 H         1 <0>         0.0635
     60 H27        -7.0895   -0.1516   -3.8131 H         1 <0>         0.0559
     61 H28        -4.6428   -1.5269   -6.2269 H         1 <0>         0.1013
     62 H29        -5.6107   -0.0760   -6.0074 H         1 <0>         0.0278
     63 H30        -3.6580    1.3670   -6.2051 H         1 <0>         0.0392
     64 H31        -3.6868    0.2471   -7.5770 H         1 <0>         0.0413
     65 H32        -3.9977    1.5324   -4.1964 H         1 <0>         0.0512
     66 H33        -5.7264    1.1410   -4.0333 H         1 <0>         0.0442
     67 H34        -4.6153    0.8468   -2.6743 H         1 <0>         0.0494
     68 H35        -5.9240   -3.6473   -3.8979 H         1 <0>         0.0427
     69 H36        -5.1129   -2.9081   -5.2993 H         1 <0>         0.0729
     70 H37        -4.1803   -3.2956   -3.8335 H         1 <0>         0.0571
     71 H38        -9.9379   -0.4022   -1.1818 H         1 <0>         0.0473
     72 H39       -10.3405   -1.5568   -2.4753 H         1 <0>         0.0564
     73 H40       -11.0074   -1.7835   -0.8406 H         1 <0>         0.0573
     74 H41       -10.2452   -3.9871   -0.8684 H         1 <0>         0.0560
     75 H42        -9.3117   -3.9290   -2.3828 H         1 <0>         0.0525
     76 H43        -8.5181   -4.4179   -0.8665 H         1 <0>         0.0567
     77 H44        -9.6734   -2.6842    2.1523 H         1 <0>         0.3710
     78 H45        -5.0961   -4.0268   -1.3133 H         1 <0>         0.0564
     79 H46        -6.7571   -4.3056   -0.7374 H         1 <0>         0.0532
     80 H47        -6.4381   -4.1217   -2.4789 H         1 <0>         0.0669
@<TRIPOS>BOND
     1    1    2 1
     2    1   40 1
     3    1   41 1
     4    1   42 1
     5    2    3 2
     6    2    4 1
     7    3   43 1
     8    3   44 1
     9    4    5 1
    10    4    9 1
    11    4    6 1
    12    6    7 1
    13    6   45 1
    14    6   46 1
    15    7    8 1
    16    7   47 1
    17    7   48 1
    18    8   30 1
    19    8    9 1
    20    8   37 1
    21    9   10 1
    22    9   11 1
    23   11   12 1
    24   11   28 1
    25   11   13 1
    26   13   14 1
    27   13   49 1
    28   13   50 1
    29   14   15 1
    30   14   51 1
    31   14   52 1
    32   15   16 1
    33   15   27 1
    34   15   17 1
    35   17   23 1
    36   17   18 1
    37   17   36 1
    38   18   19 1
    39   18   53 1
    40   18   54 1
    41   19   20 1
    42   19   55 1
    43   19   56 1
    44   20   21 1
    45   20   22 1
    46   20   35 1
    47   22   23 1
    48   22   33 1
    49   22   34 1
    50   23   24 1
    51   23   25 1
    52   25   26 1
    53   25   57 1
    54   25   58 1
    55   26   27 1
    56   26   59 1
    57   26   60 1
    58   27   28 1
    59   27   32 1
    60   28   29 1
    61   28   31 1
    62   29   30 1
    63   29   61 1
    64   29   62 1
    65   30   63 1
    66   30   64 1
    67   31   65 1
    68   31   66 1
    69   31   67 1
    70   32   68 1
    71   32   69 1
    72   32   70 1
    73   33   71 1
    74   33   72 1
    75   33   73 1
    76   34   74 1
    77   34   75 1
    78   34   76 1
    79   35   77 1
    80   36   78 1
    81   36   79 1
    82   36   80 1
    83   37   38 2
    84   37   39 1
@<TRIPOS>MOLECULE
ZINC04532033
   66    69     0     0     0
SMALL
USER_CHARGES
4-(3-hydroxy-10,13-dimethyl-2,3,4,5,6,7,8,9,11,12,14,15,16,17-tetradecahydro-1H-cyclopenta[a]phenanthren-17-yl)pentanoic acid
@<TRIPOS>ATOM
      1 C1          1.9872    0.1068   -1.1461 C.3       1 <0>        -0.1516
      2 C2          0.6063   -0.5464   -1.2319 C.3       1 <0>        -0.0900
      3 H1          0.0995   -0.2075   -2.1354 H         1 <0>         0.0735
      4 C3         -0.2206   -0.1541   -0.0058 C.3       1 <0>        -0.0930
      5 C4         -0.4836    1.3529   -0.0289 C.3       1 <0>        -0.1571
      6 C5         -1.2980    1.7393    1.1787 C.2       1 <0>         0.4566
      7 O1         -1.6336    0.8959    1.9761 O.co2     1 <0>        -0.6429
      8 C6          0.7632   -2.0644   -1.2754 C.3       1 <0>        -0.0750
      9 H2          1.3619   -2.4245   -0.4476 H         1 <0>         0.0681
     10 C7         -0.6229   -2.7545   -1.3012 C.3       1 <0>        -0.1218
     11 C8         -0.5590   -3.8311   -2.4192 C.3       1 <0>        -0.1151
     12 C9          0.9459   -3.9525   -2.6987 C.3       1 <0>        -0.0733
     13 H3          1.3969   -4.5115   -1.8502 H         1 <0>         0.0622
     14 C10         1.4097   -2.4847   -2.6145 C.3       1 <0>        -0.0493
     15 C11         2.9143   -2.3860   -2.6328 C.3       1 <0>        -0.1042
     16 C12         3.5271   -3.4654   -3.5363 C.3       1 <0>        -0.1055
     17 C13         2.5448   -3.9075   -4.6112 C.3       1 <0>        -0.0708
     18 H4          2.1940   -3.0365   -5.1654 H         1 <0>         0.0787
     19 C14         1.3532   -4.6233   -3.9742 C.3       1 <0>        -0.0649
     20 H5          1.7001   -5.6412   -3.7035 H         1 <0>         0.0569
     21 C15         0.2280   -4.7947   -4.9861 C.3       1 <0>        -0.1096
     22 C16         0.8192   -5.3149   -6.3081 C.3       1 <0>        -0.1112
     23 C17         2.1852   -5.9169   -6.0181 C.3       1 <0>        -0.0748
     24 H6          2.0742   -6.5843   -5.1472 H         1 <0>         0.0675
     25 C18         3.1921   -4.8284   -5.6432 C.3       1 <0>        -0.0485
     26 C19         4.4630   -5.4925   -5.1274 C.3       1 <0>        -0.1016
     27 C20         5.0433   -6.4033   -6.2142 C.3       1 <0>        -0.1509
     28 C21         4.0243   -7.4402   -6.6755 C.3       1 <0>         0.1073
     29 H7          3.7941   -8.1117   -5.8465 H         1 <0>         0.0499
     30 C22         2.7305   -6.7703   -7.1535 C.3       1 <0>        -0.1042
     31 O2          4.5811   -8.2031   -7.7497 O.3       1 <0>        -0.5717
     32 C23         3.5297   -3.9741   -6.8679 C.3       1 <0>        -0.1459
     33 C24         0.7873   -1.6074   -3.7017 C.3       1 <0>        -0.1450
     34 H8          2.5314   -0.0709   -2.0736 H         1 <0>         0.0533
     35 H9          1.8726    1.1797   -0.9918 H         1 <0>         0.0560
     36 H10         2.5412   -0.3232   -0.3116 H         1 <0>         0.0485
     37 H11         0.3274   -0.4135    0.9001 H         1 <0>         0.0554
     38 H12        -1.1702   -0.6890   -0.0217 H         1 <0>         0.0604
     39 H13         0.4661    1.8877   -0.0130 H         1 <0>         0.0628
     40 H14        -1.0315    1.6123   -0.9348 H         1 <0>         0.0587
     41 H15        -0.8241   -3.2263   -0.3401 H         1 <0>         0.0606
     42 H16        -1.3994   -2.0251   -1.5301 H         1 <0>         0.0677
     43 H17        -0.9536   -4.7813   -2.0509 H         1 <0>         0.0553
     44 H18        -1.1075   -3.5131   -3.3008 H         1 <0>         0.0676
     45 H19         3.3038   -2.5052   -1.6132 H         1 <0>         0.0593
     46 H20         3.2166   -1.3953   -2.9939 H         1 <0>         0.0634
     47 H21         3.8117   -4.3269   -2.9248 H         1 <0>         0.0563
     48 H22         4.4301   -3.0657   -4.0077 H         1 <0>         0.0570
     49 H23        -0.4962   -5.5174   -4.6115 H         1 <0>         0.0606
     50 H24        -0.2641   -3.8420   -5.1669 H         1 <0>         0.0658
     51 H25         0.8938   -4.5001   -7.0222 H         1 <0>         0.0645
     52 H26         0.1590   -6.0883   -6.7108 H         1 <0>         0.0589
     53 H27         5.1980   -4.7265   -4.8658 H         1 <0>         0.0691
     54 H28         4.2344   -6.0830   -4.2369 H         1 <0>         0.0625
     55 H29         5.9124   -6.9309   -5.7992 H         1 <0>         0.0558
     56 H30         5.3875   -5.8184   -7.0640 H         1 <0>         0.0721
     57 H31         1.9981   -7.5516   -7.3931 H         1 <0>         0.0625
     58 H32         2.9121   -6.1845   -8.0462 H         1 <0>         0.0731
     59 H33         5.4040   -8.6581   -7.5238 H         1 <0>         0.3753
     60 H34         4.2182   -3.1802   -6.5784 H         1 <0>         0.0532
     61 H35         3.9955   -4.5991   -7.6297 H         1 <0>         0.0564
     62 H36         2.6157   -3.5346   -7.2674 H         1 <0>         0.0557
     63 H37         1.1111   -0.5755   -3.5655 H         1 <0>         0.0604
     64 H38         1.1065   -1.9620   -4.6817 H         1 <0>         0.0531
     65 H39        -0.2993   -1.6593   -3.6327 H         1 <0>         0.0572
     66 O3         -1.6505    3.0205    1.3686 O.co2     1 <0>        -0.7813
@<TRIPOS>BOND
     1    1    2 1
     2    1   34 1
     3    1   35 1
     4    1   36 1
     5    2    3 1
     6    2    4 1
     7    2    8 1
     8    4    5 1
     9    4   37 1
    10    4   38 1
    11    5    6 1
    12    5   39 1
    13    5   40 1
    14    6    7 2
    15    6   66 1
    16    8    9 1
    17    8   14 1
    18    8   10 1
    19   10   11 1
    20   10   41 1
    21   10   42 1
    22   11   12 1
    23   11   43 1
    24   11   44 1
    25   12   13 1
    26   12   19 1
    27   12   14 1
    28   14   15 1
    29   14   33 1
    30   15   16 1
    31   15   45 1
    32   15   46 1
    33   16   17 1
    34   16   47 1
    35   16   48 1
    36   17   18 1
    37   17   25 1
    38   17   19 1
    39   19   20 1
    40   19   21 1
    41   21   22 1
    42   21   49 1
    43   21   50 1
    44   22   23 1
    45   22   51 1
    46   22   52 1
    47   23   24 1
    48   23   30 1
    49   23   25 1
    50   25   26 1
    51   25   32 1
    52   26   27 1
    53   26   53 1
    54   26   54 1
    55   27   28 1
    56   27   55 1
    57   27   56 1
    58   28   29 1
    59   28   30 1
    60   28   31 1
    61   30   57 1
    62   30   58 1
    63   31   59 1
    64   32   60 1
    65   32   61 1
    66   32   62 1
    67   33   63 1
    68   33   64 1
    69   33   65 1
@<TRIPOS>MOLECULE
ZINC39941999
   66    69     0     0     0
SMALL
USER_CHARGES

@<TRIPOS>ATOM
      1 C1          0.1776    1.5127    0.1002 C.3       1 <0>        -0.1515
      2 C2          0.0021   -0.0041    0.0020 C.3       1 <0>        -0.0890
      3 H1         -1.0595   -0.2496    0.0309 H         1 <0>         0.0680
      4 C3          0.7133   -0.6769    1.1777 C.3       1 <0>        -0.0857
      5 C4          0.0293   -0.2742    2.4857 C.3       1 <0>        -0.1830
      6 C5          0.7298   -0.9369    3.6437 C.2       1 <0>         0.4869
      7 O1          1.6874   -1.6640    3.4416 O.co2     1 <0>        -0.7001
      8 O2          0.3390   -0.7460    4.7827 O.co2     1 <0>        -0.7113
      9 C6          0.6055   -0.5033   -1.3124 C.3       1 <0>        -0.0684
     10 H2          1.6562   -0.2219   -1.3824 H         1 <0>         0.0719
     11 C7          0.4422   -2.0356   -1.4394 C.3       1 <0>        -0.1200
     12 C8          0.1194   -2.3224   -2.9178 C.3       1 <0>        -0.1222
     13 C9          0.1448   -0.9501   -3.6429 C.3       1 <0>        -0.0722
     14 H3         -0.5838   -0.9028   -4.4522 H         1 <0>         0.0710
     15 C10        -0.1844    0.0457   -2.5149 C.3       1 <0>        -0.0474
     16 C11         0.1775    1.4735   -2.8457 C.3       1 <0>        -0.1211
     17 C12         1.6314    1.5897   -3.3009 C.3       1 <0>        -0.1163
     18 C13         1.8213    0.7070   -4.5408 C.3       1 <0>        -0.0687
     19 H4          1.1093    0.9993   -5.3126 H         1 <0>         0.0671
     20 C14         1.5749   -0.7532   -4.1539 C.3       1 <0>        -0.0723
     21 H5          2.2785   -1.0296   -3.3687 H         1 <0>         0.0748
     22 C15         1.8050   -1.6666   -5.3602 C.3       1 <0>        -0.1145
     23 C16         3.2430   -1.5119   -5.8564 C.3       1 <0>        -0.1127
     24 C17         3.9738   -0.4819   -4.9924 C.3       1 <0>        -0.0747
     25 H6          3.9915   -0.8225   -3.9571 H         1 <0>         0.0757
     26 C18         3.2500    0.8871   -5.0617 C.3       1 <0>        -0.0475
     27 C19         3.9703    1.9346   -4.2102 C.3       1 <0>        -0.1080
     28 C20         5.4003    2.1150   -4.7228 C.3       1 <0>        -0.1524
     29 C21         6.1462    0.7823   -4.6287 C.3       1 <0>         0.1004
     30 H7          6.1684    0.4506   -3.5906 H         1 <0>         0.0531
     31 C22         5.4075   -0.3191   -5.5011 C.3       1 <0>        -0.1037
     32 O3          7.4834    0.9500   -5.1041 O.3       1 <0>        -0.5717
     33 C23         3.2071    1.3542   -6.5180 C.3       1 <0>        -0.1452
     34 C24        -1.6815   -0.0231   -2.2069 C.3       1 <0>        -0.1448
     35 H8          1.1742    1.7863   -0.2461 H         1 <0>         0.0507
     36 H9         -0.5707    2.0059   -0.5201 H         1 <0>         0.0530
     37 H10         0.0543    1.8263    1.1368 H         1 <0>         0.0576
     38 H11         0.6644   -1.7595    1.0605 H         1 <0>         0.0585
     39 H12         1.7562   -0.3607    1.2007 H         1 <0>         0.0543
     40 H13         0.0782    0.8084    2.6029 H         1 <0>         0.0564
     41 H14        -1.0136   -0.5904    2.4627 H         1 <0>         0.0514
     42 H15         1.3689   -2.5346   -1.1559 H         1 <0>         0.0609
     43 H16        -0.3757   -2.3779   -0.8054 H         1 <0>         0.0642
     44 H17         0.8728   -2.9851   -3.3438 H         1 <0>         0.0616
     45 H18        -0.8690   -2.7736   -3.0045 H         1 <0>         0.0559
     46 H19        -0.4750    1.8313   -3.6421 H         1 <0>         0.0520
     47 H20         0.0305    2.0927   -1.9608 H         1 <0>         0.0794
     48 H21         1.8563    2.6266   -3.5504 H         1 <0>         0.0628
     49 H22         2.2937    1.2512   -2.5042 H         1 <0>         0.0678
     50 H23         1.6313   -2.7026   -5.0690 H         1 <0>         0.0626
     51 H24         1.1146   -1.3942   -6.1584 H         1 <0>         0.0570
     52 H25         3.7556   -2.4715   -5.7893 H         1 <0>         0.0598
     53 H26         3.2352   -1.1762   -6.8934 H         1 <0>         0.0625
     54 H27         3.4385    2.8838   -4.2756 H         1 <0>         0.0703
     55 H28         3.9957    1.6035   -3.1720 H         1 <0>         0.0698
     56 H29         5.3753    2.4451   -5.7613 H         1 <0>         0.0707
     57 H30         5.9124    2.8619   -4.1160 H         1 <0>         0.0611
     58 H31         5.9263   -1.2756   -5.4368 H         1 <0>         0.0664
     59 H32         5.3889    0.0144   -6.5386 H         1 <0>         0.0672
     60 H33         7.9985    1.6008   -4.6080 H         1 <0>         0.3760
     61 H34         2.6756    2.3038   -6.5795 H         1 <0>         0.0506
     62 H35         4.2241    1.4823   -6.8886 H         1 <0>         0.0574
     63 H36         2.6909    0.6091   -7.1235 H         1 <0>         0.0563
     64 H37        -1.9025    0.5965   -1.3379 H         1 <0>         0.0613
     65 H38        -2.2462    0.3404   -3.0655 H         1 <0>         0.0445
     66 H39        -1.9624   -1.0554   -1.9980 H         1 <0>         0.0552
@<TRIPOS>BOND
     1    1    2 1
     2    1   35 1
     3    1   36 1
     4    1   37 1
     5    2    3 1
     6    2    4 1
     7    2    9 1
     8    4    5 1
     9    4   38 1
    10    4   39 1
    11    5    6 1
    12    5   40 1
    13    5   41 1
    14    6    7 2
    15    6    8 1
    16    9   10 1
    17    9   15 1
    18    9   11 1
    19   11   12 1
    20   11   42 1
    21   11   43 1
    22   12   13 1
    23   12   44 1
    24   12   45 1
    25   13   14 1
    26   13   20 1
    27   13   15 1
    28   15   16 1
    29   15   34 1
    30   16   17 1
    31   16   46 1
    32   16   47 1
    33   17   18 1
    34   17   48 1
    35   17   49 1
    36   18   19 1
    37   18   26 1
    38   18   20 1
    39   20   21 1
    40   20   22 1
    41   22   23 1
    42   22   50 1
    43   22   51 1
    44   23   24 1
    45   23   52 1
    46   23   53 1
    47   24   25 1
    48   24   31 1
    49   24   26 1
    50   26   27 1
    51   26   33 1
    52   27   28 1
    53   27   54 1
    54   27   55 1
    55   28   29 1
    56   28   56 1
    57   28   57 1
    58   29   30 1
    59   29   31 1
    60   29   32 1
    61   31   58 1
    62   31   59 1
    63   32   60 1
    64   33   61 1
    65   33   62 1
    66   33   63 1
    67   34   64 1
    68   34   65 1
    69   34   66 1
@<TRIPOS>MOLECULE
ZINC44306243
   81    85     0     0     0
SMALL
USER_CHARGES

@<TRIPOS>ATOM
      1 C1          1.9890    4.9907    1.1693 C.ar      1 <0>        -0.1264
      2 C2          3.0993    5.5536    1.7704 C.ar      1 <0>        -0.1181
      3 C3          4.3084    4.8838    1.7536 C.ar      1 <0>        -0.1192
      4 C4          4.4071    3.6509    1.1362 C.ar      1 <0>        -0.0814
      5 C5          3.2966    3.0876    0.5359 C.ar      1 <0>        -0.1192
      6 C6          2.0878    3.7580    0.5515 C.ar      1 <0>        -0.1181
      7 C7          5.7255    2.9212    1.1170 C.3       1 <0>        -0.0826
      8 C8          5.8304    2.0249    2.3526 C.3       1 <0>        -0.1129
      9 C9          7.1689    1.2840    2.3331 C.3       1 <0>        -0.1209
     10 C10         7.2737    0.3877    3.5687 C.3       1 <0>        -0.1196
     11 C11         8.6122   -0.3531    3.5492 C.3       1 <0>        -0.1207
     12 C12         8.7170   -1.2494    4.7848 C.3       1 <0>        -0.1182
     13 C13        10.0555   -1.9903    4.7654 C.3       1 <0>        -0.1142
     14 C14        10.1604   -2.8866    6.0009 C.3       1 <0>        -0.1531
     15 C15        11.4788   -3.6163    5.9818 C.2       1 <0>         0.3937
     16 O1         12.2584   -3.4370    5.0690 O.2       1 <0>        -0.4360
     17 C16        11.8185   -4.5398    7.0622 C.ar      1 <0>        -0.2377
     18 C17        10.9151   -4.7555    8.1201 C.ar      1 <0>         0.1890
     19 C18        11.2455   -5.6306    9.1370 C.ar      1 <0>        -0.1957
     20 C19        12.4649   -6.2968    9.1178 C.ar      1 <0>         0.1801
     21 C20        13.3633   -6.0903    8.0785 C.ar      1 <0>        -0.1582
     22 C21        13.0485   -5.2237    7.0488 C.ar      1 <0>         0.2072
     23 O2         13.9243   -5.0287    6.0320 O.3       1 <0>        -0.4616
     24 C22        14.6825   -6.8188    8.0702 C.3       1 <0>         0.0091
     25 H1         14.5711   -7.7766    8.5786 H         1 <0>         0.1045
     26 C23        15.7342   -5.9762    8.7961 C.3       1 <0>        -0.1382
     27 C24        16.0868   -4.7761    7.9081 C.3       1 <0>         0.1367
     28 H2         15.1792   -4.2297    7.6517 H         1 <0>         0.0693
     29 O3         16.7071   -5.2641    6.7176 O.3       1 <0>        -0.3078
     30 C25        16.0914   -6.2741    6.0494 C.ar      1 <0>         0.1647
     31 C26        15.1165   -7.0545    6.6455 C.ar      1 <0>        -0.1387
     32 C27        14.5180   -8.0771    5.9281 C.ar      1 <0>        -0.0630
     33 C28        14.8862   -8.3211    4.6202 C.ar      1 <0>        -0.1715
     34 C29        15.8612   -7.5388    4.0181 C.ar      1 <0>         0.1413
     35 C30        16.4616   -6.5186    4.7320 C.ar      1 <0>        -0.1701
     36 O4         16.2248   -7.7751    2.7302 O.3       1 <0>        -0.4980
     37 C31        17.0381   -3.8649    8.6402 C.ar      1 <0>        -0.0991
     38 C32        18.3977   -4.1134    8.6033 C.ar      1 <0>        -0.0726
     39 C33        19.2717   -3.2799    9.2740 C.ar      1 <0>        -0.1452
     40 C34        18.7842   -2.1926    9.9845 C.ar      1 <0>         0.1136
     41 C35        17.4196   -1.9452   10.0195 C.ar      1 <0>        -0.1434
     42 C36        16.5502   -2.7787    9.3429 C.ar      1 <0>        -0.0884
     43 O5         19.6420   -1.3714   10.6454 O.3       1 <0>        -0.4992
     44 O6         12.7804   -7.1541   10.1209 O.3       1 <0>        -0.4868
     45 O7          9.7247   -4.1062    8.1412 O.3       1 <0>        -0.4852
     46 H3          1.0433    5.5119    1.1863 H         1 <0>         0.1208
     47 H4          3.0222    6.5168    2.2527 H         1 <0>         0.1213
     48 H5          5.1761    5.3239    2.2225 H         1 <0>         0.1204
     49 H6          3.3738    2.1246    0.0533 H         1 <0>         0.1203
     50 H7          1.2203    3.3181    0.0822 H         1 <0>         0.1213
     51 H8          5.7888    2.3088    0.2175 H         1 <0>         0.0717
     52 H9          6.5412    3.6443    1.1224 H         1 <0>         0.0718
     53 H10         5.7670    2.6373    3.2521 H         1 <0>         0.0627
     54 H11         5.0147    1.3018    2.3472 H         1 <0>         0.0626
     55 H12         7.2322    0.6717    1.4336 H         1 <0>         0.0619
     56 H13         7.9845    2.0071    2.3386 H         1 <0>         0.0620
     57 H14         7.2104    1.0001    4.4682 H         1 <0>         0.0610
     58 H15         6.4581   -0.3353    3.5633 H         1 <0>         0.0607
     59 H16         8.6755   -0.9655    2.6497 H         1 <0>         0.0614
     60 H17         9.4278    0.3700    3.5547 H         1 <0>         0.0615
     61 H18         8.6537   -0.6371    5.6843 H         1 <0>         0.0625
     62 H19         7.9014   -1.9725    4.7794 H         1 <0>         0.0613
     63 H20        10.1188   -2.6026    3.8658 H         1 <0>         0.0658
     64 H21        10.8712   -1.2672    4.7708 H         1 <0>         0.0664
     65 H22        10.0970   -2.2742    6.9004 H         1 <0>         0.1073
     66 H23         9.3447   -3.6096    5.9955 H         1 <0>         0.0918
     67 H24        10.5540   -5.7972    9.9497 H         1 <0>         0.1467
     68 H25        14.5518   -4.3092    6.1858 H         1 <0>         0.3887
     69 H26        15.3315   -5.6246    9.7460 H         1 <0>         0.0929
     70 H27        16.6266   -6.5762    8.9743 H         1 <0>         0.0899
     71 H28        13.7590   -8.6874    6.3949 H         1 <0>         0.1221
     72 H29        14.4157   -9.1199    4.0662 H         1 <0>         0.1271
     73 H30        17.2205   -5.9093    4.2638 H         1 <0>         0.1341
     74 H31        15.7075   -7.2821    2.0787 H         1 <0>         0.3937
     75 H32        18.7767   -4.9599    8.0501 H         1 <0>         0.1337
     76 H33        20.3336   -3.4747    9.2455 H         1 <0>         0.1324
     77 H34        17.0376   -1.0995   10.5719 H         1 <0>         0.1328
     78 H35        15.4881   -2.5841    9.3662 H         1 <0>         0.1267
     79 H36        19.9634   -0.6294   10.1151 H         1 <0>         0.3936
     80 H37        12.4351   -8.0488    9.9968 H         1 <0>         0.4003
     81 H38         9.0096   -4.5813    7.6963 H         1 <0>         0.4001
@<TRIPOS>BOND
     1    1    6 ar
     2    1    2 ar
     3    1   46 1
     4    2    3 ar
     5    2   47 1
     6    3    4 ar
     7    3   48 1
     8    4    5 ar
     9    4    7 1
    10    5    6 ar
    11    5   49 1
    12    6   50 1
    13    7    8 1
    14    7   51 1
    15    7   52 1
    16    8    9 1
    17    8   53 1
    18    8   54 1
    19    9   10 1
    20    9   55 1
    21    9   56 1
    22   10   11 1
    23   10   57 1
    24   10   58 1
    25   11   12 1
    26   11   59 1
    27   11   60 1
    28   12   13 1
    29   12   61 1
    30   12   62 1
    31   13   14 1
    32   13   63 1
    33   13   64 1
    34   14   15 1
    35   14   65 1
    36   14   66 1
    37   15   16 2
    38   15   17 1
    39   17   22 ar
    40   17   18 ar
    41   18   19 ar
    42   18   45 1
    43   19   20 ar
    44   19   67 1
    45   20   21 ar
    46   20   44 1
    47   21   22 ar
    48   21   24 1
    49   22   23 1
    50   23   68 1
    51   24   25 1
    52   24   31 1
    53   24   26 1
    54   26   27 1
    55   26   69 1
    56   26   70 1
    57   27   28 1
    58   27   29 1
    59   27   37 1
    60   29   30 1
    61   30   35 ar
    62   30   31 ar
    63   31   32 ar
    64   32   33 ar
    65   32   71 1
    66   33   34 ar
    67   33   72 1
    68   34   35 ar
    69   34   36 1
    70   35   73 1
    71   36   74 1
    72   37   42 ar
    73   37   38 ar
    74   38   39 ar
    75   38   75 1
    76   39   40 ar
    77   39   76 1
    78   40   41 ar
    79   40   43 1
    80   41   42 ar
    81   41   77 1
    82   42   78 1
    83   43   79 1
    84   44   80 1
    85   45   81 1
@<TRIPOS>MOLECULE
ZINC44306243
   80    84     0     0     0
SMALL
USER_CHARGES

@<TRIPOS>ATOM
      1 C1          1.9890    4.9907    1.1693 C.ar      1 <0>        -0.1286
      2 C2          3.0993    5.5536    1.7704 C.ar      1 <0>        -0.1188
      3 C3          4.3084    4.8838    1.7536 C.ar      1 <0>        -0.1190
      4 C4          4.4071    3.6509    1.1362 C.ar      1 <0>        -0.0781
      5 C5          3.2966    3.0876    0.5359 C.ar      1 <0>        -0.1190
      6 C6          2.0878    3.7580    0.5515 C.ar      1 <0>        -0.1188
      7 C7          5.7255    2.9212    1.1170 C.3       1 <0>        -0.0832
      8 C8          5.8304    2.0249    2.3526 C.3       1 <0>        -0.1131
      9 C9          7.1689    1.2840    2.3331 C.3       1 <0>        -0.1197
     10 C10         7.2737    0.3877    3.5687 C.3       1 <0>        -0.1199
     11 C11         8.6122   -0.3531    3.5492 C.3       1 <0>        -0.1182
     12 C12         8.7170   -1.2494    4.7848 C.3       1 <0>        -0.1171
     13 C13        10.0555   -1.9903    4.7654 C.3       1 <0>        -0.1123
     14 C14        10.1604   -2.8866    6.0009 C.3       1 <0>        -0.1334
     15 C15        11.4788   -3.6163    5.9818 C.2       1 <0>         0.4110
     16 O1         12.2584   -3.4370    5.0690 O.2       1 <0>        -0.5028
     17 C16        11.8185   -4.5398    7.0622 C.ar      1 <0>        -0.3566
     18 C17        10.9151   -4.7555    8.1201 C.ar      1 <0>         0.3260
     19 C18        11.2455   -5.6306    9.1370 C.ar      1 <0>        -0.2932
     20 C19        12.4649   -6.2968    9.1178 C.ar      1 <0>         0.1870
     21 C20        13.3633   -6.0903    8.0785 C.ar      1 <0>        -0.2777
     22 C21        13.0485   -5.2237    7.0488 C.ar      1 <0>         0.2304
     23 O2         13.9243   -5.0287    6.0320 O.3       1 <0>        -0.4762
     24 C22        14.6825   -6.8188    8.0702 C.3       1 <0>         0.0268
     25 H1         14.5711   -7.7766    8.5786 H         1 <0>         0.0861
     26 C23        15.7342   -5.9762    8.7961 C.3       1 <0>        -0.1336
     27 C24        16.0868   -4.7761    7.9081 C.3       1 <0>         0.1324
     28 H2         15.1792   -4.2297    7.6517 H         1 <0>         0.0807
     29 O3         16.7071   -5.2641    6.7176 O.3       1 <0>        -0.3137
     30 C25        16.0914   -6.2741    6.0494 C.ar      1 <0>         0.1620
     31 C26        15.1165   -7.0545    6.6455 C.ar      1 <0>        -0.1126
     32 C27        14.5180   -8.0771    5.9281 C.ar      1 <0>        -0.0644
     33 C28        14.8862   -8.3211    4.6202 C.ar      1 <0>        -0.1729
     34 C29        15.8612   -7.5388    4.0181 C.ar      1 <0>         0.1252
     35 C30        16.4616   -6.5186    4.7320 C.ar      1 <0>        -0.1720
     36 O4         16.2248   -7.7751    2.7302 O.3       1 <0>        -0.5022
     37 C31        17.0381   -3.8649    8.6402 C.ar      1 <0>        -0.0860
     38 C32        18.3977   -4.1134    8.6033 C.ar      1 <0>        -0.0765
     39 C33        19.2717   -3.2799    9.2740 C.ar      1 <0>        -0.1479
     40 C34        18.7842   -2.1926    9.9845 C.ar      1 <0>         0.1030
     41 C35        17.4196   -1.9452   10.0195 C.ar      1 <0>        -0.1428
     42 C36        16.5502   -2.7787    9.3429 C.ar      1 <0>        -0.0869
     43 O5         19.6420   -1.3714   10.6454 O.3       1 <0>        -0.5008
     44 O6         12.7804   -7.1541   10.1209 O.3       1 <0>        -0.5056
     45 O7          9.7247   -4.1062    8.1412 O.3       1 <0>        -0.6851
     46 H3          1.0433    5.5119    1.1863 H         1 <0>         0.1193
     47 H4          3.0222    6.5168    2.2527 H         1 <0>         0.1203
     48 H5          5.1761    5.3239    2.2225 H         1 <0>         0.1208
     49 H6          3.3738    2.1246    0.0533 H         1 <0>         0.1209
     50 H7          1.2203    3.3181    0.0822 H         1 <0>         0.1203
     51 H8          5.7888    2.3088    0.2175 H         1 <0>         0.0716
     52 H9          6.5412    3.6443    1.1224 H         1 <0>         0.0716
     53 H10         5.7670    2.6373    3.2521 H         1 <0>         0.0625
     54 H11         5.0147    1.3018    2.3472 H         1 <0>         0.0625
     55 H12         7.2322    0.6717    1.4336 H         1 <0>         0.0610
     56 H13         7.9845    2.0071    2.3386 H         1 <0>         0.0609
     57 H14         7.2104    1.0001    4.4682 H         1 <0>         0.0602
     58 H15         6.4581   -0.3353    3.5633 H         1 <0>         0.0603
     59 H16         8.6755   -0.9655    2.6497 H         1 <0>         0.0585
     60 H17         9.4278    0.3700    3.5547 H         1 <0>         0.0584
     61 H18         8.6537   -0.6371    5.6843 H         1 <0>         0.0591
     62 H19         7.9014   -1.9725    4.7794 H         1 <0>         0.0593
     63 H20        10.1188   -2.6026    3.8658 H         1 <0>         0.0558
     64 H21        10.8712   -1.2672    4.7708 H         1 <0>         0.0552
     65 H22        10.0970   -2.2742    6.9004 H         1 <0>         0.0937
     66 H23         9.3447   -3.6096    5.9955 H         1 <0>         0.0945
     67 H24        10.5540   -5.7972    9.9497 H         1 <0>         0.1093
     68 H25        14.5518   -4.3092    6.1858 H         1 <0>         0.3707
     69 H26        15.3315   -5.6246    9.7460 H         1 <0>         0.0879
     70 H27        16.6266   -6.5762    8.9743 H         1 <0>         0.0728
     71 H28        13.7590   -8.6874    6.3949 H         1 <0>         0.1208
     72 H29        14.4157   -9.1199    4.0662 H         1 <0>         0.1211
     73 H30        17.2205   -5.9093    4.2638 H         1 <0>         0.1275
     74 H31        15.7075   -7.2821    2.0787 H         1 <0>         0.3886
     75 H32        18.7767   -4.9599    8.0501 H         1 <0>         0.1322
     76 H33        20.3336   -3.4747    9.2455 H         1 <0>         0.1281
     77 H34        17.0376   -1.0995   10.5719 H         1 <0>         0.1306
     78 H35        15.4881   -2.5841    9.3662 H         1 <0>         0.1315
     79 H36        19.9634   -0.6294   10.1151 H         1 <0>         0.3889
     80 H37        12.4351   -8.0488    9.9968 H         1 <0>         0.3812
@<TRIPOS>BOND
     1    1    6 ar
     2    1    2 ar
     3    1   46 1
     4    2    3 ar
     5    2   47 1
     6    3    4 ar
     7    3   48 1
     8    4    5 ar
     9    4    7 1
    10    5    6 ar
    11    5   49 1
    12    6   50 1
    13    7    8 1
    14    7   51 1
    15    7   52 1
    16    8    9 1
    17    8   53 1
    18    8   54 1
    19    9   10 1
    20    9   55 1
    21    9   56 1
    22   10   11 1
    23   10   57 1
    24   10   58 1
    25   11   12 1
    26   11   59 1
    27   11   60 1
    28   12   13 1
    29   12   61 1
    30   12   62 1
    31   13   14 1
    32   13   63 1
    33   13   64 1
    34   14   15 1
    35   14   65 1
    36   14   66 1
    37   15   16 2
    38   15   17 1
    39   17   22 ar
    40   17   18 ar
    41   18   19 ar
    42   18   45 1
    43   19   20 ar
    44   19   67 1
    45   20   21 ar
    46   20   44 1
    47   21   22 ar
    48   21   24 1
    49   22   23 1
    50   23   68 1
    51   24   25 1
    52   24   31 1
    53   24   26 1
    54   26   27 1
    55   26   69 1
    56   26   70 1
    57   27   28 1
    58   27   29 1
    59   27   37 1
    60   29   30 1
    61   30   35 ar
    62   30   31 ar
    63   31   32 ar
    64   32   33 ar
    65   32   71 1
    66   33   34 ar
    67   33   72 1
    68   34   35 ar
    69   34   36 1
    70   35   73 1
    71   36   74 1
    72   37   42 ar
    73   37   38 ar
    74   38   39 ar
    75   38   75 1
    76   39   40 ar
    77   39   76 1
    78   40   41 ar
    79   40   43 1
    80   41   42 ar
    81   41   77 1
    82   42   78 1
    83   43   79 1
    84   44   80 1
@<TRIPOS>MOLECULE
ZINC44306243
   80    84     0     0     0
SMALL
USER_CHARGES

@<TRIPOS>ATOM
      1 C1          2.4676    5.8489    1.8626 C.ar      1 <0>        -0.1284
      2 C2          3.5301    6.3238    2.6086 C.ar      1 <0>        -0.1187
      3 C3          4.7399    5.6553    2.5918 C.ar      1 <0>        -0.1190
      4 C4          4.8871    4.5116    1.8293 C.ar      1 <0>        -0.0785
      5 C5          3.8243    4.0363    1.0840 C.ar      1 <0>        -0.1191
      6 C6          2.6149    4.7056    1.0998 C.ar      1 <0>        -0.1188
      7 C7          6.2063    3.7834    1.8102 C.3       1 <0>        -0.0835
      8 C8          6.2263    2.7349    2.9243 C.3       1 <0>        -0.1125
      9 C9          7.5656    1.9956    2.9049 C.3       1 <0>        -0.1207
     10 C10         7.5856    0.9471    4.0190 C.3       1 <0>        -0.1189
     11 C11         8.9250    0.2077    3.9996 C.3       1 <0>        -0.1203
     12 C12         8.9449   -0.8407    5.1137 C.3       1 <0>        -0.1167
     13 C13        10.2843   -1.5801    5.0943 C.3       1 <0>        -0.1114
     14 C14        10.3042   -2.6285    6.2084 C.3       1 <0>        -0.1500
     15 C15        11.6235   -3.3568    6.1893 C.2       1 <0>         0.3925
     16 O1         12.4655   -3.0656    5.3650 O.2       1 <0>        -0.4548
     17 C16        11.8889   -4.4135    7.1632 C.ar      1 <0>        -0.3549
     18 C17        10.9133   -4.7588    8.1175 C.ar      1 <0>         0.2037
     19 C18        11.1738   -5.7593    9.0342 C.ar      1 <0>        -0.3147
     20 C19        12.3940   -6.4240    9.0161 C.ar      1 <0>         0.1804
     21 C20        13.3634   -6.0903    8.0786 C.ar      1 <0>        -0.2533
     22 C21        13.1194   -5.0966    7.1494 C.ar      1 <0>         0.3312
     23 O2         14.0647   -4.7770    6.2310 O.3       1 <0>        -0.6275
     24 C22        14.6826   -6.8187    8.0705 C.3       1 <0>         0.0315
     25 H1         14.5712   -7.7764    8.5788 H         1 <0>         0.0763
     26 C23        15.7341   -5.9760    8.7964 C.3       1 <0>        -0.1304
     27 C24        16.0868   -4.7759    7.9084 C.3       1 <0>         0.1198
     28 H2         15.1791   -4.2296    7.6520 H         1 <0>         0.1322
     29 O3         16.7072   -5.2639    6.7180 O.3       1 <0>        -0.3084
     30 C25        16.0916   -6.2739    6.0497 C.ar      1 <0>         0.2185
     31 C26        15.1168   -7.0544    6.6458 C.ar      1 <0>        -0.1121
     32 C27        14.5183   -8.0770    5.9284 C.ar      1 <0>        -0.0740
     33 C28        14.8867   -8.3210    4.6205 C.ar      1 <0>        -0.1917
     34 C29        15.8617   -7.5387    4.0185 C.ar      1 <0>         0.1215
     35 C30        16.4619   -6.5184    4.7323 C.ar      1 <0>        -0.1857
     36 O4         16.2254   -7.7749    2.7306 O.3       1 <0>        -0.5045
     37 C31        17.0379   -3.8647    8.6406 C.ar      1 <0>        -0.0751
     38 C32        18.3976   -4.1130    8.6039 C.ar      1 <0>        -0.0838
     39 C33        19.2715   -3.2795    9.2746 C.ar      1 <0>        -0.1483
     40 C34        18.7839   -2.1922    9.9850 C.ar      1 <0>         0.0930
     41 C35        17.4192   -1.9450   10.0199 C.ar      1 <0>        -0.1444
     42 C36        16.5499   -2.7785    9.3433 C.ar      1 <0>        -0.0879
     43 O5         19.6416   -1.3710   10.6461 O.3       1 <0>        -0.5020
     44 O6         12.6405   -7.4050    9.9203 O.3       1 <0>        -0.5049
     45 O7          9.7219   -4.1113    8.1373 O.3       1 <0>        -0.5033
     46 H3          1.5210    6.3687    1.8793 H         1 <0>         0.1195
     47 H4          3.4151    7.2173    3.2043 H         1 <0>         0.1205
     48 H5          5.5702    6.0266    3.1741 H         1 <0>         0.1209
     49 H6          3.9394    3.1430    0.4881 H         1 <0>         0.1208
     50 H7          1.7847    4.3344    0.5172 H         1 <0>         0.1204
     51 H8          6.3359    3.2916    0.8461 H         1 <0>         0.0719
     52 H9          7.0167    4.4954    1.9667 H         1 <0>         0.0720
     53 H10         6.0967    3.2267    3.8884 H         1 <0>         0.0623
     54 H11         5.4159    2.0229    2.7678 H         1 <0>         0.0622
     55 H12         7.6952    1.5038    1.9408 H         1 <0>         0.0615
     56 H13         8.3760    2.7075    3.0614 H         1 <0>         0.0617
     57 H14         7.4560    1.4389    4.9831 H         1 <0>         0.0599
     58 H15         6.7752    0.2351    3.8625 H         1 <0>         0.0596
     59 H16         9.0546   -0.2840    3.0355 H         1 <0>         0.0600
     60 H17         9.7353    0.9197    4.1561 H         1 <0>         0.0603
     61 H18         8.8153   -0.3489    6.0778 H         1 <0>         0.0590
     62 H19         8.1346   -1.5527    4.9572 H         1 <0>         0.0577
     63 H20        10.4139   -2.0719    4.1302 H         1 <0>         0.0604
     64 H21        11.0946   -0.8681    5.2508 H         1 <0>         0.0616
     65 H22        10.1746   -2.1368    7.1725 H         1 <0>         0.0915
     66 H23         9.4939   -3.3405    6.0519 H         1 <0>         0.0762
     67 H24        10.4267   -6.0255    9.7673 H         1 <0>         0.1089
     68 H25        15.3314   -5.6244    9.7463 H         1 <0>         0.0766
     69 H26        16.6266   -6.5760    8.9747 H         1 <0>         0.0618
     70 H27        13.7593   -8.6873    6.3951 H         1 <0>         0.1134
     71 H28        14.4162   -9.1198    4.0664 H         1 <0>         0.1149
     72 H29        17.2209   -5.9091    4.2643 H         1 <0>         0.1214
     73 H30        15.7081   -7.2820    2.0790 H         1 <0>         0.3844
     74 H31        18.7767   -4.9596    8.0507 H         1 <0>         0.1295
     75 H32        20.3334   -3.4743    9.2462 H         1 <0>         0.1249
     76 H33        17.0372   -1.0992   10.5723 H         1 <0>         0.1271
     77 H34        15.4878   -2.5839    9.3665 H         1 <0>         0.1288
     78 H35        19.9630   -0.6290   10.1158 H         1 <0>         0.3858
     79 H36        12.3083   -8.2744    9.6577 H         1 <0>         0.3792
     80 H37         9.0421   -4.5213    7.5851 H         1 <0>         0.3805
@<TRIPOS>BOND
     1    1    6 ar
     2    1    2 ar
     3    1   46 1
     4    2    3 ar
     5    2   47 1
     6    3    4 ar
     7    3   48 1
     8    4    5 ar
     9    4    7 1
    10    5    6 ar
    11    5   49 1
    12    6   50 1
    13    7    8 1
    14    7   51 1
    15    7   52 1
    16    8    9 1
    17    8   53 1
    18    8   54 1
    19    9   10 1
    20    9   55 1
    21    9   56 1
    22   10   11 1
    23   10   57 1
    24   10   58 1
    25   11   12 1
    26   11   59 1
    27   11   60 1
    28   12   13 1
    29   12   61 1
    30   12   62 1
    31   13   14 1
    32   13   63 1
    33   13   64 1
    34   14   15 1
    35   14   65 1
    36   14   66 1
    37   15   16 2
    38   15   17 1
    39   17   22 ar
    40   17   18 ar
    41   18   19 ar
    42   18   45 1
    43   19   20 ar
    44   19   67 1
    45   20   21 ar
    46   20   44 1
    47   21   22 ar
    48   21   24 1
    49   22   23 1
    50   24   25 1
    51   24   31 1
    52   24   26 1
    53   26   27 1
    54   26   68 1
    55   26   69 1
    56   27   28 1
    57   27   29 1
    58   27   37 1
    59   29   30 1
    60   30   35 ar
    61   30   31 ar
    62   31   32 ar
    63   32   33 ar
    64   32   70 1
    65   33   34 ar
    66   33   71 1
    67   34   35 ar
    68   34   36 1
    69   35   72 1
    70   36   73 1
    71   37   42 ar
    72   37   38 ar
    73   38   39 ar
    74   38   74 1
    75   39   40 ar
    76   39   75 1
    77   40   41 ar
    78   40   43 1
    79   41   42 ar
    80   41   76 1
    81   42   77 1
    82   43   78 1
    83   44   79 1
    84   45   80 1
@<TRIPOS>MOLECULE
ZINC14773836
   66    67     0     0     0
SMALL
USER_CHARGES

@<TRIPOS>ATOM
      1 C1         -1.6390    1.8582   -0.1968 C.ar      1 <0>        -0.1523
      2 C2         -0.3455    2.3407   -0.1393 C.ar      1 <0>        -0.0473
      3 C3          0.7211    1.4628   -0.1078 C.ar      1 <0>        -0.1522
      4 C4          0.4954    0.0938   -0.1342 C.ar      1 <0>         0.1258
      5 C5         -0.8014   -0.3928   -0.1918 C.ar      1 <0>        -0.1797
      6 C6         -1.8699    0.4901   -0.2229 C.ar      1 <0>         0.1258
      7 O1         -3.1423    0.0161   -0.2789 O.3       1 <0>        -0.4977
      8 O2          1.5448   -0.7691   -0.1040 O.3       1 <0>        -0.4977
      9 C7         -0.0975    3.8269   -0.1116 C.3       1 <0>        -0.0827
     10 C8         -0.0712    4.3126    1.3391 C.3       1 <0>        -0.1142
     11 C9          0.1806    5.8214    1.3673 C.3       1 <0>        -0.1204
     12 C10         0.2069    6.3071    2.8179 C.3       1 <0>        -0.1207
     13 C11         0.4586    7.8160    2.8461 C.3       1 <0>        -0.1203
     14 C12         0.4850    8.3016    4.2968 C.3       1 <0>        -0.1206
     15 C13         0.7367    9.8105    4.3250 C.3       1 <0>        -0.1205
     16 C14         0.7631   10.2961    5.7756 C.3       1 <0>        -0.1141
     17 C15         1.0148   11.8050    5.8038 C.3       1 <0>        -0.1022
     18 C16         1.0408   12.2833    7.2326 C.2       1 <0>        -0.1576
     19 C17         2.0543   12.9895    7.6686 C.2       1 <0>        -0.1610
     20 C18         3.1094   13.4681    6.7048 C.3       1 <0>        -0.1020
     21 C19         3.2801   14.9819    6.8460 C.3       1 <0>        -0.1064
     22 C20         4.3512   15.4679    5.8675 C.3       1 <0>        -0.0833
     23 C21         4.5194   16.9590    6.0066 C.ar      1 <0>        -0.0467
     24 C22         3.7515   17.8142    5.2396 C.ar      1 <0>        -0.1526
     25 C23         3.9045   19.1877    5.3659 C.ar      1 <0>         0.1258
     26 C24         4.8286   19.7015    6.2624 C.ar      1 <0>        -0.1787
     27 C25         5.5979   18.8414    7.0308 C.ar      1 <0>         0.1258
     28 C26         5.4372   17.4688    6.9049 C.ar      1 <0>        -0.1529
     29 O3          6.5050   19.3421    7.9102 O.3       1 <0>        -0.4968
     30 O4          3.1493   20.0282    4.6110 O.3       1 <0>        -0.4968
     31 H1         -2.4711    2.5463   -0.2169 H         1 <0>         0.1312
     32 H2          1.7312    1.8424   -0.0629 H         1 <0>         0.1313
     33 H3         -0.9791   -1.4579   -0.2128 H         1 <0>         0.1343
     34 H4         -3.4758   -0.1101   -1.1778 H         1 <0>         0.3941
     35 H5          1.8139   -1.0302    0.7874 H         1 <0>         0.3940
     36 H6          0.8599    4.0445   -0.5850 H         1 <0>         0.0761
     37 H7         -0.8944    4.3384   -0.6515 H         1 <0>         0.0759
     38 H8         -1.0286    4.0950    1.8125 H         1 <0>         0.0644
     39 H9          0.7257    3.8011    1.8790 H         1 <0>         0.0638
     40 H10         1.1380    6.0390    0.8938 H         1 <0>         0.0626
     41 H11        -0.6163    6.3329    0.8273 H         1 <0>         0.0626
     42 H12        -0.7505    6.0895    3.2913 H         1 <0>         0.0611
     43 H13         1.0038    5.7956    3.3579 H         1 <0>         0.0609
     44 H14         1.4160    8.0335    2.3727 H         1 <0>         0.0608
     45 H15        -0.3382    8.3274    2.3062 H         1 <0>         0.0608
     46 H16        -0.4724    8.0840    4.7702 H         1 <0>         0.0607
     47 H17         1.2819    7.7901    4.8367 H         1 <0>         0.0607
     48 H18         1.6941   10.0280    3.8515 H         1 <0>         0.0609
     49 H19        -0.0601   10.3219    3.7850 H         1 <0>         0.0611
     50 H20        -0.1943   10.0786    6.2490 H         1 <0>         0.0612
     51 H21         1.5599    9.7847    6.3155 H         1 <0>         0.0617
     52 H22         1.9722   12.0225    5.3304 H         1 <0>         0.0760
     53 H23         0.2179   12.3164    5.2639 H         1 <0>         0.0683
     54 H24         0.2238   12.0439    7.8972 H         1 <0>         0.1076
     55 H25         2.1339   13.2286    8.7188 H         1 <0>         0.1077
     56 H26         4.0551   12.9735    6.9264 H         1 <0>         0.0701
     57 H27         2.8051   13.2303    5.6856 H         1 <0>         0.0777
     58 H28         2.3343   15.4765    6.6245 H         1 <0>         0.0649
     59 H29         3.5844   15.2198    7.8653 H         1 <0>         0.0645
     60 H30         5.2970   14.9733    6.0891 H         1 <0>         0.0769
     61 H31         4.0469   15.2300    4.8482 H         1 <0>         0.0766
     62 H32         3.0319   17.4134    4.5411 H         1 <0>         0.1313
     63 H33         4.9494   20.7701    6.3618 H         1 <0>         0.1345
     64 H34         6.0331   16.7983    7.5065 H         1 <0>         0.1314
     65 H35         6.1495   19.4982    8.7958 H         1 <0>         0.3932
     66 H36         2.3123   20.2824    5.0232 H         1 <0>         0.3933
@<TRIPOS>BOND
     1    1    6 ar
     2    1    2 ar
     3    1   31 1
     4    2    3 ar
     5    2    9 1
     6    3    4 ar
     7    3   32 1
     8    4    5 ar
     9    4    8 1
    10    5    6 ar
    11    5   33 1
    12    6    7 1
    13    7   34 1
    14    8   35 1
    15    9   10 1
    16    9   36 1
    17    9   37 1
    18   10   11 1
    19   10   38 1
    20   10   39 1
    21   11   12 1
    22   11   40 1
    23   11   41 1
    24   12   13 1
    25   12   42 1
    26   12   43 1
    27   13   14 1
    28   13   44 1
    29   13   45 1
    30   14   15 1
    31   14   46 1
    32   14   47 1
    33   15   16 1
    34   15   48 1
    35   15   49 1
    36   16   17 1
    37   16   50 1
    38   16   51 1
    39   17   18 1
    40   17   52 1
    41   17   53 1
    42   18   19 2
    43   18   54 1
    44   19   20 1
    45   19   55 1
    46   20   21 1
    47   20   56 1
    48   20   57 1
    49   21   22 1
    50   21   58 1
    51   21   59 1
    52   22   23 1
    53   22   60 1
    54   22   61 1
    55   23   28 ar
    56   23   24 ar
    57   24   25 ar
    58   24   62 1
    59   25   26 ar
    60   25   30 1
    61   26   27 ar
    62   26   63 1
    63   27   28 ar
    64   27   29 1
    65   28   64 1
    66   29   65 1
    67   30   66 1
@<TRIPOS>MOLECULE
ZINC14253369
   80    83     0     0     0
SMALL
USER_CHARGES
1-[2,4,6-trihydroxy-3-[(2S,4R)-7-hydroxy-2-(4-hydroxyphenyl)chroman-4-yl]phenyl]dodecan-1-one
@<TRIPOS>ATOM
      1 C1         15.5012  -11.1535   -6.6665 C.3       1 <0>        -0.1542
      2 C2         14.0398  -10.7918   -6.9389 C.3       1 <0>        -0.1263
      3 C3         13.5229   -9.8822   -5.8226 C.3       1 <0>        -0.1211
      4 C4         12.0614   -9.5205   -6.0950 C.3       1 <0>        -0.1214
      5 C5         11.5445   -8.6108   -4.9786 C.3       1 <0>        -0.1203
      6 C6         10.0831   -8.2491   -5.2510 C.3       1 <0>        -0.1211
      7 C7          9.5662   -7.3395   -4.1346 C.3       1 <0>        -0.1197
      8 C8          8.1047   -6.9778   -4.4070 C.3       1 <0>        -0.1208
      9 C9          7.5879   -6.0682   -3.2906 C.3       1 <0>        -0.1185
     10 C10         6.1264   -5.7065   -3.5630 C.3       1 <0>        -0.1158
     11 C11         5.6095   -4.7969   -2.4466 C.3       1 <0>        -0.1435
     12 C12         4.1700   -4.4406   -2.7149 C.2       1 <0>         0.3933
     13 O1          3.6120   -4.8721   -3.7027 O.2       1 <0>        -0.4365
     14 C13         3.4460   -3.5756   -1.7859 C.ar      1 <0>        -0.2398
     15 C14         4.0888   -3.0726   -0.6389 C.ar      1 <0>         0.1890
     16 C15         3.3957   -2.2555    0.2335 C.ar      1 <0>        -0.1929
     17 C16         2.0683   -1.9303   -0.0180 C.ar      1 <0>         0.1802
     18 C17         1.4250   -2.4220   -1.1469 C.ar      1 <0>        -0.1558
     19 C18         2.0998   -3.2447   -2.0291 C.ar      1 <0>         0.2065
     20 O2          1.4681   -3.7280   -3.1274 O.3       1 <0>        -0.4649
     21 C19        -0.0151   -2.0622   -1.4072 C.3       1 <0>         0.0097
     22 H1         -0.2643   -1.1492   -0.8664 H         1 <0>         0.1079
     23 C20        -0.9191   -3.2008   -0.9283 C.3       1 <0>        -0.1405
     24 C21        -0.7582   -4.3821   -1.8937 C.3       1 <0>         0.1349
     25 H2          0.2947   -4.6536   -1.9694 H         1 <0>         0.1080
     26 O3         -1.2464   -3.9860   -3.1761 O.3       1 <0>        -0.2979
     27 C22        -0.8097   -2.8040   -3.6840 C.ar      1 <0>         0.1849
     28 C23        -0.2167   -1.8408   -2.8851 C.ar      1 <0>        -0.1706
     29 C24         0.2057   -0.6454   -3.4427 C.ar      1 <0>        -0.0639
     30 C25         0.0410   -0.4075   -4.7925 C.ar      1 <0>        -0.1843
     31 C26        -0.5505   -1.3701   -5.5979 C.ar      1 <0>         0.1458
     32 C27        -0.9749   -2.5663   -5.0436 C.ar      1 <0>        -0.1869
     33 O4         -0.7126   -1.1400   -6.9274 O.3       1 <0>        -0.4961
     34 C28        -1.5513   -5.5606   -1.3904 C.ar      1 <0>        -0.0946
     35 C29        -2.8993   -5.6602   -1.6813 C.ar      1 <0>        -0.0770
     36 C30        -3.6273   -6.7424   -1.2260 C.ar      1 <0>        -0.1453
     37 C31        -3.0073   -7.7237   -0.4661 C.ar      1 <0>         0.1101
     38 C32        -1.6559   -7.6185   -0.1707 C.ar      1 <0>        -0.1446
     39 C33        -0.9310   -6.5375   -0.6336 C.ar      1 <0>        -0.0883
     40 O5         -3.7227   -8.7859   -0.0115 O.3       1 <0>        -0.4992
     41 O6          1.3960   -1.1276    0.8447 O.3       1 <0>        -0.4874
     42 O7          5.3839   -3.3894   -0.3908 O.3       1 <0>        -0.4852
     43 H3         15.8695  -11.8015   -7.4619 H         1 <0>         0.0535
     44 H4         16.1004  -10.2436   -6.6325 H         1 <0>         0.0533
     45 H5         15.5749  -11.6730   -5.7112 H         1 <0>         0.0533
     46 H6         13.4405  -11.7017   -6.9730 H         1 <0>         0.0603
     47 H7         13.9661  -10.2722   -7.8943 H         1 <0>         0.0603
     48 H8         14.1221   -8.9723   -5.7885 H         1 <0>         0.0605
     49 H9         13.5966  -10.4017   -4.8672 H         1 <0>         0.0604
     50 H10        11.4622  -10.4303   -6.1290 H         1 <0>         0.0605
     51 H11        11.9877   -9.0009   -7.0503 H         1 <0>         0.0605
     52 H12        12.1438   -7.7010   -4.9445 H         1 <0>         0.0604
     53 H13        11.6182   -9.1304   -4.0232 H         1 <0>         0.0602
     54 H14         9.4839   -9.1590   -5.2850 H         1 <0>         0.0606
     55 H15        10.0094   -7.7296   -6.2064 H         1 <0>         0.0606
     56 H16        10.1654   -6.4297   -4.1005 H         1 <0>         0.0606
     57 H17         9.6399   -7.8591   -3.1792 H         1 <0>         0.0604
     58 H18         7.5055   -7.8877   -4.4410 H         1 <0>         0.0614
     59 H19         8.0310   -6.4583   -5.3624 H         1 <0>         0.0614
     60 H20         8.1871   -5.1583   -3.2566 H         1 <0>         0.0625
     61 H21         7.6616   -6.5877   -2.3352 H         1 <0>         0.0615
     62 H22         5.5272   -6.6164   -3.5970 H         1 <0>         0.0666
     63 H23         6.0527   -5.1870   -4.5184 H         1 <0>         0.0668
     64 H24         6.1592   -3.9622   -2.4154 H         1 <0>         0.0968
     65 H25         5.6832   -5.3164   -1.4912 H         1 <0>         0.0916
     66 H26         3.8871   -1.8686    1.1140 H         1 <0>         0.1468
     67 H27         1.6163   -3.2061   -3.9279 H         1 <0>         0.3926
     68 H28        -1.9572   -2.8686   -0.9239 H         1 <0>         0.0857
     69 H29        -0.6265   -3.5051    0.0767 H         1 <0>         0.0836
     70 H30         0.6664    0.1053   -2.8176 H         1 <0>         0.1279
     71 H31         0.3725    0.5267   -5.2212 H         1 <0>         0.1302
     72 H32        -1.4350   -3.3166   -5.6695 H         1 <0>         0.1372
     73 H33         0.0338   -1.4285   -7.4703 H         1 <0>         0.3947
     74 H34        -3.3826   -4.8934   -2.2685 H         1 <0>         0.1315
     75 H35        -4.6791   -6.8222   -1.4575 H         1 <0>         0.1310
     76 H36        -1.1710   -8.3809    0.4209 H         1 <0>         0.1313
     77 H37         0.1211   -6.4551   -0.4040 H         1 <0>         0.1254
     78 H38        -4.1255   -8.6464    0.8565 H         1 <0>         0.3921
     79 H39         0.9408   -1.6044    1.5522 H         1 <0>         0.4002
     80 H40         5.4985   -4.1907    0.1382 H         1 <0>         0.3999
@<TRIPOS>BOND
     1    1    2 1
     2    1   43 1
     3    1   44 1
     4    1   45 1
     5    2    3 1
     6    2   46 1
     7    2   47 1
     8    3    4 1
     9    3   48 1
    10    3   49 1
    11    4    5 1
    12    4   50 1
    13    4   51 1
    14    5    6 1
    15    5   52 1
    16    5   53 1
    17    6    7 1
    18    6   54 1
    19    6   55 1
    20    7    8 1
    21    7   56 1
    22    7   57 1
    23    8    9 1
    24    8   58 1
    25    8   59 1
    26    9   10 1
    27    9   60 1
    28    9   61 1
    29   10   11 1
    30   10   62 1
    31   10   63 1
    32   11   12 1
    33   11   64 1
    34   11   65 1
    35   12   13 2
    36   12   14 1
    37   14   19 ar
    38   14   15 ar
    39   15   16 ar
    40   15   42 1
    41   16   17 ar
    42   16   66 1
    43   17   18 ar
    44   17   41 1
    45   18   19 ar
    46   18   21 1
    47   19   20 1
    48   20   67 1
    49   21   22 1
    50   21   28 1
    51   21   23 1
    52   23   24 1
    53   23   68 1
    54   23   69 1
    55   24   25 1
    56   24   26 1
    57   24   34 1
    58   26   27 1
    59   27   32 ar
    60   27   28 ar
    61   28   29 ar
    62   29   30 ar
    63   29   70 1
    64   30   31 ar
    65   30   71 1
    66   31   32 ar
    67   31   33 1
    68   32   72 1
    69   33   73 1
    70   34   39 ar
    71   34   35 ar
    72   35   36 ar
    73   35   74 1
    74   36   37 ar
    75   36   75 1
    76   37   38 ar
    77   37   40 1
    78   38   39 ar
    79   38   76 1
    80   39   77 1
    81   40   78 1
    82   41   79 1
    83   42   80 1
