@<TRIPOS>MOLECULE
ZINC38140516
   80    84     0     0     0
SMALL
USER_CHARGES

@<TRIPOS>ATOM
      1 C1          1.0496    1.4744   -0.2424 C.3       1 <0>        -0.1544
      2 C2          0.9776   -0.0468   -0.1716 C.3       1 <0>        -0.0344
      3 C3         -0.4414   -0.4320    0.2852 C.3       1 <0>        -0.1100
      4 C4         -0.6897    0.1067    1.6909 C.3       1 <0>        -0.1479
      5 C5          0.2812   -0.5259    2.6789 C.3       1 <0>         0.1192
      6 H1          0.0837   -1.6021    2.7373 H         1 <0>         0.0462
      7 C6          1.7401   -0.3149    2.2727 C.3       1 <0>        -0.0370
      8 C7          1.9789   -0.6323    0.8152 C.3       1 <0>        -0.0576
      9 H2          1.8838   -1.7444    0.7165 H         1 <0>         0.0567
     10 C8          3.3983   -0.3014    0.3539 C.3       1 <0>        -0.1127
     11 C9          3.6415   -1.0889   -0.9453 C.3       1 <0>        -0.1111
     12 C10         2.6563   -0.6599   -2.0262 C.3       1 <0>        -0.0258
     13 C11         1.2136   -0.6828   -1.5431 C.3       1 <0>        -0.0554
     14 H3          0.8926   -1.7402   -1.4417 H         1 <0>         0.0588
     15 C12         0.3116   -0.0483   -2.6021 C.3       1 <0>        -0.0723
     16 C13         0.6022   -0.6520   -3.9456 C.2       1 <0>        -0.1754
     17 C14         1.6958   -1.3013   -4.2436 C.2       1 <0>        -0.0465
     18 C15         2.7840   -1.5827   -3.2502 C.3       1 <0>         0.0076
     19 C16         4.1715   -1.4761   -3.8675 C.3       1 <0>        -0.0993
     20 C17         4.2334   -2.1439   -5.2427 C.3       1 <0>        -0.0860
     21 C18         3.2141   -1.5179   -6.1889 C.3       1 <0>        -0.1131
     22 C19         1.8056   -1.8053   -5.6737 C.3       1 <0>        -0.0179
     23 H4          1.0844   -1.2438   -6.2878 H         1 <0>         0.0687
     24 C20         1.4872   -3.2910   -5.7424 C.3       1 <0>        -0.0990
     25 C21         1.6418   -3.8241   -7.1678 C.3       1 <0>        -0.0627
     26 C22         3.0578   -3.5504   -7.6696 C.3       1 <0>        -0.1012
     27 C23         3.3860   -2.0656   -7.6041 C.3       1 <0>        -0.0919
     28 C24         0.6108   -3.1802   -8.0925 C.3       1 <0>        -0.1396
     29 C25         1.4091   -5.3427   -7.1506 C.3       1 <0>        -0.1397
     30 C26         3.4206   -0.0218   -6.2447 C.2       1 <0>         0.5073
     31 O1          4.4867    0.4328   -6.6234 O.co2     1 <0>        -0.7086
     32 O2          2.5212    0.7307   -5.9109 O.co2     1 <0>        -0.6827
     33 C27         2.6055   -3.0264   -2.7623 C.3       1 <0>        -0.1509
     34 C28         3.0344    0.7562   -2.4903 C.3       1 <0>        -0.1529
     35 C29         2.5744   -1.3054    3.1239 C.3       1 <0>        -0.1461
     36 C30         2.1912    1.0937    2.6572 C.3       1 <0>        -0.1324
     37 O3          0.0720    0.0412    3.9783 O.3       1 <0>        -0.5663
     38 H5          2.0840    1.7824   -0.3946 H         1 <0>         0.0654
     39 H6          0.4390    1.8287   -1.0729 H         1 <0>         0.0591
     40 H7          0.6772    1.8995    0.6896 H         1 <0>         0.0551
     41 H8         -1.1651   -0.0028   -0.4063 H         1 <0>         0.0681
     42 H9         -0.5304   -1.5174    0.2840 H         1 <0>         0.0591
     43 H10        -0.6146    1.1895    1.7190 H         1 <0>         0.0756
     44 H11        -1.7152   -0.1601    1.9877 H         1 <0>         0.0527
     45 H12         3.5355    0.7555    0.1833 H         1 <0>         0.0698
     46 H13         4.1252   -0.6437    1.0936 H         1 <0>         0.0562
     47 H14         4.6626   -0.8894   -1.2809 H         1 <0>         0.0598
     48 H15         3.5506   -2.1435   -0.6978 H         1 <0>         0.0615
     49 H16        -0.7358   -0.2597   -2.3499 H         1 <0>         0.0505
     50 H17         0.4350    1.0275   -2.6637 H         1 <0>         0.0736
     51 H18        -0.1434   -0.5441   -4.7229 H         1 <0>         0.0900
     52 H19         4.5381   -0.4615   -3.9450 H         1 <0>         0.0747
     53 H20         4.8786   -2.0149   -3.2085 H         1 <0>         0.0379
     54 H21         5.2371   -2.0027   -5.6578 H         1 <0>         0.0520
     55 H22         4.0472   -3.2116   -5.1475 H         1 <0>         0.0448
     56 H23         2.1681   -3.8584   -5.1047 H         1 <0>         0.0615
     57 H24         0.4628   -3.4656   -5.4046 H         1 <0>         0.0491
     58 H25         3.7720   -4.1106   -7.0604 H         1 <0>         0.0548
     59 H26         3.1439   -3.8952   -8.7049 H         1 <0>         0.0481
     60 H27         2.7473   -1.5053   -8.2880 H         1 <0>         0.0507
     61 H28         4.4266   -1.9146   -7.9138 H         1 <0>         0.0570
     62 H29         0.7544   -2.0997   -8.1004 H         1 <0>         0.0623
     63 H30         0.7347   -3.5705   -9.1026 H         1 <0>         0.0466
     64 H31        -0.3926   -3.4107   -7.7344 H         1 <0>         0.0478
     65 H32         0.4047   -5.5522   -6.7827 H         1 <0>         0.0490
     66 H33         1.5159   -5.7381   -8.1607 H         1 <0>         0.0486
     67 H34         2.1417   -5.8150   -6.4961 H         1 <0>         0.0496
     68 H35         1.5831   -3.1677   -2.4120 H         1 <0>         0.0497
     69 H36         2.8068   -3.7148   -3.5830 H         1 <0>         0.0574
     70 H37         3.2999   -3.2222   -1.9452 H         1 <0>         0.0536
     71 H38         4.0220    0.7360   -2.9511 H         1 <0>         0.0541
     72 H39         2.3017    1.1083   -3.2165 H         1 <0>         0.0769
     73 H40         3.0474    1.4284   -1.6323 H         1 <0>         0.0461
     74 H41         2.2528   -2.3255    2.9138 H         1 <0>         0.0476
     75 H42         3.6302   -1.1987    2.8748 H         1 <0>         0.0558
     76 H43         2.4271   -1.0887    4.1820 H         1 <0>         0.0574
     77 H44         2.2161    1.1834    3.7433 H         1 <0>         0.0562
     78 H45         3.1870    1.2789    2.2545 H         1 <0>         0.0526
     79 H46         1.4923    1.8233    2.2483 H         1 <0>         0.0566
     80 H47        -0.8199   -0.0929    4.3270 H         1 <0>         0.3711
@<TRIPOS>BOND
     1    1    2 1
     2    1   38 1
     3    1   39 1
     4    1   40 1
     5    2    8 1
     6    2   13 1
     7    2    3 1
     8    3    4 1
     9    3   41 1
    10    3   42 1
    11    4    5 1
    12    4   43 1
    13    4   44 1
    14    5    6 1
    15    5    7 1
    16    5   37 1
    17    7    8 1
    18    7   35 1
    19    7   36 1
    20    8    9 1
    21    8   10 1
    22   10   11 1
    23   10   45 1
    24   10   46 1
    25   11   12 1
    26   11   47 1
    27   11   48 1
    28   12   18 1
    29   12   13 1
    30   12   34 1
    31   13   14 1
    32   13   15 1
    33   15   16 1
    34   15   49 1
    35   15   50 1
    36   16   17 2
    37   16   51 1
    38   17   22 1
    39   17   18 1
    40   18   19 1
    41   18   33 1
    42   19   20 1
    43   19   52 1
    44   19   53 1
    45   20   21 1
    46   20   54 1
    47   20   55 1
    48   21   27 1
    49   21   22 1
    50   21   30 1
    51   22   23 1
    52   22   24 1
    53   24   25 1
    54   24   56 1
    55   24   57 1
    56   25   26 1
    57   25   28 1
    58   25   29 1
    59   26   27 1
    60   26   58 1
    61   26   59 1
    62   27   60 1
    63   27   61 1
    64   28   62 1
    65   28   63 1
    66   28   64 1
    67   29   65 1
    68   29   66 1
    69   29   67 1
    70   30   31 2
    71   30   32 1
    72   33   68 1
    73   33   69 1
    74   33   70 1
    75   34   71 1
    76   34   72 1
    77   34   73 1
    78   35   74 1
    79   35   75 1
    80   35   76 1
    81   36   77 1
    82   36   78 1
    83   36   79 1
    84   37   80 1
@<TRIPOS>MOLECULE
ZINC13516806
   39    40     0     0     0
SMALL
USER_CHARGES

@<TRIPOS>ATOM
      1 C1          1.0755   -0.5545   -0.4597 C.2       1 <0>        -0.3270
      2 C2          2.2631    0.0958   -0.4735 C.2       1 <0>         0.2232
      3 N1          2.3268    1.3767   -0.0128 N.am      1 <0>        -0.5312
      4 C3          1.2214    1.9882    0.4507 C.2       1 <0>         0.6626
      5 O1          1.2968    3.1353    0.8589 O.2       1 <0>        -0.5596
      6 N2          0.0462    1.3618    0.4706 N.2       1 <0>        -0.6291
      7 C4         -0.0640    0.1145    0.0323 C.2       1 <0>         0.5058
      8 N3         -1.2830   -0.5225    0.0577 N.pl3     1 <0>        -0.8229
      9 C5          3.6056    2.0915   -0.0216 C.3       1 <0>         0.2770
     10 H1          3.4348    3.1523   -0.2050 H         1 <0>         0.1230
     11 C6          4.3205    1.9027    1.3336 C.3       1 <0>        -0.1502
     12 C7          5.3198    0.7554    1.0221 C.3       1 <0>        -0.1538
     13 C8          5.6762    1.0682   -0.4530 C.3       1 <0>         0.0709
     14 H2          6.4491    1.8353   -0.5010 H         1 <0>         0.0963
     15 O2          4.4562    1.5529   -1.0405 O.3       1 <0>        -0.3489
     16 C9          6.1443   -0.2015   -1.1670 C.3       1 <0>         0.1340
     17 O3          6.5779    0.1274   -2.4883 O.3       1 <0>        -0.7602
     18 P1          7.1373   -0.9692   -3.5260 P.3       1 <0>         2.2902
     19 O4          8.3094   -1.7400   -2.8786 O.2       1 <0>        -1.1058
     20 O5          6.0076   -1.9589   -3.8880 O.3       1 <0>        -1.1174
     21 O6          7.6524   -0.2311   -4.8609 O.3       1 <0>        -1.0977
     22 P2          8.5695   -0.6818   -6.1050 P.3       1 <0>         2.3456
     23 O7          9.7435   -1.5459   -5.5931 O.2       1 <0>        -1.1161
     24 O8          7.7200   -1.5042   -7.0996 O.3       1 <0>        -1.1402
     25 O9          9.1483    0.6250   -6.8463 O.3       1 <0>        -1.1051
     26 P3         10.3244    0.8746   -7.9171 P.3       1 <0>         2.2212
     27 O10        11.5568   -0.0234   -7.5579 O.2       1 <0>        -1.1973
     28 O11         9.8113    0.5079   -9.3512 O.3       1 <0>        -1.2115
     29 O12        10.7493    2.3821   -7.8841 O.3       1 <0>        -1.2131
     30 H3          1.0013   -1.5685   -0.8242 H         1 <0>         0.1568
     31 H4          3.1502   -0.3954   -0.8451 H         1 <0>         0.1842
     32 H5         -1.3605   -1.4345   -0.2634 H         1 <0>         0.4133
     33 H6         -2.0651   -0.0596    0.3968 H         1 <0>         0.4057
     34 H7          4.8500    2.8105    1.6226 H         1 <0>         0.0953
     35 H8          3.6133    1.6020    2.1067 H         1 <0>         0.0825
     36 H9          6.2009    0.8176    1.6608 H         1 <0>         0.0966
     37 H10         4.8397   -0.2190    1.1121 H         1 <0>         0.0825
     38 H11         6.9713   -0.6458   -0.6132 H         1 <0>         0.0709
     39 H12         5.3199   -0.9125   -1.2215 H         1 <0>         0.0495
@<TRIPOS>BOND
     1    1    7 1
     2    1    2 2
     3    1   30 1
     4    2    3 1
     5    2   31 1
     6    3    4 am
     7    3    9 1
     8    4    5 2
     9    4    6 1
    10    6    7 2
    11    7    8 1
    12    8   32 1
    13    8   33 1
    14    9   10 1
    15    9   15 1
    16    9   11 1
    17   11   12 1
    18   11   34 1
    19   11   35 1
    20   12   13 1
    21   12   36 1
    22   12   37 1
    23   13   14 1
    24   13   15 1
    25   13   16 1
    26   16   17 1
    27   16   38 1
    28   16   39 1
    29   17   18 1
    30   18   19 2
    31   18   20 1
    32   18   21 1
    33   21   22 1
    34   22   23 2
    35   22   24 1
    36   22   25 1
    37   25   26 1
    38   26   27 2
    39   26   28 1
    40   26   29 1
@<TRIPOS>MOLECULE
ZINC13516806
   40    41     0     0     0
SMALL
USER_CHARGES

@<TRIPOS>ATOM
      1 C1          1.0755   -0.5545   -0.4597 C.2       1 <0>        -0.3245
      2 C2          2.2631    0.0958   -0.4735 C.2       1 <0>         0.2200
      3 N1          2.3268    1.3767   -0.0128 N.am      1 <0>        -0.5327
      4 C3          1.2214    1.9882    0.4507 C.2       1 <0>         0.6626
      5 O1          1.2968    3.1353    0.8589 O.2       1 <0>        -0.5582
      6 N2          0.0462    1.3618    0.4706 N.2       1 <0>        -0.6275
      7 C4         -0.0640    0.1145    0.0323 C.2       1 <0>         0.5062
      8 N3         -1.2830   -0.5225    0.0577 N.pl3     1 <0>        -0.8214
      9 C5          3.6056    2.0915   -0.0216 C.3       1 <0>         0.2787
     10 H1          3.4348    3.1523   -0.2050 H         1 <0>         0.1231
     11 C6          4.3205    1.9027    1.3336 C.3       1 <0>        -0.1511
     12 C7          5.3198    0.7554    1.0221 C.3       1 <0>        -0.1543
     13 C8          5.6762    1.0682   -0.4530 C.3       1 <0>         0.0718
     14 H2          6.4491    1.8353   -0.5010 H         1 <0>         0.0947
     15 O2          4.4562    1.5529   -1.0405 O.3       1 <0>        -0.3517
     16 C9          6.1443   -0.2015   -1.1670 C.3       1 <0>         0.1340
     17 O3          6.5779    0.1274   -2.4883 O.3       1 <0>        -0.7627
     18 P1          7.1373   -0.9692   -3.5260 P.3       1 <0>         2.2883
     19 O4          8.3094   -1.7400   -2.8786 O.2       1 <0>        -1.1008
     20 O5          6.0076   -1.9589   -3.8880 O.3       1 <0>        -1.1105
     21 O6          7.6524   -0.2311   -4.8609 O.3       1 <0>        -1.0979
     22 P2          8.5695   -0.6818   -6.1050 P.3       1 <0>         2.3538
     23 O7          9.7435   -1.5459   -5.5931 O.2       1 <0>        -1.1053
     24 O8          7.7200   -1.5042   -7.0996 O.3       1 <0>        -1.1155
     25 O9          9.1483    0.6250   -6.8463 O.3       1 <0>        -1.0986
     26 P3         10.3244    0.8746   -7.9171 P.3       1 <0>         2.2762
     27 O10        10.2416   -0.1928   -9.0311 O.2       1 <0>        -1.1170
     28 O11        10.1590    2.3395   -8.5641 O.3       1 <0>        -0.9090
     29 O12        11.6944    0.7756   -7.2098 O.3       1 <0>        -1.1167
     30 H3          1.0013   -1.5685   -0.8242 H         1 <0>         0.1570
     31 H4          3.1502   -0.3954   -0.8451 H         1 <0>         0.1826
     32 H5         -1.3605   -1.4345   -0.2634 H         1 <0>         0.4139
     33 H6         -2.0651   -0.0596    0.3968 H         1 <0>         0.4070
     34 H7          4.8500    2.8105    1.6226 H         1 <0>         0.0956
     35 H8          3.6133    1.6020    2.1067 H         1 <0>         0.0844
     36 H9          6.2009    0.8176    1.6608 H         1 <0>         0.0973
     37 H10         4.8397   -0.2190    1.1121 H         1 <0>         0.0835
     38 H11         6.9713   -0.6458   -0.6132 H         1 <0>         0.0726
     39 H12         5.3199   -0.9125   -1.2215 H         1 <0>         0.0523
     40 H13        10.8351    2.5585   -9.2198 H         1 <0>         0.3998
@<TRIPOS>BOND
     1    1    7 1
     2    1    2 2
     3    1   30 1
     4    2    3 1
     5    2   31 1
     6    3    4 am
     7    3    9 1
     8    4    5 2
     9    4    6 1
    10    6    7 2
    11    7    8 1
    12    8   32 1
    13    8   33 1
    14    9   10 1
    15    9   15 1
    16    9   11 1
    17   11   12 1
    18   11   34 1
    19   11   35 1
    20   12   13 1
    21   12   36 1
    22   12   37 1
    23   13   14 1
    24   13   15 1
    25   13   16 1
    26   16   17 1
    27   16   38 1
    28   16   39 1
    29   17   18 1
    30   18   19 2
    31   18   20 1
    32   18   21 1
    33   21   22 1
    34   22   23 2
    35   22   24 1
    36   22   25 1
    37   25   26 1
    38   26   27 2
    39   26   28 1
    40   26   29 1
    41   28   40 1
