@<TRIPOS>MOLECULE
ZINC13523046
   48    51     0     0     0
SMALL
USER_CHARGES
(2S)-1-[2-[[(5R,7S)-3-hydroxy-1-adamantyl]amino]acetyl]pyrrolidine-2-carbonitrile
@<TRIPOS>ATOM
      1 C1         -6.0332    0.3087   -2.7484 C.3       1 <0>        -0.1305
      2 C2         -6.2936    1.5206   -3.6816 C.3       1 <0>        -0.1257
      3 C3         -4.8950    2.1578   -3.8225 C.3       1 <0>         0.2400
      4 H1         -4.4271    1.8197   -4.7471 H         1 <0>         0.1319
      5 N1         -4.0970    1.7183   -2.6686 N.am      1 <0>        -0.5948
      6 C4         -4.9403    0.8713   -1.8056 C.3       1 <0>         0.0828
      7 C5         -2.8094    2.0412   -2.4353 C.2       1 <0>         0.5161
      8 O1         -2.2105    2.7490   -3.2171 O.2       1 <0>        -0.5172
      9 C6         -2.1139    1.5227   -1.2030 C.3       1 <0>        -0.0285
     10 C7         -0.0187    1.5258    0.0104 C.3       1 <0>         0.0687
     11 C8          0.0021   -0.0041    0.0020 C.3       1 <0>        -0.1307
     12 C9          0.7421   -0.5109    1.2415 C.3       1 <0>        -0.0754
     13 H2          0.7568   -1.6008    1.2356 H         1 <0>         0.1026
     14 C10         2.1775    0.0187    1.2307 C.3       1 <0>        -0.1234
     15 C11         2.1567    1.5485    1.2391 C.3       1 <0>        -0.0757
     16 H3          3.1793    1.9258    1.2314 H         1 <0>         0.0994
     17 C12         1.4167    2.0553   -0.0004 C.3       1 <0>        -0.1297
     18 C13         1.4406    2.0419    2.4979 C.3       1 <0>        -0.1506
     19 C14         0.0052    1.5124    2.5088 C.3       1 <0>         0.1495
     20 C15         0.0259   -0.0175    2.5003 C.3       1 <0>        -0.1107
     21 C16        -0.7348    2.0192    1.2692 C.3       1 <0>        -0.1624
     22 O2         -0.6637    1.9732    3.6845 O.3       1 <0>        -0.5460
     23 C17        -5.0083    3.6254   -3.8231 C.1       1 <0>         0.1798
     24 N2         -5.0958    4.7580   -3.8236 N.1       1 <0>        -0.3854
     25 H4         -5.6601   -0.5459   -3.3128 H         1 <0>         0.0923
     26 H5         -6.9319    0.0446   -2.1910 H         1 <0>         0.1047
     27 H6         -6.6679    1.1883   -4.6499 H         1 <0>         0.1110
     28 H7         -6.9903    2.2202   -3.2198 H         1 <0>         0.0927
     29 H8         -4.3516    0.0588   -1.3798 H         1 <0>         0.0922
     30 H9         -5.3914    1.4680   -1.0128 H         1 <0>         0.0894
     31 H10        -2.1137    0.4328   -1.2174 H         1 <0>         0.1653
     32 H11        -2.6387    1.8742   -0.3146 H         1 <0>         0.1620
     33 H12        -1.0205   -0.3814    0.0098 H         1 <0>         0.0883
     34 H13         0.5123   -0.3556   -0.8948 H         1 <0>         0.0942
     35 H14         2.7046   -0.3424    2.1137 H         1 <0>         0.0844
     36 H15         2.6876   -0.3328    0.3339 H         1 <0>         0.0772
     37 H16         1.9269    1.7038   -0.8972 H         1 <0>         0.0942
     38 H17         1.4019    3.1452    0.0056 H         1 <0>         0.0904
     39 H18         1.9677    1.6809    3.3810 H         1 <0>         0.0902
     40 H19         1.4258    3.1318    2.5039 H         1 <0>         0.0745
     41 H20        -0.9967   -0.3948    2.5081 H         1 <0>         0.0787
     42 H21         0.5531   -0.3786    3.3834 H         1 <0>         0.0890
     43 H22        -0.7496    3.1091    1.2752 H         1 <0>         0.0907
     44 H23        -1.7574    1.6419    1.2770 H         1 <0>         0.0943
     45 H24        -0.7143    2.9362    3.7562 H         1 <0>         0.3838
     46 N3         -0.7249    2.0187   -1.1872 N.4       1 <0>        -0.5007
     47 H25        -0.7319    3.0454   -1.1777 H         1 <0>         0.4378
     48 H26        -0.2374    1.6876   -2.0280 H         1 <0>         0.4394
@<TRIPOS>BOND
     1    1    6 1
     2    1    2 1
     3    1   25 1
     4    1   26 1
     5    2    3 1
     6    2   27 1
     7    2   28 1
     8    3    4 1
     9    3    5 1
    10    3   23 1
    11    5    6 1
    12    5    7 am
    13    6   29 1
    14    6   30 1
    15    7    8 2
    16    7    9 1
    17    9   31 1
    18    9   32 1
    19    9   46 1
    20   10   17 1
    21   10   21 1
    22   10   11 1
    23   10   46 1
    24   11   12 1
    25   11   33 1
    26   11   34 1
    27   12   13 1
    28   12   20 1
    29   12   14 1
    30   14   15 1
    31   14   35 1
    32   14   36 1
    33   15   16 1
    34   15   17 1
    35   15   18 1
    36   17   37 1
    37   17   38 1
    38   18   19 1
    39   18   39 1
    40   18   40 1
    41   19   20 1
    42   19   21 1
    43   19   22 1
    44   20   41 1
    45   20   42 1
    46   21   43 1
    47   21   44 1
    48   22   45 1
    49   23   24 3
    50   46   47 1
    51   46   48 1
@<TRIPOS>MOLECULE
ZINC14949358
   50    53     0     0     0
SMALL
USER_CHARGES
(2S)-2-amino-4-(3,4-dihydro-1H-isoquinolin-2-yl)-1-isoindolin-2-yl-butane-1,4-dione
@<TRIPOS>ATOM
      1 C1         -2.4027   -0.0342    0.0006 C.ar      1 <0>        -0.1064
      2 C2         -2.4197    1.3483    0.0156 C.ar      1 <0>        -0.1139
      3 C3         -1.2301    2.0469    0.0189 C.ar      1 <0>        -0.1108
      4 C4         -0.0166    1.3725    0.0096 C.ar      1 <0>        -0.1129
      5 C5          0.0021   -0.0041    0.0020 C.ar      1 <0>        -0.0727
      6 C6         -1.1979   -0.7052   -0.0062 C.ar      1 <0>        -0.1163
      7 C7          1.2779   -0.8042    0.0064 C.3       1 <0>        -0.0977
      8 C8          2.4553    0.0471   -0.4665 C.3       1 <0>         0.1072
      9 N1          2.4031    1.3305    0.2532 N.am      1 <0>        -0.5887
     10 C9          1.2463    2.1967    0.0020 C.3       1 <0>         0.1441
     11 C10         3.3787    1.6946    1.1089 C.2       1 <0>         0.5172
     12 O1          4.3243    0.9592    1.2988 O.2       1 <0>        -0.5524
     13 C11         3.2947    3.0154    1.8296 C.3       1 <0>        -0.1690
     14 C12         4.5185    3.1824    2.7326 C.3       1 <0>         0.0387
     15 H1          5.4259    3.0677    2.1397 H         1 <0>         0.1711
     16 C13         4.4974    4.5529    3.3589 C.2       1 <0>         0.5240
     17 O2          4.1054    4.6932    4.4980 O.2       1 <0>        -0.5122
     18 N2          4.9142    5.6228    2.6531 N.am      1 <0>        -0.5904
     19 C14         5.4195    5.6182    1.2766 C.3       1 <0>         0.1346
     20 C15         5.7599    7.0403    0.9085 C.ar      1 <0>        -0.1214
     21 C16         6.2654    7.5837   -0.2602 C.ar      1 <0>        -0.0878
     22 C17         6.5015    8.9421   -0.3472 C.ar      1 <0>        -0.1062
     23 C18         6.2324    9.7603    0.7342 C.ar      1 <0>        -0.1012
     24 C19         5.7276    9.2187    1.9005 C.ar      1 <0>        -0.0890
     25 C20         5.4911    7.8574    1.9884 C.ar      1 <0>        -0.1104
     26 C21         4.9550    7.0133    3.1169 C.3       1 <0>         0.1507
     27 H2         -3.3304   -0.5870   -0.0061 H         1 <0>         0.1290
     28 H3         -3.3603    1.8790    0.0238 H         1 <0>         0.1296
     29 H4         -1.2430    3.1268    0.0311 H         1 <0>         0.1259
     30 H5         -1.1867   -1.7851   -0.0177 H         1 <0>         0.1265
     31 H6          1.4753   -1.1586    1.0181 H         1 <0>         0.0818
     32 H7          1.1661   -1.6610   -0.6581 H         1 <0>         0.0962
     33 H8          3.3924   -0.4630   -0.2435 H         1 <0>         0.1066
     34 H9          2.3767    0.2216   -1.5396 H         1 <0>         0.0877
     35 H10         1.3586    2.6793   -0.9689 H         1 <0>         0.0952
     36 H11         1.1873    2.9579    0.7799 H         1 <0>         0.0945
     37 H12         3.2675    3.8257    1.1011 H         1 <0>         0.1452
     38 H13         2.3894    3.0414    2.4360 H         1 <0>         0.1321
     39 H14         6.3109    4.9942    1.2123 H         1 <0>         0.0949
     40 H15         4.6520    5.2381    0.6025 H         1 <0>         0.0902
     41 H16         6.4757    6.9447   -1.1051 H         1 <0>         0.1298
     42 H17         6.8965    9.3645   -1.2593 H         1 <0>         0.1357
     43 H18         6.4164   10.8224    0.6671 H         1 <0>         0.1362
     44 H19         5.5171    9.8581    2.7450 H         1 <0>         0.1315
     45 H20         3.9506    7.3443    3.3810 H         1 <0>         0.0965
     46 H21         5.6115    7.0946    3.9832 H         1 <0>         0.0962
     47 H22         3.6588    2.2464    4.3523 H         1 <0>         0.4408
     48 H23         4.5694    1.2344    3.3970 H         1 <0>         0.4510
     49 N3          4.5119    2.1677    3.8012 N.4       1 <0>        -0.6276
     50 H24         5.3218    2.3178    4.4142 H         1 <0>         0.4465
@<TRIPOS>BOND
     1    1    6 ar
     2    1    2 ar
     3    1   27 1
     4    2    3 ar
     5    2   28 1
     6    3    4 ar
     7    3   29 1
     8    4   10 1
     9    4    5 ar
    10    5    6 ar
    11    5    7 1
    12    6   30 1
    13    7    8 1
    14    7   31 1
    15    7   32 1
    16    8    9 1
    17    8   33 1
    18    8   34 1
    19    9   10 1
    20    9   11 am
    21   10   35 1
    22   10   36 1
    23   11   12 2
    24   11   13 1
    25   13   14 1
    26   13   37 1
    27   13   38 1
    28   14   15 1
    29   14   16 1
    30   14   49 1
    31   16   17 2
    32   16   18 am
    33   18   26 1
    34   18   19 1
    35   19   20 1
    36   19   39 1
    37   19   40 1
    38   20   25 ar
    39   20   21 ar
    40   21   22 ar
    41   21   41 1
    42   22   23 ar
    43   22   42 1
    44   23   24 ar
    45   23   43 1
    46   24   25 ar
    47   24   44 1
    48   25   26 1
    49   26   45 1
    50   26   46 1
    51   47   49 1
    52   48   49 1
    53   49   50 1
@<TRIPOS>MOLECULE
ZINC14949370
   68    72     0     0     0
SMALL
USER_CHARGES
(2S)-2-amino-4-[4-[bis(4-fluorophenyl)methyl]piperazin-1-yl]-1-isoindolin-2-yl-butane-1,4-dione
@<TRIPOS>ATOM
      1 C1          1.3629    8.8733    3.0523 C.ar      1 <0>        -0.1013
      2 C2          2.0888    8.8857    1.8758 C.ar      1 <0>        -0.1065
      3 C3          2.1537    7.7492    1.0931 C.ar      1 <0>        -0.0885
      4 C4          1.4931    6.5974    1.4852 C.ar      1 <0>        -0.1220
      5 C5          0.7681    6.5851    2.6602 C.ar      1 <0>        -0.1103
      6 C6          0.7032    7.7245    3.4439 C.ar      1 <0>        -0.0894
      7 C7          0.1580    5.2183    2.8421 C.3       1 <0>         0.1474
      8 N1          0.5596    4.3948    1.6972 N.am      1 <0>        -0.5890
      9 C8          1.4001    5.2375    0.8407 C.3       1 <0>         0.1338
     10 C9          0.2250    3.1079    1.4772 C.2       1 <0>         0.5247
     11 O1         -0.4770    2.5194    2.2721 O.2       1 <0>        -0.5138
     12 C10         0.7233    2.4001    0.2436 C.3       1 <0>         0.0447
     13 H1          1.7776    2.6594    0.0670 H         1 <0>         0.1654
     14 C11        -0.1449    2.7907   -0.9541 C.3       1 <0>        -0.1705
     15 C12         0.4261    2.1811   -2.2085 C.2       1 <0>         0.5134
     16 O2          1.4287    1.5012   -2.1502 O.2       1 <0>        -0.5548
     17 N2         -0.1774    2.3914   -3.3951 N.am      1 <0>        -0.5892
     18 C13        -1.3975    3.2076   -3.4873 C.3       1 <0>         0.1006
     19 C14        -1.1859    4.2693   -4.5782 C.3       1 <0>         0.0347
     20 N3         -0.7861    3.6075   -5.8273 N.3       1 <0>        -0.5291
     21 C15         0.5021    2.9180   -5.6764 C.3       1 <0>         0.0387
     22 C16         0.3632    1.8059   -4.6313 C.3       1 <0>         0.1114
     23 C17        -0.7434    4.5654   -6.9403 C.3       1 <0>         0.1770
     24 C18        -0.5000    3.8257   -8.2305 C.ar      1 <0>        -0.0982
     25 C19        -1.1808    2.6513   -8.4924 C.ar      1 <0>        -0.0612
     26 C20        -0.9620    1.9747   -9.6774 C.ar      1 <0>        -0.1564
     27 C21        -0.0528    2.4679  -10.5978 C.ar      1 <0>         0.1073
     28 C22         0.6323    3.6414  -10.3322 C.ar      1 <0>        -0.1525
     29 C23         0.4080    4.3191   -9.1488 C.ar      1 <0>        -0.0806
     30 F1          0.1653    1.8048  -11.7545 F         1 <0>        -0.1358
     31 C24        -2.0570    5.2994   -7.0221 C.ar      1 <0>        -0.0990
     32 C25        -3.2459    4.6000   -6.9300 C.ar      1 <0>        -0.0645
     33 C26        -4.4511    5.2726   -7.0001 C.ar      1 <0>        -0.1559
     34 C27        -4.4676    6.6463   -7.1731 C.ar      1 <0>         0.1072
     35 C28        -3.2762    7.3451   -7.2704 C.ar      1 <0>        -0.1519
     36 C29        -2.0722    6.6709   -7.1948 C.ar      1 <0>        -0.0805
     37 F2         -5.6452    7.3043   -7.2464 F         1 <0>        -0.1355
     38 N4          0.6493    0.9474    0.4490 N.4       1 <0>        -0.6715
     39 H2          1.3113    9.7614    3.6647 H         1 <0>         0.1360
     40 H3          2.6052    9.7832    1.5689 H         1 <0>         0.1354
     41 H4          2.7208    7.7591    0.1740 H         1 <0>         0.1287
     42 H5          0.1359    7.7152    4.3629 H         1 <0>         0.1314
     43 H6          0.5247    4.7749    3.7796 H         1 <0>         0.0968
     44 H7         -0.9376    5.3083    2.8830 H         1 <0>         0.0971
     45 H8          0.9510    5.3353   -0.1587 H         1 <0>         0.0893
     46 H9          2.4075    4.8054    0.7492 H         1 <0>         0.0945
     47 H10        -1.1695    2.4211   -0.8003 H         1 <0>         0.1321
     48 H11        -0.1613    3.8861   -1.0534 H         1 <0>         0.1414
     49 H12        -2.2505    2.5637   -3.7477 H         1 <0>         0.0949
     50 H13        -1.5874    3.6940   -2.5191 H         1 <0>         0.0902
     51 H14        -2.1230    4.8228   -4.7379 H         1 <0>         0.1033
     52 H15        -0.3969    4.9676   -4.2621 H         1 <0>         0.0445
     53 H16         0.7993    2.4811   -6.6412 H         1 <0>         0.1012
     54 H17         1.2669    3.6374   -5.3485 H         1 <0>         0.0446
     55 H18         1.3472    1.3592   -4.4257 H         1 <0>         0.1046
     56 H19        -0.3226    1.0286   -4.9994 H         1 <0>         0.0890
     57 H20         0.0756    5.2745   -6.7497 H         1 <0>         0.0648
     58 H21        -1.8869    2.2647   -7.7724 H         1 <0>         0.1381
     59 H22        -1.4970    1.0594   -9.8835 H         1 <0>         0.1373
     60 H23         1.3414    4.0272  -11.0496 H         1 <0>         0.1382
     61 H24         0.9420    5.2346   -8.9415 H         1 <0>         0.1310
     62 H25        -3.2328    3.5280   -6.7992 H         1 <0>         0.1387
     63 H26        -5.3797    4.7266   -6.9241 H         1 <0>         0.1378
     64 H27        -3.2879    8.4166   -7.4050 H         1 <0>         0.1384
     65 H28        -1.1428    7.2158   -7.2703 H         1 <0>         0.1315
     66 H29         1.0130    0.4308   -0.4515 H         1 <0>         0.4694
     67 H30        -0.3940    0.6571    0.6421 H         1 <0>         0.4581
     68 H31         1.2734    0.6666    1.3102 H         1 <0>         0.4632
@<TRIPOS>BOND
     1    1    6 ar
     2    1    2 ar
     3    1   39 1
     4    2    3 ar
     5    2   40 1
     6    3    4 ar
     7    3   41 1
     8    4    9 1
     9    4    5 ar
    10    5    6 ar
    11    5    7 1
    12    6   42 1
    13    7    8 1
    14    7   43 1
    15    7   44 1
    16    8    9 1
    17    8   10 am
    18    9   45 1
    19    9   46 1
    20   10   11 2
    21   10   12 1
    22   12   13 1
    23   12   14 1
    24   12   38 1
    25   14   15 1
    26   14   47 1
    27   14   48 1
    28   15   16 2
    29   15   17 am
    30   17   22 1
    31   17   18 1
    32   18   19 1
    33   18   49 1
    34   18   50 1
    35   19   20 1
    36   19   51 1
    37   19   52 1
    38   20   21 1
    39   20   23 1
    40   21   22 1
    41   21   53 1
    42   21   54 1
    43   22   55 1
    44   22   56 1
    45   23   24 1
    46   23   31 1
    47   23   57 1
    48   24   29 ar
    49   24   25 ar
    50   25   26 ar
    51   25   58 1
    52   26   27 ar
    53   26   59 1
    54   27   28 ar
    55   27   30 1
    56   28   29 ar
    57   28   60 1
    58   29   61 1
    59   31   36 ar
    60   31   32 ar
    61   32   33 ar
    62   32   62 1
    63   33   34 ar
    64   33   63 1
    65   34   35 ar
    66   34   37 1
    67   35   36 ar
    68   35   64 1
    69   36   65 1
    70   38   66 1
    71   38   67 1
    72   38   68 1
@<TRIPOS>MOLECULE
ZINC14949370
   67    71     0     0     0
SMALL
USER_CHARGES
(2S)-2-amino-4-[4-[bis(4-fluorophenyl)methyl]piperazin-1-yl]-1-isoindolin-2-yl-butane-1,4-dione
@<TRIPOS>ATOM
      1 C1          1.3629    8.8733    3.0523 C.ar      1 <0>        -0.1105
      2 C2          2.0888    8.8857    1.8758 C.ar      1 <0>        -0.1138
      3 C3          2.1537    7.7492    1.0931 C.ar      1 <0>        -0.0935
      4 C4          1.4931    6.5974    1.4852 C.ar      1 <0>        -0.1117
      5 C5          0.7681    6.5851    2.6602 C.ar      1 <0>        -0.1038
      6 C6          0.7032    7.7245    3.4439 C.ar      1 <0>        -0.0943
      7 C7          0.1580    5.2183    2.8421 C.3       1 <0>         0.1481
      8 N1          0.5596    4.3948    1.6972 N.am      1 <0>        -0.6161
      9 C8          1.4001    5.2375    0.8407 C.3       1 <0>         0.1431
     10 C9          0.2250    3.1079    1.4772 C.2       1 <0>         0.5380
     11 O1         -0.4770    2.5194    2.2721 O.2       1 <0>        -0.5040
     12 C10         0.7233    2.4001    0.2436 C.3       1 <0>         0.0889
     13 H1          1.7776    2.6594    0.0670 H         1 <0>         0.0668
     14 C11        -0.1449    2.7907   -0.9541 C.3       1 <0>        -0.1331
     15 C12         0.4261    2.1811   -2.2085 C.2       1 <0>         0.5262
     16 O2          1.4287    1.5012   -2.1502 O.2       1 <0>        -0.5407
     17 N2         -0.1774    2.3914   -3.3951 N.am      1 <0>        -0.6108
     18 C13        -1.3975    3.2076   -3.4873 C.3       1 <0>         0.1083
     19 C14        -1.1859    4.2693   -4.5782 C.3       1 <0>         0.0375
     20 N3         -0.7861    3.6075   -5.8273 N.3       1 <0>        -0.5286
     21 C15         0.5021    2.9180   -5.6764 C.3       1 <0>         0.0419
     22 C16         0.3632    1.8059   -4.6313 C.3       1 <0>         0.1156
     23 C17        -0.7434    4.5654   -6.9403 C.3       1 <0>         0.1724
     24 C18        -0.5000    3.8257   -8.2305 C.ar      1 <0>        -0.0917
     25 C19        -1.1808    2.6513   -8.4924 C.ar      1 <0>        -0.0595
     26 C20        -0.9620    1.9747   -9.6774 C.ar      1 <0>        -0.1559
     27 C21        -0.0528    2.4679  -10.5978 C.ar      1 <0>         0.1026
     28 C22         0.6323    3.6414  -10.3322 C.ar      1 <0>        -0.1539
     29 C23         0.4080    4.3191   -9.1488 C.ar      1 <0>        -0.0819
     30 F1          0.1653    1.8048  -11.7545 F         1 <0>        -0.1388
     31 C24        -2.0570    5.2994   -7.0221 C.ar      1 <0>        -0.0929
     32 C25        -3.2459    4.6000   -6.9300 C.ar      1 <0>        -0.0627
     33 C26        -4.4511    5.2726   -7.0001 C.ar      1 <0>        -0.1553
     34 C27        -4.4676    6.6463   -7.1731 C.ar      1 <0>         0.1029
     35 C28        -3.2762    7.3451   -7.2704 C.ar      1 <0>        -0.1532
     36 C29        -2.0722    6.6709   -7.1948 C.ar      1 <0>        -0.0817
     37 F2         -5.6452    7.3043   -7.2464 F         1 <0>        -0.1384
     38 N4          0.6493    0.9474    0.4490 N.3       1 <0>        -0.8148
     39 H2          1.3113    9.7614    3.6647 H         1 <0>         0.1302
     40 H3          2.6052    9.7832    1.5689 H         1 <0>         0.1298
     41 H4          2.7208    7.7591    0.1740 H         1 <0>         0.1258
     42 H5          0.1359    7.7152    4.3629 H         1 <0>         0.1274
     43 H6          0.5247    4.7749    3.7796 H         1 <0>         0.0852
     44 H7         -0.9376    5.3083    2.8830 H         1 <0>         0.0858
     45 H8          0.9510    5.3353   -0.1587 H         1 <0>         0.0813
     46 H9          2.4075    4.8054    0.7492 H         1 <0>         0.0845
     47 H10        -1.1695    2.4211   -0.8003 H         1 <0>         0.1137
     48 H11        -0.1613    3.8861   -1.0534 H         1 <0>         0.0993
     49 H12        -2.2505    2.5637   -3.7477 H         1 <0>         0.0843
     50 H13        -1.5874    3.6940   -2.5191 H         1 <0>         0.0903
     51 H14        -2.1230    4.8228   -4.7379 H         1 <0>         0.0965
     52 H15        -0.3969    4.9676   -4.2621 H         1 <0>         0.0425
     53 H16         0.7993    2.4811   -6.6412 H         1 <0>         0.0938
     54 H17         1.2669    3.6374   -5.3485 H         1 <0>         0.0420
     55 H18         1.3472    1.3592   -4.4257 H         1 <0>         0.0996
     56 H19        -0.3226    1.0286   -4.9994 H         1 <0>         0.0789
     57 H20         0.0756    5.2745   -6.7497 H         1 <0>         0.0633
     58 H21        -1.8869    2.2647   -7.7724 H         1 <0>         0.1400
     59 H22        -1.4970    1.0594   -9.8835 H         1 <0>         0.1364
     60 H23         1.3414    4.0272  -11.0496 H         1 <0>         0.1360
     61 H24         0.9420    5.2346   -8.9415 H         1 <0>         0.1304
     62 H25        -3.2328    3.5280   -6.7992 H         1 <0>         0.1402
     63 H26        -5.3797    4.7266   -6.9241 H         1 <0>         0.1370
     64 H27        -3.2879    8.4166   -7.4050 H         1 <0>         0.1364
     65 H28        -1.1428    7.2158   -7.2703 H         1 <0>         0.1309
     66 H29         1.0130    0.4308   -0.4515 H         1 <0>         0.3628
     67 H30         1.2734    0.6666    1.3102 H         1 <0>         0.3453
@<TRIPOS>BOND
     1    1    6 ar
     2    1    2 ar
     3    1   39 1
     4    2    3 ar
     5    2   40 1
     6    3    4 ar
     7    3   41 1
     8    4    9 1
     9    4    5 ar
    10    5    6 ar
    11    5    7 1
    12    6   42 1
    13    7    8 1
    14    7   43 1
    15    7   44 1
    16    8    9 1
    17    8   10 am
    18    9   45 1
    19    9   46 1
    20   10   11 2
    21   10   12 1
    22   12   13 1
    23   12   14 1
    24   12   38 1
    25   14   15 1
    26   14   47 1
    27   14   48 1
    28   15   16 2
    29   15   17 am
    30   17   22 1
    31   17   18 1
    32   18   19 1
    33   18   49 1
    34   18   50 1
    35   19   20 1
    36   19   51 1
    37   19   52 1
    38   20   21 1
    39   20   23 1
    40   21   22 1
    41   21   53 1
    42   21   54 1
    43   22   55 1
    44   22   56 1
    45   23   24 1
    46   23   31 1
    47   23   57 1
    48   24   29 ar
    49   24   25 ar
    50   25   26 ar
    51   25   58 1
    52   26   27 ar
    53   26   59 1
    54   27   28 ar
    55   27   30 1
    56   28   29 ar
    57   28   60 1
    58   29   61 1
    59   31   36 ar
    60   31   32 ar
    61   32   33 ar
    62   32   62 1
    63   33   34 ar
    64   33   63 1
    65   34   35 ar
    66   34   37 1
    67   35   36 ar
    68   35   64 1
    69   36   65 1
    70   38   66 1
    71   38   67 1
@<TRIPOS>MOLECULE
ZINC72105280
   71    75     0     0     0
SMALL
USER_CHARGES

@<TRIPOS>ATOM
      1 C1         -0.3177    1.4024    0.4751 C.3       1 <0>        -0.1618
      2 C2         -0.0479   -0.0536    0.0900 C.3       1 <0>         0.0742
      3 H1          0.4379   -0.0878   -0.8851 H         1 <0>         0.0507
      4 C3         -1.3734   -0.8202    0.0280 C.3       1 <0>         0.1175
      5 N1         -1.0797   -2.2439   -0.1954 N.am      1 <0>        -0.5889
      6 C4         -0.1062   -2.9009    0.6901 C.3       1 <0>         0.1013
      7 C5          1.1693   -2.0524    0.7259 C.3       1 <0>         0.0268
      8 N2          0.8262   -0.6727    1.0953 N.3       1 <0>        -0.5248
      9 C6          2.0364    0.1324    1.3079 C.3       1 <0>         0.1756
     10 C7          1.7066    1.3135    2.1839 C.ar      1 <0>        -0.0823
     11 C8          0.8229    1.1670    3.2369 C.ar      1 <0>        -0.0627
     12 C9          0.5200    2.2493    4.0411 C.ar      1 <0>        -0.1557
     13 C10         1.1019    3.4807    3.7918 C.ar      1 <0>         0.1035
     14 C11         1.9868    3.6262    2.7369 C.ar      1 <0>        -0.1503
     15 C12         2.2922    2.5412    1.9372 C.ar      1 <0>        -0.0887
     16 F1          0.8062    4.5395    4.5771 F         1 <0>        -0.1370
     17 C13         3.0897   -0.7116    1.9783 C.ar      1 <0>        -0.1028
     18 C14         2.7598   -1.4851    3.0756 C.ar      1 <0>        -0.0696
     19 C15         3.7248   -2.2597    3.6909 C.ar      1 <0>        -0.1556
     20 C16         5.0224   -2.2609    3.2079 C.ar      1 <0>         0.1080
     21 C17         5.3517   -1.4858    2.1089 C.ar      1 <0>        -0.1507
     22 C18         4.3838   -0.7160    1.4920 C.ar      1 <0>        -0.0799
     23 F2          5.9667   -3.0175    3.8089 F         1 <0>        -0.1349
     24 C19        -1.6868   -2.9285   -1.1850 C.2       1 <0>         0.5111
     25 O1         -2.4872   -2.3709   -1.9055 O.2       1 <0>        -0.5538
     26 C20        -1.3709   -4.3868   -1.3961 C.3       1 <0>        -0.1707
     27 C21        -2.1889   -4.9204   -2.5739 C.3       1 <0>         0.0343
     28 H2         -2.0041   -4.3039   -3.4536 H         1 <0>         0.1718
     29 C22        -1.7838   -6.3428   -2.8633 C.2       1 <0>         0.5249
     30 O2         -2.4652   -7.2614   -2.4598 O.2       1 <0>        -0.5115
     31 N3         -0.6643   -6.5941   -3.5704 N.am      1 <0>        -0.5901
     32 C23         0.2639   -5.6003   -4.1190 C.3       1 <0>         0.1354
     33 C24         1.3652   -6.3451   -4.8303 C.ar      1 <0>        -0.1217
     34 C25         2.4806   -5.8903   -5.5127 C.ar      1 <0>        -0.0879
     35 C26         3.3557   -6.7910   -6.0882 C.ar      1 <0>        -0.1061
     36 C27         3.1178   -8.1488   -5.9824 C.ar      1 <0>        -0.1008
     37 C28         2.0052   -8.6033   -5.3012 C.ar      1 <0>        -0.0887
     38 C29         1.1276   -7.7011   -4.7246 C.ar      1 <0>        -0.1100
     39 C30        -0.1381   -7.9139   -3.9331 C.3       1 <0>         0.1507
     40 N4         -3.6181   -4.8771   -2.2371 N.4       1 <0>        -0.6182
     41 H3          0.6253    1.9470    0.5200 H         1 <0>         0.0776
     42 H4         -0.9671    1.8611   -0.2705 H         1 <0>         0.0632
     43 H5         -0.8036    1.4362    1.4502 H         1 <0>         0.0733
     44 H6         -1.9100   -0.7003    0.9692 H         1 <0>         0.0891
     45 H7         -1.9793   -0.4380   -0.7935 H         1 <0>         0.1036
     46 H8         -0.5211   -2.9811    1.6949 H         1 <0>         0.0945
     47 H9          0.1256   -3.8944    0.3063 H         1 <0>         0.0897
     48 H10         1.8599   -2.4648    1.4615 H         1 <0>         0.1100
     49 H11         1.6385   -2.0592   -0.2579 H         1 <0>         0.0442
     50 H12         2.4111    0.4858    0.3473 H         1 <0>         0.0680
     51 H13         0.3689    0.2065    3.4310 H         1 <0>         0.1380
     52 H14        -0.1706    2.1347    4.8635 H         1 <0>         0.1358
     53 H15         2.4410    4.5863    2.5413 H         1 <0>         0.1372
     54 H16         2.9858    2.6534    1.1170 H         1 <0>         0.1304
     55 H17         1.7476   -1.4837    3.4523 H         1 <0>         0.1393
     56 H18         3.4669   -2.8637    4.5483 H         1 <0>         0.1388
     57 H19         6.3636   -1.4857    1.7316 H         1 <0>         0.1390
     58 H20         4.6394   -0.1148    0.6320 H         1 <0>         0.1322
     59 H21        -0.3083   -4.5011   -1.6103 H         1 <0>         0.1439
     60 H22        -1.6224   -4.9471   -0.4956 H         1 <0>         0.1327
     61 H23        -0.2602   -4.9545   -4.8235 H         1 <0>         0.0942
     62 H24         0.6847   -5.0021   -3.3108 H         1 <0>         0.0891
     63 H25         2.6666   -4.8297   -5.5956 H         1 <0>         0.1291
     64 H26         4.2250   -6.4347   -6.6209 H         1 <0>         0.1356
     65 H27         3.8012   -8.8538   -6.4323 H         1 <0>         0.1363
     66 H28         1.8196   -9.6640   -5.2186 H         1 <0>         0.1318
     67 H29         0.0794   -8.4856   -3.0309 H         1 <0>         0.0969
     68 H30        -0.8671   -8.4475   -4.5429 H         1 <0>         0.0964
     69 H31        -3.8892   -3.9248   -2.0433 H         1 <0>         0.4484
     70 H32        -4.1575   -5.2290   -3.0138 H         1 <0>         0.4424
     71 H33        -3.7891   -5.4479   -1.4227 H         1 <0>         0.4386
@<TRIPOS>BOND
     1    1    2 1
     2    1   41 1
     3    1   42 1
     4    1   43 1
     5    2    3 1
     6    2    8 1
     7    2    4 1
     8    4    5 1
     9    4   44 1
    10    4   45 1
    11    5    6 1
    12    5   24 am
    13    6    7 1
    14    6   46 1
    15    6   47 1
    16    7    8 1
    17    7   48 1
    18    7   49 1
    19    8    9 1
    20    9   10 1
    21    9   17 1
    22    9   50 1
    23   10   15 ar
    24   10   11 ar
    25   11   12 ar
    26   11   51 1
    27   12   13 ar
    28   12   52 1
    29   13   14 ar
    30   13   16 1
    31   14   15 ar
    32   14   53 1
    33   15   54 1
    34   17   22 ar
    35   17   18 ar
    36   18   19 ar
    37   18   55 1
    38   19   20 ar
    39   19   56 1
    40   20   21 ar
    41   20   23 1
    42   21   22 ar
    43   21   57 1
    44   22   58 1
    45   24   25 2
    46   24   26 1
    47   26   27 1
    48   26   59 1
    49   26   60 1
    50   27   28 1
    51   27   29 1
    52   27   40 1
    53   29   30 2
    54   29   31 am
    55   31   39 1
    56   31   32 1
    57   32   33 1
    58   32   61 1
    59   32   62 1
    60   33   38 ar
    61   33   34 ar
    62   34   35 ar
    63   34   63 1
    64   35   36 ar
    65   35   64 1
    66   36   37 ar
    67   36   65 1
    68   37   38 ar
    69   37   66 1
    70   38   39 1
    71   39   67 1
    72   39   68 1
    73   40   69 1
    74   40   70 1
    75   40   71 1
@<TRIPOS>MOLECULE
ZINC72105280
   70    74     0     0     0
SMALL
USER_CHARGES

@<TRIPOS>ATOM
      1 C1         -0.3177    1.4024    0.4751 C.3       1 <0>        -0.1588
      2 C2         -0.0479   -0.0536    0.0900 C.3       1 <0>         0.0742
      3 H1          0.4379   -0.0878   -0.8851 H         1 <0>         0.0491
      4 C3         -1.3734   -0.8202    0.0280 C.3       1 <0>         0.1220
      5 N1         -1.0797   -2.2439   -0.1954 N.am      1 <0>        -0.6112
      6 C4         -0.1062   -2.9009    0.6901 C.3       1 <0>         0.1095
      7 C5          1.1693   -2.0524    0.7259 C.3       1 <0>         0.0298
      8 N2          0.8262   -0.6727    1.0953 N.3       1 <0>        -0.5240
      9 C6          2.0364    0.1324    1.3079 C.3       1 <0>         0.1714
     10 C7          1.7066    1.3135    2.1839 C.ar      1 <0>        -0.0757
     11 C8          0.8229    1.1670    3.2369 C.ar      1 <0>        -0.0614
     12 C9          0.5200    2.2493    4.0411 C.ar      1 <0>        -0.1552
     13 C10         1.1019    3.4807    3.7918 C.ar      1 <0>         0.0988
     14 C11         1.9868    3.6262    2.7369 C.ar      1 <0>        -0.1517
     15 C12         2.2922    2.5412    1.9372 C.ar      1 <0>        -0.0898
     16 F1          0.8062    4.5395    4.5771 F         1 <0>        -0.1399
     17 C13         3.0897   -0.7116    1.9783 C.ar      1 <0>        -0.0974
     18 C14         2.7598   -1.4851    3.0756 C.ar      1 <0>        -0.0673
     19 C15         3.7248   -2.2597    3.6909 C.ar      1 <0>        -0.1554
     20 C16         5.0224   -2.2609    3.2079 C.ar      1 <0>         0.1043
     21 C17         5.3517   -1.4858    2.1089 C.ar      1 <0>        -0.1520
     22 C18         4.3838   -0.7160    1.4920 C.ar      1 <0>        -0.0808
     23 F2          5.9667   -3.0175    3.8089 F         1 <0>        -0.1376
     24 C19        -1.6868   -2.9285   -1.1850 C.2       1 <0>         0.5198
     25 O1         -2.4872   -2.3709   -1.9055 O.2       1 <0>        -0.5329
     26 C20        -1.3709   -4.3868   -1.3961 C.3       1 <0>        -0.1775
     27 C21        -2.1889   -4.9204   -2.5739 C.3       1 <0>         0.1028
     28 H2         -2.0041   -4.3039   -3.4536 H         1 <0>         0.1108
     29 C22        -1.7838   -6.3428   -2.8633 C.2       1 <0>         0.5452
     30 O2         -2.4652   -7.2614   -2.4598 O.2       1 <0>        -0.5143
     31 N3         -0.6643   -6.5941   -3.5704 N.am      1 <0>        -0.6169
     32 C23         0.2639   -5.6003   -4.1190 C.3       1 <0>         0.1443
     33 C24         1.3652   -6.3451   -4.8303 C.ar      1 <0>        -0.1109
     34 C25         2.4806   -5.8903   -5.5127 C.ar      1 <0>        -0.0931
     35 C26         3.3557   -6.7910   -6.0882 C.ar      1 <0>        -0.1137
     36 C27         3.1178   -8.1488   -5.9824 C.ar      1 <0>        -0.1105
     37 C28         2.0052   -8.6033   -5.3012 C.ar      1 <0>        -0.0940
     38 C29         1.1276   -7.7011   -4.7246 C.ar      1 <0>        -0.1035
     39 C30        -0.1381   -7.9139   -3.9331 C.3       1 <0>         0.1506
     40 N4         -3.6181   -4.8771   -2.2371 N.3       1 <0>        -0.8254
     41 H3          0.6253    1.9470    0.5200 H         1 <0>         0.0727
     42 H4         -0.9671    1.8611   -0.2705 H         1 <0>         0.0620
     43 H5         -0.8036    1.4362    1.4502 H         1 <0>         0.0707
     44 H6         -1.9100   -0.7003    0.9692 H         1 <0>         0.0785
     45 H7         -1.9793   -0.4380   -0.7935 H         1 <0>         0.0988
     46 H8         -0.5211   -2.9811    1.6949 H         1 <0>         0.0827
     47 H9          0.1256   -3.8944    0.3063 H         1 <0>         0.0889
     48 H10         1.8599   -2.4648    1.4615 H         1 <0>         0.1031
     49 H11         1.6385   -2.0592   -0.2579 H         1 <0>         0.0423
     50 H12         2.4111    0.4858    0.3473 H         1 <0>         0.0664
     51 H13         0.3689    0.2065    3.4310 H         1 <0>         0.1397
     52 H14        -0.1706    2.1347    4.8635 H         1 <0>         0.1348
     53 H15         2.4410    4.5863    2.5413 H         1 <0>         0.1351
     54 H16         2.9858    2.6534    1.1170 H         1 <0>         0.1298
     55 H17         1.7476   -1.4837    3.4523 H         1 <0>         0.1403
     56 H18         3.4669   -2.8637    4.5483 H         1 <0>         0.1379
     57 H19         6.3636   -1.4857    1.7316 H         1 <0>         0.1372
     58 H20         4.6394   -0.1148    0.6320 H         1 <0>         0.1317
     59 H21        -0.3083   -4.5011   -1.6103 H         1 <0>         0.1011
     60 H22        -1.6224   -4.9471   -0.4956 H         1 <0>         0.1034
     61 H23        -0.2602   -4.9545   -4.8235 H         1 <0>         0.0862
     62 H24         0.6847   -5.0021   -3.3108 H         1 <0>         0.0803
     63 H25         2.6666   -4.8297   -5.5956 H         1 <0>         0.1260
     64 H26         4.2250   -6.4347   -6.6209 H         1 <0>         0.1298
     65 H27         3.8012   -8.8538   -6.4323 H         1 <0>         0.1302
     66 H28         1.8196   -9.6640   -5.2186 H         1 <0>         0.1275
     67 H29         0.0794   -8.4856   -3.0309 H         1 <0>         0.0848
     68 H30        -0.8671   -8.4475   -4.5429 H         1 <0>         0.0852
     69 H31        -3.8152   -5.4414   -1.4242 H         1 <0>         0.3475
     70 H32        -3.9290   -3.9268   -2.1016 H         1 <0>         0.3638
@<TRIPOS>BOND
     1    1    2 1
     2    1   41 1
     3    1   42 1
     4    1   43 1
     5    2    3 1
     6    2    8 1
     7    2    4 1
     8    4    5 1
     9    4   44 1
    10    4   45 1
    11    5    6 1
    12    5   24 am
    13    6    7 1
    14    6   46 1
    15    6   47 1
    16    7    8 1
    17    7   48 1
    18    7   49 1
    19    8    9 1
    20    9   10 1
    21    9   17 1
    22    9   50 1
    23   10   15 ar
    24   10   11 ar
    25   11   12 ar
    26   11   51 1
    27   12   13 ar
    28   12   52 1
    29   13   14 ar
    30   13   16 1
    31   14   15 ar
    32   14   53 1
    33   15   54 1
    34   17   22 ar
    35   17   18 ar
    36   18   19 ar
    37   18   55 1
    38   19   20 ar
    39   19   56 1
    40   20   21 ar
    41   20   23 1
    42   21   22 ar
    43   21   57 1
    44   22   58 1
    45   24   25 2
    46   24   26 1
    47   26   27 1
    48   26   59 1
    49   26   60 1
    50   27   28 1
    51   27   29 1
    52   27   40 1
    53   29   30 2
    54   29   31 am
    55   31   39 1
    56   31   32 1
    57   32   33 1
    58   32   61 1
    59   32   62 1
    60   33   38 ar
    61   33   34 ar
    62   34   35 ar
    63   34   63 1
    64   35   36 ar
    65   35   64 1
    66   36   37 ar
    67   36   65 1
    68   37   38 ar
    69   37   66 1
    70   38   39 1
    71   39   67 1
    72   39   68 1
    73   40   69 1
    74   40   70 1
@<TRIPOS>MOLECULE
ZINC14948119
   32    32     0     0     0
SMALL
USER_CHARGES
(2S,3R)-2-amino-3-methyl-1-thiazolidin-3-yl-pentan-1-one
@<TRIPOS>ATOM
      1 C1          2.1873   -0.0730   -1.2073 C.3       1 <0>        -0.1599
      2 C2          0.7182   -0.4975   -1.2568 C.3       1 <0>        -0.1331
      3 C3          0.0021   -0.0041    0.0020 C.3       1 <0>        -0.1121
      4 H1          0.5293   -0.3651    0.8851 H         1 <0>         0.1225
      5 C4         -0.0187    1.5258    0.0104 C.3       1 <0>        -0.1738
      6 C5         -1.4333   -0.5336    0.0129 C.3       1 <0>         0.0155
      7 H2         -1.4185   -1.6235    0.0069 H         1 <0>         0.1640
      8 C6         -2.1387   -0.0476    1.2528 C.2       1 <0>         0.5182
      9 O1         -2.8888    0.9033    1.1903 O.2       1 <0>        -0.5118
     10 N1         -1.9360   -0.6698    2.4310 N.am      1 <0>        -0.5951
     11 C7         -2.5924   -0.2318    3.6595 C.3       1 <0>         0.0918
     12 C8         -2.8576   -1.4442    4.6046 C.3       1 <0>        -0.0738
     13 S1         -1.2853   -2.3691    4.3008 S.3       1 <0>        -0.2361
     14 C9         -1.0329   -1.8297    2.5567 C.3       1 <0>         0.1248
     15 H3          2.2499    1.0140   -1.1561 H         1 <0>         0.0657
     16 H4          2.6611   -0.5061   -0.3263 H         1 <0>         0.0661
     17 H5          2.6975   -0.4246   -2.1040 H         1 <0>         0.0708
     18 H6          0.6556   -1.5845   -1.3079 H         1 <0>         0.0833
     19 H7          0.2444   -0.0644   -2.1377 H         1 <0>         0.0647
     20 H8          1.0039    1.9031    0.0027 H         1 <0>         0.0940
     21 H9         -0.5459    1.8868   -0.8726 H         1 <0>         0.0583
     22 H10        -0.5289    1.8773    0.9072 H         1 <0>         0.0744
     23 H11        -1.9552    0.4913    4.1686 H         1 <0>         0.0967
     24 H12        -3.5416    0.2422    3.4097 H         1 <0>         0.1115
     25 H13        -3.7285   -2.0192    4.2902 H         1 <0>         0.1092
     26 H14        -2.9435   -1.1297    5.6447 H         1 <0>         0.1390
     27 H15        -1.3221   -2.6197    1.8636 H         1 <0>         0.1082
     28 H16         0.0021   -1.5319    2.3889 H         1 <0>         0.1155
     29 H17        -3.0739   -0.4349   -1.2269 H         1 <0>         0.4431
     30 H18        -2.1712    0.9615   -1.1949 H         1 <0>         0.4434
     31 N2         -2.1288   -0.0563   -1.1954 N.4       1 <0>        -0.6309
     32 H19        -1.6144   -0.3698   -2.0269 H         1 <0>         0.4459
@<TRIPOS>BOND
     1    1    2 1
     2    1   15 1
     3    1   16 1
     4    1   17 1
     5    2    3 1
     6    2   18 1
     7    2   19 1
     8    3    4 1
     9    3    5 1
    10    3    6 1
    11    5   20 1
    12    5   21 1
    13    5   22 1
    14    6    7 1
    15    6    8 1
    16    6   31 1
    17    8    9 2
    18    8   10 am
    19   10   14 1
    20   10   11 1
    21   11   12 1
    22   11   23 1
    23   11   24 1
    24   12   13 1
    25   12   25 1
    26   12   26 1
    27   13   14 1
    28   14   27 1
    29   14   28 1
    30   29   31 1
    31   30   31 1
    32   31   32 1
@<TRIPOS>MOLECULE
ZINC13588224
   38    39     0     0     0
SMALL
USER_CHARGES
(2S)-2-amino-2-cyclohexyl-1-pyrrolidin-1-yl-ethanone
@<TRIPOS>ATOM
      1 C1         -1.4058    5.8055    3.8090 C.3       1 <0>        -0.1282
      2 C2         -0.2661    6.2249    2.8784 C.3       1 <0>        -0.1224
      3 C3         -0.5659    5.7457    1.4567 C.3       1 <0>        -0.1246
      4 C4         -0.6958    4.2212    1.4490 C.3       1 <0>        -0.1047
      5 C5         -1.8356    3.8019    2.3796 C.3       1 <0>        -0.1286
      6 C6         -1.5358    4.2810    3.8013 C.3       1 <0>        -0.1211
      7 C7         -0.9957    3.7421    0.0273 C.3       1 <0>         0.0254
      8 H1         -0.2011    4.0507   -0.6679 H         1 <0>         0.1557
      9 C8         -1.1237    2.2405    0.0197 C.2       1 <0>         0.5166
     10 O1         -2.2217    1.7255    0.0223 O.2       1 <0>        -0.5270
     11 N1         -0.0179    1.4700    0.0101 N.am      1 <0>        -0.5969
     12 C9          1.3681    1.9604   -0.0005 C.3       1 <0>         0.0811
     13 C10         2.2911    0.7243   -0.0432 C.3       1 <0>        -0.1373
     14 C11         1.3681   -0.3787   -0.6252 C.3       1 <0>        -0.1321
     15 C12         0.0021   -0.0041    0.0020 C.3       1 <0>         0.1050
     16 N2         -2.2532    4.3430   -0.4370 N.4       1 <0>        -0.6748
     17 H2         -2.3474    6.2555    3.4614 H         1 <0>         0.0650
     18 H3         -1.1902    6.1500    4.8312 H         1 <0>         0.0752
     19 H4         -0.1728    7.3209    2.8839 H         1 <0>         0.0775
     20 H5          0.6756    5.7750    3.2260 H         1 <0>         0.0728
     21 H6         -1.5075    6.1957    1.1090 H         1 <0>         0.0619
     22 H7          0.2535    6.0472    0.7877 H         1 <0>         0.0826
     23 H8          0.2458    3.7711    1.7965 H         1 <0>         0.1191
     24 H9         -2.7772    4.2520    2.0319 H         1 <0>         0.0621
     25 H10        -1.9291    2.7059    2.3741 H         1 <0>         0.0800
     26 H11        -0.5942    3.8310    4.1490 H         1 <0>         0.0712
     27 H12        -2.3553    3.9795    4.4703 H         1 <0>         0.0764
     28 H13         1.5268    2.5919   -0.8871 H         1 <0>         0.0770
     29 H14         1.5551    2.5510    0.9085 H         1 <0>         0.0786
     30 H15         3.1569    0.9353   -0.6880 H         1 <0>         0.0929
     31 H16         2.6395    0.4915    0.9739 H         1 <0>         0.0851
     32 H17         1.3728   -0.3188   -1.7236 H         1 <0>         0.0837
     33 H18         1.7342   -1.3670   -0.3103 H         1 <0>         0.0983
     34 H19        -0.0892   -0.3777    1.0326 H         1 <0>         0.0830
     35 H20        -0.8390   -0.3789   -0.5997 H         1 <0>         0.0893
     36 H21        -2.4687    3.9985   -1.4592 H         1 <0>         0.4614
     37 H22        -2.1598    5.4390   -0.4315 H         1 <0>         0.4602
     38 H23        -3.0726    4.0414    0.2320 H         1 <0>         0.4601
@<TRIPOS>BOND
     1    1    6 1
     2    1    2 1
     3    1   17 1
     4    1   18 1
     5    2    3 1
     6    2   19 1
     7    2   20 1
     8    3    4 1
     9    3   21 1
    10    3   22 1
    11    4    5 1
    12    4    7 1
    13    4   23 1
    14    5    6 1
    15    5   24 1
    16    5   25 1
    17    6   26 1
    18    6   27 1
    19    7    8 1
    20    7    9 1
    21    7   16 1
    22    9   10 2
    23    9   11 am
    24   11   15 1
    25   11   12 1
    26   12   13 1
    27   12   28 1
    28   12   29 1
    29   13   14 1
    30   13   30 1
    31   13   31 1
    32   14   15 1
    33   14   32 1
    34   14   33 1
    35   15   34 1
    36   15   35 1
    37   16   36 1
    38   16   37 1
    39   16   38 1
@<TRIPOS>MOLECULE
ZINC13473901
   39    40     0     0     0
SMALL
USER_CHARGES
(2S)-1-[(2S)-2-amino-2-cyclohexyl-acetyl]pyrrolidine-2-carbonitrile
@<TRIPOS>ATOM
      1 C1          5.3317   -0.6522    5.3615 C.3       1 <0>        -0.1275
      2 C2          4.5993   -1.8718    4.7982 C.3       1 <0>        -0.1210
      3 C3          4.7068   -1.8713    3.2720 C.3       1 <0>        -0.1247
      4 C4          4.0731   -0.5943    2.7165 C.3       1 <0>        -0.1048
      5 C5          4.8055    0.6252    3.2798 C.3       1 <0>        -0.1305
      6 C6          4.6980    0.6247    4.8060 C.3       1 <0>        -0.1197
      7 C7          4.1806   -0.5938    1.1903 C.3       1 <0>         0.0205
      8 H1          3.6588   -1.4626    0.7890 H         1 <0>         0.1670
      9 C8          3.5564    0.6640    0.6432 C.2       1 <0>         0.5190
     10 O1          4.2588    1.5976    0.3179 O.2       1 <0>        -0.5107
     11 N1          2.2175    0.7513    0.5153 N.am      1 <0>        -0.5927
     12 C9          1.2500   -0.3030    0.8698 C.3       1 <0>         0.0824
     13 C10         0.0021   -0.0041    0.0020 C.3       1 <0>        -0.1307
     14 C11        -0.0190    1.5473    0.0105 C.3       1 <0>        -0.1258
     15 C12         1.4802    1.9134   -0.0018 C.3       1 <0>         0.2402
     16 H2          1.8000    2.1320   -1.0206 H         1 <0>         0.1319
     17 C13         1.7174    3.0815    0.8619 C.1       1 <0>         0.1781
     18 N2          1.9004    3.9830    1.5284 N.1       1 <0>        -0.3829
     19 H3          5.2551   -0.6526    6.4488 H         1 <0>         0.0753
     20 H4          6.3816   -0.6928    5.0712 H         1 <0>         0.0650
     21 H5          3.5495   -1.8312    5.0885 H         1 <0>         0.0731
     22 H6          5.0508   -2.7815    5.1940 H         1 <0>         0.0781
     23 H7          4.1851   -2.7401    2.8707 H         1 <0>         0.0841
     24 H8          5.7567   -1.9119    2.9817 H         1 <0>         0.0624
     25 H9          3.0232   -0.5537    3.0068 H         1 <0>         0.1233
     26 H10         5.8553    0.5846    2.9895 H         1 <0>         0.0630
     27 H11         4.3540    1.5350    2.8840 H         1 <0>         0.0774
     28 H12         3.6481    0.6653    5.0963 H         1 <0>         0.0710
     29 H13         5.2197    1.4936    5.2072 H         1 <0>         0.0760
     30 H14         0.9981   -0.2461    1.9288 H         1 <0>         0.0894
     31 H15         1.6541   -1.2858    0.6274 H         1 <0>         0.0921
     32 H16        -0.8994   -0.4096    0.4613 H         1 <0>         0.1048
     33 H17         0.1286   -0.3875   -1.0104 H         1 <0>         0.0923
     34 H18        -0.5170    1.9312   -0.8798 H         1 <0>         0.1111
     35 H19        -0.4999    1.9215    0.9143 H         1 <0>         0.0931
     36 H20         6.1013    0.1468    1.1593 H         1 <0>         0.4430
     37 H21         6.0204   -1.5132    1.0988 H         1 <0>         0.4443
     38 N3          5.5931   -0.6475    0.7739 N.4       1 <0>        -0.6320
     39 H22         5.6444   -0.6126   -0.2510 H         1 <0>         0.4456
@<TRIPOS>BOND
     1    1    6 1
     2    1    2 1
     3    1   19 1
     4    1   20 1
     5    2    3 1
     6    2   21 1
     7    2   22 1
     8    3    4 1
     9    3   23 1
    10    3   24 1
    11    4    5 1
    12    4    7 1
    13    4   25 1
    14    5    6 1
    15    5   26 1
    16    5   27 1
    17    6   28 1
    18    6   29 1
    19    7    8 1
    20    7    9 1
    21    7   38 1
    22    9   10 2
    23    9   11 am
    24   11   15 1
    25   11   12 1
    26   12   13 1
    27   12   30 1
    28   12   31 1
    29   13   14 1
    30   13   32 1
    31   13   33 1
    32   14   15 1
    33   14   34 1
    34   14   35 1
    35   15   16 1
    36   15   17 1
    37   17   18 3
    38   36   38 1
    39   37   38 1
    40   38   39 1
@<TRIPOS>MOLECULE
ZINC14949367
   58    61     0     0     0
SMALL
USER_CHARGES
(2S)-2-amino-4-(6,7-dimethoxy-3,4-dihydro-1H-isoquinolin-2-yl)-1-isoindolin-2-yl-butane-1,4-dione
@<TRIPOS>ATOM
      1 C1          3.5501    2.2190   -0.0247 C.3       1 <0>         0.0237
      2 O1          2.3677    1.4166   -0.0180 O.3       1 <0>        -0.3016
      3 C2          1.1765    2.0724    0.0020 C.ar      1 <0>         0.1172
      4 C3          1.1446    3.4545    0.0144 C.ar      1 <0>        -0.1747
      5 C4         -0.0675    4.1344    0.0348 C.ar      1 <0>        -0.0667
      6 C5         -1.2473    3.4236    0.0329 C.ar      1 <0>        -0.1103
      7 C6         -1.2207    2.0355    0.0189 C.ar      1 <0>        -0.1682
      8 C7         -0.0164    1.3557    0.0095 C.ar      1 <0>         0.1088
      9 O2          0.0021   -0.0041    0.0020 O.3       1 <0>        -0.3011
     10 C8         -1.2622   -0.6701    0.0105 C.3       1 <0>         0.0246
     11 C9         -2.5959    4.0992    0.0342 C.3       1 <0>         0.1488
     12 N1         -2.4320    5.5289    0.3178 N.am      1 <0>        -0.5879
     13 C10        -1.3494    6.2374   -0.3849 C.3       1 <0>         0.1077
     14 C11        -0.0208    5.6394    0.0744 C.3       1 <0>        -0.0933
     15 C12        -3.2401    6.1684    1.1863 C.2       1 <0>         0.5175
     16 O3         -3.0828    7.3514    1.4027 O.2       1 <0>        -0.5524
     17 C13        -4.3392    5.4136    1.8886 C.3       1 <0>        -0.1694
     18 C14        -5.1026    6.3657    2.8116 C.3       1 <0>         0.0386
     19 H1         -5.4605    7.2198    2.2368 H         1 <0>         0.1711
     20 C15        -6.2762    5.6422    3.4200 C.2       1 <0>         0.5239
     21 O4         -6.2015    5.2079    4.5499 O.2       1 <0>        -0.5121
     22 N2         -7.4090    5.4777    2.7084 N.am      1 <0>        -0.5904
     23 C16        -7.6577    5.9466    1.3415 C.3       1 <0>         0.1347
     24 C17        -9.0564    5.5311    0.9617 C.ar      1 <0>        -0.1214
     25 C18        -9.7787    5.7190   -0.2044 C.ar      1 <0>        -0.0878
     26 C19       -11.0704    5.2394   -0.3043 C.ar      1 <0>        -0.1062
     27 C20       -11.6429    4.5704    0.7616 C.ar      1 <0>        -0.1012
     28 C21       -10.9225    4.3822    1.9253 C.ar      1 <0>        -0.0890
     29 C22        -9.6281    4.8629    2.0261 C.ar      1 <0>        -0.1104
     30 C23        -8.6308    4.8012    3.1552 C.3       1 <0>         0.1507
     31 H2          4.4277    1.5728   -0.0409 H         1 <0>         0.1069
     32 H3          3.5517    2.8563   -0.9090 H         1 <0>         0.0581
     33 H4          3.5727    2.8401    0.8708 H         1 <0>         0.0567
     34 H5          2.0701    4.0110    0.0079 H         1 <0>         0.1394
     35 H6         -2.1481    1.4820    0.0195 H         1 <0>         0.1384
     36 H7         -1.8146   -0.3896    0.9073 H         1 <0>         0.0548
     37 H8         -1.8316   -0.3800   -0.8725 H         1 <0>         0.0570
     38 H9         -1.1047   -1.7486    0.0032 H         1 <0>         0.1062
     39 H10        -3.0650    3.9745   -0.9417 H         1 <0>         0.0952
     40 H11        -3.2267    3.6482    0.8002 H         1 <0>         0.0935
     41 H12        -1.4605    6.1060   -1.4612 H         1 <0>         0.0881
     42 H13        -1.3821    7.2986   -0.1378 H         1 <0>         0.1068
     43 H14         0.1854    5.9649    1.0940 H         1 <0>         0.0818
     44 H15         0.7761    5.9906   -0.5812 H         1 <0>         0.0953
     45 H16        -5.0238    4.9974    1.1496 H         1 <0>         0.1452
     46 H17        -3.9059    4.6057    2.4781 H         1 <0>         0.1322
     47 H18        -7.5687    7.0322    1.3013 H         1 <0>         0.0949
     48 H19        -6.9409    5.4908    0.6584 H         1 <0>         0.0902
     49 H20        -9.3317    6.2415   -1.0372 H         1 <0>         0.1298
     50 H21       -11.6328    5.3874   -1.2143 H         1 <0>         0.1357
     51 H22       -12.6525    4.1948    0.6844 H         1 <0>         0.1361
     52 H23       -11.3698    3.8593    2.7577 H         1 <0>         0.1315
     53 H24        -8.4101    3.7614    3.3968 H         1 <0>         0.0963
     54 H25        -9.0338    5.3076    4.0323 H         1 <0>         0.0962
     55 H26        -3.8635    6.0600    4.4270 H         1 <0>         0.4408
     56 H27        -3.4477    7.3777    3.5014 H         1 <0>         0.4511
     57 N3         -4.2251    6.8482    3.8926 N.4       1 <0>        -0.6276
     58 H28        -4.7645    7.4580    4.5183 H         1 <0>         0.4465
@<TRIPOS>BOND
     1    1    2 1
     2    1   31 1
     3    1   32 1
     4    1   33 1
     5    2    3 1
     6    3    8 ar
     7    3    4 ar
     8    4    5 ar
     9    4   34 1
    10    5   14 1
    11    5    6 ar
    12    6    7 ar
    13    6   11 1
    14    7    8 ar
    15    7   35 1
    16    8    9 1
    17    9   10 1
    18   10   36 1
    19   10   37 1
    20   10   38 1
    21   11   12 1
    22   11   39 1
    23   11   40 1
    24   12   13 1
    25   12   15 am
    26   13   14 1
    27   13   41 1
    28   13   42 1
    29   14   43 1
    30   14   44 1
    31   15   16 2
    32   15   17 1
    33   17   18 1
    34   17   45 1
    35   17   46 1
    36   18   19 1
    37   18   20 1
    38   18   57 1
    39   20   21 2
    40   20   22 am
    41   22   30 1
    42   22   23 1
    43   23   24 1
    44   23   47 1
    45   23   48 1
    46   24   29 ar
    47   24   25 ar
    48   25   26 ar
    49   25   49 1
    50   26   27 ar
    51   26   50 1
    52   27   28 ar
    53   27   51 1
    54   28   29 ar
    55   28   52 1
    56   29   30 1
    57   30   53 1
    58   30   54 1
    59   55   57 1
    60   56   57 1
    61   57   58 1
@<TRIPOS>MOLECULE
ZINC14949337
   45    47     0     0     0
SMALL
USER_CHARGES
(2S)-2-amino-2-cyclohexyl-1-(3,4-dihydro-1H-isoquinolin-2-yl)ethanone
@<TRIPOS>ATOM
      1 C1         -5.8339    5.9133   -1.8100 C.ar      1 <0>        -0.1046
      2 C2         -4.6811    6.1798   -2.5252 C.ar      1 <0>        -0.1138
      3 C3         -3.7564    5.1768   -2.7305 C.ar      1 <0>        -0.1107
      4 C4         -3.9750    3.9023   -2.2249 C.ar      1 <0>        -0.1162
      5 C5         -5.1186    3.6374   -1.5058 C.ar      1 <0>        -0.0707
      6 C6         -6.0497    4.6491   -1.3030 C.ar      1 <0>        -0.1156
      7 C7         -5.4180    2.2846   -0.9155 C.3       1 <0>        -0.0991
      8 C8         -4.5960    1.1964   -1.6044 C.3       1 <0>         0.1092
      9 N1         -3.2012    1.6621   -1.6792 N.am      1 <0>        -0.5842
     10 C9         -2.9320    2.8523   -2.4931 C.3       1 <0>         0.1432
     11 C10        -2.2127    1.0239   -1.0219 C.2       1 <0>         0.5089
     12 O1         -2.4637    0.0448   -0.3517 O.2       1 <0>        -0.5223
     13 C11        -0.7955    1.5269   -1.1198 C.3       1 <0>         0.0116
     14 H1         -0.7938    2.6165   -1.0898 H         1 <0>         0.1633
     15 C12        -0.1755    1.0519   -2.4354 C.3       1 <0>        -0.1048
     16 C13        -0.1778   -0.4775   -2.4775 C.3       1 <0>        -0.1292
     17 C14         0.4422   -0.9525   -3.7931 C.3       1 <0>        -0.1199
     18 C15         1.8810   -0.4418   -3.8925 C.3       1 <0>        -0.1278
     19 C16         1.8834    1.0876   -3.8504 C.3       1 <0>        -0.1210
     20 C17         1.2634    1.5626   -2.5348 C.3       1 <0>        -0.1260
     21 H2         -6.5632    6.6933   -1.6482 H         1 <0>         0.1297
     22 H3         -4.5053    7.1689   -2.9218 H         1 <0>         0.1301
     23 H4         -2.8553    5.3846   -3.2885 H         1 <0>         0.1260
     24 H5         -6.9506    4.4432   -0.7440 H         1 <0>         0.1274
     25 H6         -6.4785    2.0658   -1.0403 H         1 <0>         0.0982
     26 H7         -5.1772    2.2969    0.1475 H         1 <0>         0.0836
     27 H8         -4.9815    1.0235   -2.6092 H         1 <0>         0.0902
     28 H9         -4.6463    0.2742   -1.0255 H         1 <0>         0.1075
     29 H10        -1.9475    3.2477   -2.2431 H         1 <0>         0.0917
     30 H11        -2.9566    2.5829   -3.5490 H         1 <0>         0.0973
     31 H12        -0.7571    1.4393   -3.2719 H         1 <0>         0.1229
     32 H13         0.4038   -0.8649   -1.6410 H         1 <0>         0.0623
     33 H14        -1.2029   -0.8413   -2.4067 H         1 <0>         0.0807
     34 H15        -0.1394   -0.5651   -4.6296 H         1 <0>         0.0716
     35 H16         0.4405   -2.0421   -3.8231 H         1 <0>         0.0762
     36 H17         2.3227   -0.7802   -4.8298 H         1 <0>         0.0749
     37 H18         2.4626   -0.8292   -3.0560 H         1 <0>         0.0647
     38 H19         1.3018    1.4750   -4.6869 H         1 <0>         0.0731
     39 H20         2.9084    1.4514   -3.9212 H         1 <0>         0.0773
     40 H21         1.2651    2.6522   -2.5049 H         1 <0>         0.0827
     41 H22         1.8450    1.1752   -1.6983 H         1 <0>         0.0623
     42 H23         0.0021   -0.0041    0.0020 H         1 <0>         0.4425
     43 H24         0.9253    1.3792    0.0006 H         1 <0>         0.4428
     44 N2         -0.0252    1.0139    0.0269 N.4       1 <0>        -0.6309
     45 H25        -0.4761    1.3157    0.8986 H         1 <0>         0.4448
@<TRIPOS>BOND
     1    1    6 ar
     2    1    2 ar
     3    1   21 1
     4    2    3 ar
     5    2   22 1
     6    3    4 ar
     7    3   23 1
     8    4   10 1
     9    4    5 ar
    10    5    6 ar
    11    5    7 1
    12    6   24 1
    13    7    8 1
    14    7   25 1
    15    7   26 1
    16    8    9 1
    17    8   27 1
    18    8   28 1
    19    9   10 1
    20    9   11 am
    21   10   29 1
    22   10   30 1
    23   11   12 2
    24   11   13 1
    25   13   14 1
    26   13   15 1
    27   13   44 1
    28   15   20 1
    29   15   16 1
    30   15   31 1
    31   16   17 1
    32   16   32 1
    33   16   33 1
    34   17   18 1
    35   17   34 1
    36   17   35 1
    37   18   19 1
    38   18   36 1
    39   18   37 1
    40   19   20 1
    41   19   38 1
    42   19   39 1
    43   20   40 1
    44   20   41 1
    45   42   44 1
    46   43   44 1
    47   44   45 1
@<TRIPOS>MOLECULE
ZINC14949353
   41    42     0     0     0
SMALL
USER_CHARGES
(2S)-2-amino-2-cyclohexyl-1-(1-piperidyl)ethanone
@<TRIPOS>ATOM
      1 C1         -2.7837    2.6114    0.1620 C.3       1 <0>        -0.1272
      2 C2         -2.3014    1.7037   -0.9713 C.3       1 <0>        -0.1214
      3 C3         -0.7883    1.8569   -1.1386 C.3       1 <0>        -0.1259
      4 C4         -0.0887    1.4623    0.1636 C.3       1 <0>        -0.1011
      5 C5         -0.5709    2.3700    1.2969 C.3       1 <0>        -0.1229
      6 C6         -2.0840    2.2168    1.4642 C.3       1 <0>        -0.1215
      7 C7          1.4244    1.6155   -0.0038 C.3       1 <0>         0.0164
      8 H1          1.6891    2.6513   -0.2629 H         1 <0>         0.1540
      9 C8          2.1140    1.2190    1.2762 C.2       1 <0>         0.5012
     10 O1          2.3159    0.0480    1.5187 O.2       1 <0>        -0.5219
     11 N1          2.5065    2.1658    2.1514 N.am      1 <0>        -0.5855
     12 C9          2.1767    3.5792    1.9231 C.3       1 <0>         0.0874
     13 C10         1.4738    4.1254    3.1752 C.3       1 <0>        -0.1408
     14 C11         2.3583    3.8765    4.3991 C.3       1 <0>        -0.1267
     15 C12         2.5671    2.3715    4.5822 C.3       1 <0>        -0.1380
     16 C13         3.2775    1.8048    3.3489 C.3       1 <0>         0.1041
     17 N2          1.8863    0.7501   -1.0972 N.4       1 <0>        -0.6749
     18 H2         -3.8715    2.5013    0.2823 H         1 <0>         0.0739
     19 H3         -2.5456    3.6578   -0.0797 H         1 <0>         0.0677
     20 H4         -2.5395    0.6573   -0.7296 H         1 <0>         0.0698
     21 H5         -2.8044    1.9873   -1.9075 H         1 <0>         0.0769
     22 H6         -0.4416    1.2044   -1.9534 H         1 <0>         0.0615
     23 H7         -0.5502    2.9033   -1.3803 H         1 <0>         0.0816
     24 H8         -0.3269    0.4160    0.4054 H         1 <0>         0.1056
     25 H9         -0.0679    2.0863    2.2331 H         1 <0>         0.0765
     26 H10        -0.3328    3.4164    1.0552 H         1 <0>         0.0785
     27 H11        -2.4307    2.8693    2.2790 H         1 <0>         0.0760
     28 H12        -2.3221    1.1704    1.7059 H         1 <0>         0.0683
     29 H13         3.1007    4.1455    1.7347 H         1 <0>         0.0866
     30 H14         1.5105    3.6642    1.0519 H         1 <0>         0.0868
     31 H15         1.3024    5.2056    3.0576 H         1 <0>         0.0869
     32 H16         0.5092    3.6133    3.3070 H         1 <0>         0.0756
     33 H17         3.3324    4.3661    4.2531 H         1 <0>         0.0705
     34 H18         1.8706    4.2900    5.2942 H         1 <0>         0.0767
     35 H19         3.1827    2.1928    5.4761 H         1 <0>         0.0870
     36 H20         1.5916    1.8781    4.7042 H         1 <0>         0.0702
     37 H21         3.3427    0.7095    3.4266 H         1 <0>         0.1006
     38 H22         4.2901    2.2280    3.2745 H         1 <0>         0.0825
     39 H23         2.9741    0.8603   -1.2175 H         1 <0>         0.4601
     40 H24         1.3829    1.0395   -2.0315 H         1 <0>         0.4609
     41 H25         1.6477   -0.2975   -0.8614 H         1 <0>         0.4638
@<TRIPOS>BOND
     1    1    6 1
     2    1    2 1
     3    1   18 1
     4    1   19 1
     5    2    3 1
     6    2   20 1
     7    2   21 1
     8    3    4 1
     9    3   22 1
    10    3   23 1
    11    4    5 1
    12    4    7 1
    13    4   24 1
    14    5    6 1
    15    5   25 1
    16    5   26 1
    17    6   27 1
    18    6   28 1
    19    7    8 1
    20    7    9 1
    21    7   17 1
    22    9   10 2
    23    9   11 am
    24   11   16 1
    25   11   12 1
    26   12   13 1
    27   12   29 1
    28   12   30 1
    29   13   14 1
    30   13   31 1
    31   13   32 1
    32   14   15 1
    33   14   33 1
    34   14   34 1
    35   15   16 1
    36   15   35 1
    37   15   36 1
    38   16   37 1
    39   16   38 1
    40   17   39 1
    41   17   40 1
    42   17   41 1
@<TRIPOS>MOLECULE
ZINC00007335
   31    31     0     0     0
SMALL
USER_CHARGES
(2S)-2-amino-3-methyl-1-pyrrolidin-1-yl-butan-1-one
@<TRIPOS>ATOM
      1 C1         -0.2147    0.5337    0.0647 C.3       1 <0>        -0.1684
      2 C2         -0.9302    1.1001    1.2929 C.3       1 <0>        -0.1071
      3 C3         -1.3641    2.5400    1.0115 C.3       1 <0>        -0.1607
      4 C4          0.0203    1.0789    2.4917 C.3       1 <0>         0.0158
      5 H1          0.9175    1.6505    2.2541 H         1 <0>         0.1570
      6 C5         -0.6641    1.6917    3.6863 C.2       1 <0>         0.5163
      7 O1         -1.3909    1.0146    4.3822 O.2       1 <0>        -0.5194
      8 N1         -0.4686    2.9921    3.9813 N.am      1 <0>        -0.5948
      9 C6          0.4677    3.8949    3.2959 C.3       1 <0>         0.0780
     10 C7          0.3676    5.2705    3.9879 C.3       1 <0>        -0.1342
     11 C8         -0.1956    4.9124    5.3886 C.3       1 <0>        -0.1360
     12 C9         -1.1535    3.7433    5.0490 C.3       1 <0>         0.0999
     13 H2          0.0944   -0.4921    0.2652 H         1 <0>         0.0566
     14 H3          0.6629    1.1410   -0.1567 H         1 <0>         0.0769
     15 H4         -0.8919    0.5488   -0.7893 H         1 <0>         0.0921
     16 H5         -1.8078    0.4928    1.5143 H         1 <0>         0.1055
     17 H6         -2.0989    2.5472    0.2064 H         1 <0>         0.0863
     18 H7         -1.8064    2.9685    1.9108 H         1 <0>         0.0683
     19 H8         -0.4963    3.1300    0.7168 H         1 <0>         0.0733
     20 H9          1.4836    3.5087    3.3798 H         1 <0>         0.0780
     21 H10         0.1903    3.9892    2.2460 H         1 <0>         0.0847
     22 H11        -0.3188    5.9266    3.4525 H         1 <0>         0.0865
     23 H12         1.3514    5.7318    4.0742 H         1 <0>         0.0935
     24 H13        -0.7415    5.7530    5.8168 H         1 <0>         0.0973
     25 H14         0.6001    4.5839    6.0573 H         1 <0>         0.0820
     26 H15        -2.1084    4.1274    4.6901 H         1 <0>         0.0834
     27 H16        -1.3030    3.1093    5.9230 H         1 <0>         0.0898
     28 H17         1.0684   -0.3459    3.5452 H         1 <0>         0.4415
     29 H18        -0.4242   -0.8601    3.0220 H         1 <0>         0.4453
     30 N2          0.4011   -0.3159    2.7761 N.4       1 <0>        -0.6321
     31 H19         0.8349   -0.7245    1.9400 H         1 <0>         0.4447
@<TRIPOS>BOND
     1    1    2 1
     2    1   13 1
     3    1   14 1
     4    1   15 1
     5    2    3 1
     6    2    4 1
     7    2   16 1
     8    3   17 1
     9    3   18 1
    10    3   19 1
    11    4    5 1
    12    4    6 1
    13    4   30 1
    14    6    7 2
    15    6    8 am
    16    8   12 1
    17    8    9 1
    18    9   10 1
    19    9   20 1
    20    9   21 1
    21   10   11 1
    22   10   22 1
    23   10   23 1
    24   11   12 1
    25   11   24 1
    26   11   25 1
    27   12   26 1
    28   12   27 1
    29   28   30 1
    30   29   30 1
    31   30   31 1
@<TRIPOS>MOLECULE
ZINC13648755
   48    52     0     0     0
SMALL
USER_CHARGES

@<TRIPOS>ATOM
      1 C1         -0.6757    1.6073   -0.2628 C.3       1 <0>        -0.1024
      2 C2          0.7714    2.1048   -0.0442 C.3       1 <0>        -0.1547
      3 H1          0.9686    2.7113    0.8397 H         1 <0>         0.1332
      4 C3          1.6833    2.2341   -1.2652 C.3       1 <0>        -0.1492
      5 C4          1.6656    0.9096   -0.4232 C.3       1 <0>         0.0554
      6 H2          2.5364    0.6429    0.1759 H         1 <0>         0.1391
      7 N1          0.7720   -0.1813   -0.8565 N.am      1 <0>        -0.5955
      8 C5         -0.5259    0.0669   -0.1874 C.3       1 <0>         0.2220
      9 H3         -0.4936   -0.2660    0.8500 H         1 <0>         0.1363
     10 C6         -1.6202   -0.5975   -0.9138 C.1       1 <0>         0.1989
     11 N2         -2.4648   -1.1103   -1.4743 N.1       1 <0>        -0.3831
     12 C7          1.0744   -1.1957   -1.6908 C.2       1 <0>         0.5493
     13 O1          2.1437   -1.2121   -2.2629 O.2       1 <0>        -0.5039
     14 C8          0.0840   -2.3097   -1.9126 C.3       1 <0>         0.0498
     15 H4         -0.9209   -1.8935   -1.9840 H         1 <0>         0.1242
     16 C9          0.1479   -3.2900   -0.7397 C.3       1 <0>        -0.0752
     17 C10         1.5327   -3.9387   -0.6921 C.3       1 <0>        -0.1088
     18 C11         1.5966   -4.9191    0.4808 C.3       1 <0>        -0.0813
     19 H5          2.5832   -5.3813    0.5148 H         1 <0>         0.0774
     20 C12         1.3403   -4.1672    1.7885 C.3       1 <0>        -0.1107
     21 C13        -0.0445   -3.5185    1.7408 C.3       1 <0>        -0.0804
     22 H6         -0.2270   -2.9829    2.6724 H         1 <0>         0.0787
     23 C14        -0.1084   -2.5381    0.5679 C.3       1 <0>        -0.1245
     24 C15        -1.1092   -4.6020    1.5585 C.3       1 <0>        -0.1385
     25 C16        -0.8530   -5.3539    0.2508 C.3       1 <0>         0.1392
     26 C17         0.5318   -6.0026    0.2985 C.3       1 <0>        -0.1383
     27 C18        -0.9169   -4.3735   -0.9221 C.3       1 <0>        -0.0916
     28 O2         -1.8475   -6.3658    0.0805 O.3       1 <0>        -0.5594
     29 N3          0.4115   -3.0151   -3.1588 N.3       1 <0>        -0.8244
     30 H7         -1.3322    1.9703    0.5280 H         1 <0>         0.1053
     31 H8         -1.0446    1.9116   -1.2423 H         1 <0>         0.0872
     32 H9          1.2112    2.2307   -2.2476 H         1 <0>         0.0991
     33 H10         2.5639    2.8693   -1.1697 H         1 <0>         0.1137
     34 H11         1.7153   -4.4744   -1.6237 H         1 <0>         0.0660
     35 H12         2.2913   -3.1668   -0.5622 H         1 <0>         0.0714
     36 H13         1.3859   -4.8657    2.6241 H         1 <0>         0.0664
     37 H14         2.0989   -3.3953    1.9184 H         1 <0>         0.0668
     38 H15         0.6502   -1.7662    0.6979 H         1 <0>         0.0805
     39 H16        -1.0949   -2.0760    0.5340 H         1 <0>         0.0648
     40 H17        -1.0637   -5.3004    2.3941 H         1 <0>         0.0679
     41 H18        -2.0958   -4.1398    1.5245 H         1 <0>         0.0702
     42 H19         0.7144   -6.5382   -0.6331 H         1 <0>         0.0704
     43 H20         0.5773   -6.7010    1.1341 H         1 <0>         0.0673
     44 H21        -1.9035   -3.9113   -0.9560 H         1 <0>         0.0730
     45 H22        -0.7343   -4.9091   -1.8537 H         1 <0>         0.0696
     46 H23        -1.8647   -7.0236    0.7891 H         1 <0>         0.3773
     47 H24         1.3390   -3.4103   -3.1176 H         1 <0>         0.3510
     48 H25        -0.2753   -3.7253   -3.3636 H         1 <0>         0.3504
@<TRIPOS>BOND
     1    1    8 1
     2    1    2 1
     3    1   30 1
     4    1   31 1
     5    2    3 1
     6    2    5 1
     7    2    4 1
     8    4    5 1
     9    4   32 1
    10    4   33 1
    11    5    6 1
    12    5    7 1
    13    7    8 1
    14    7   12 am
    15    8    9 1
    16    8   10 1
    17   10   11 3
    18   12   13 2
    19   12   14 1
    20   14   15 1
    21   14   16 1
    22   14   29 1
    23   16   23 1
    24   16   27 1
    25   16   17 1
    26   17   18 1
    27   17   34 1
    28   17   35 1
    29   18   19 1
    30   18   26 1
    31   18   20 1
    32   20   21 1
    33   20   36 1
    34   20   37 1
    35   21   22 1
    36   21   23 1
    37   21   24 1
    38   23   38 1
    39   23   39 1
    40   24   25 1
    41   24   40 1
    42   24   41 1
    43   25   26 1
    44   25   27 1
    45   25   28 1
    46   26   42 1
    47   26   43 1
    48   27   44 1
    49   27   45 1
    50   28   46 1
    51   29   47 1
    52   29   48 1
@<TRIPOS>MOLECULE
ZINC28826977
   38    39     0     0     0
SMALL
USER_CHARGES
(2S,3R)-2-amino-1-isoindolin-2-yl-3-methyl-pentan-1-one
@<TRIPOS>ATOM
      1 C1         -0.7527    1.5927   -1.2315 C.3       1 <0>        -0.1621
      2 C2         -0.0127    1.0858    0.0080 C.3       1 <0>        -0.1312
      3 C3         -0.7288    1.5792    1.2668 C.3       1 <0>        -0.1092
      4 H1         -0.8229    2.6745    1.2295 H         1 <0>         0.1197
      5 C4         -2.1214    0.9498    1.3412 C.3       1 <0>        -0.1742
      6 C5          0.0786    1.1786    2.5031 C.3       1 <0>         0.0269
      7 H2          1.0938    1.6003    2.4640 H         1 <0>         0.1581
      8 C6         -0.6268    1.6646    3.7430 C.2       1 <0>         0.5259
      9 O1         -1.3006    0.8974    4.3974 O.2       1 <0>        -0.5193
     10 N1         -0.5088    2.9518    4.1246 N.am      1 <0>        -0.5930
     11 C7          0.2689    3.9954    3.4491 C.3       1 <0>         0.1357
     12 C8          0.1005    5.2724    4.2329 C.ar      1 <0>        -0.1202
     13 C9          0.6142    6.5418    4.0294 C.ar      1 <0>        -0.0883
     14 C10         0.3115    7.5613    4.9112 C.ar      1 <0>        -0.1066
     15 C11        -0.5056    7.3138    5.9986 C.ar      1 <0>        -0.1017
     16 C12        -1.0188    6.0474    6.2020 C.ar      1 <0>        -0.0896
     17 C13        -0.7155    5.0252    5.3189 C.ar      1 <0>        -0.1089
     18 C14        -1.1284    3.5752    5.2983 C.3       1 <0>         0.1483
     19 N2          0.2044   -0.2842    2.5529 N.4       1 <0>        -0.6746
     20 H3         -0.2378    1.2380   -2.1365 H         1 <0>         0.0701
     21 H4         -0.7676    2.6926   -1.2254 H         1 <0>         0.0654
     22 H5         -1.7847    1.2120   -1.2237 H         1 <0>         0.0656
     23 H6          0.0022   -0.0141    0.0019 H         1 <0>         0.0648
     24 H7          1.0193    1.4665    0.0002 H         1 <0>         0.0819
     25 H8         -2.6362    1.3046    2.2462 H         1 <0>         0.0744
     26 H9         -2.0272   -0.1455    1.3785 H         1 <0>         0.0584
     27 H10        -2.7019    1.2379    0.4524 H         1 <0>         0.0930
     28 H11         1.3286    3.7017    3.4194 H         1 <0>         0.0914
     29 H12        -0.1047    4.1246    2.4226 H         1 <0>         0.0917
     30 H13         1.2528    6.7353    3.1802 H         1 <0>         0.1297
     31 H14         0.7132    8.5510    4.7514 H         1 <0>         0.1357
     32 H15        -0.7428    8.1101    6.6886 H         1 <0>         0.1361
     33 H16        -1.6573    5.8544    7.0514 H         1 <0>         0.1311
     34 H17        -2.2226    3.4901    5.2239 H         1 <0>         0.0947
     35 H18        -0.7821    3.0659    6.2097 H         1 <0>         0.0948
     36 H19         0.7849   -0.5722    3.4418 H         1 <0>         0.4625
     37 H20         0.7193   -0.6389    1.6479 H         1 <0>         0.4619
     38 H21        -0.7968   -0.7367    2.6063 H         1 <0>         0.4610
@<TRIPOS>BOND
     1    1    2 1
     2    1   20 1
     3    1   21 1
     4    1   22 1
     5    2    3 1
     6    2   23 1
     7    2   24 1
     8    3    4 1
     9    3    5 1
    10    3    6 1
    11    5   25 1
    12    5   26 1
    13    5   27 1
    14    6    7 1
    15    6    8 1
    16    6   19 1
    17    8    9 2
    18    8   10 am
    19   10   18 1
    20   10   11 1
    21   11   12 1
    22   11   28 1
    23   11   29 1
    24   12   17 ar
    25   12   13 ar
    26   13   14 ar
    27   13   30 1
    28   14   15 ar
    29   14   31 1
    30   15   16 ar
    31   15   32 1
    32   16   17 ar
    33   16   33 1
    34   17   18 1
    35   18   34 1
    36   18   35 1
    37   19   36 1
    38   19   37 1
    39   19   38 1
@<TRIPOS>MOLECULE
ZINC28826977
   37    38     0     0     0
SMALL
USER_CHARGES
(2S,3R)-2-amino-1-isoindolin-2-yl-3-methyl-pentan-1-one
@<TRIPOS>ATOM
      1 C1         -0.7527    1.5927   -1.2315 C.3       1 <0>        -0.1581
      2 C2         -0.0127    1.0858    0.0080 C.3       1 <0>        -0.1085
      3 C3         -0.7288    1.5792    1.2668 C.3       1 <0>        -0.0759
      4 H1         -0.8229    2.6745    1.2295 H         1 <0>         0.0739
      5 C4         -2.1214    0.9498    1.3412 C.3       1 <0>        -0.1569
      6 C5          0.0786    1.1786    2.5031 C.3       1 <0>         0.0718
      7 H2          1.0938    1.6003    2.4640 H         1 <0>         0.1026
      8 C6         -0.6268    1.6646    3.7430 C.2       1 <0>         0.5075
      9 O1         -1.3006    0.8974    4.3974 O.2       1 <0>        -0.5358
     10 N1         -0.5088    2.9518    4.1246 N.am      1 <0>        -0.6134
     11 C7          0.2689    3.9954    3.4491 C.3       1 <0>         0.1420
     12 C8          0.1005    5.2724    4.2329 C.ar      1 <0>        -0.1092
     13 C9          0.6142    6.5418    4.0294 C.ar      1 <0>        -0.0929
     14 C10         0.3115    7.5613    4.9112 C.ar      1 <0>        -0.1134
     15 C11        -0.5056    7.3138    5.9986 C.ar      1 <0>        -0.1110
     16 C12        -1.0188    6.0474    6.2020 C.ar      1 <0>        -0.0946
     17 C13        -0.7155    5.0252    5.3189 C.ar      1 <0>        -0.1034
     18 C14        -1.1284    3.5752    5.2983 C.3       1 <0>         0.1449
     19 N2          0.2044   -0.2842    2.5529 N.3       1 <0>        -0.8012
     20 H3         -0.2378    1.2380   -2.1365 H         1 <0>         0.0558
     21 H4         -0.7676    2.6926   -1.2254 H         1 <0>         0.0513
     22 H5         -1.7847    1.2120   -1.2237 H         1 <0>         0.0565
     23 H6          0.0022   -0.0141    0.0019 H         1 <0>         0.0776
     24 H7          1.0193    1.4665    0.0002 H         1 <0>         0.0609
     25 H8         -2.6362    1.3046    2.2462 H         1 <0>         0.0527
     26 H9         -2.0272   -0.1455    1.3785 H         1 <0>         0.0653
     27 H10        -2.7019    1.2379    0.4524 H         1 <0>         0.0644
     28 H11         1.3286    3.7017    3.4194 H         1 <0>         0.0851
     29 H12        -0.1047    4.1246    2.4226 H         1 <0>         0.0866
     30 H13         1.2528    6.7353    3.1802 H         1 <0>         0.1275
     31 H14         0.7132    8.5510    4.7514 H         1 <0>         0.1304
     32 H15        -0.7428    8.1101    6.6886 H         1 <0>         0.1303
     33 H16        -1.6573    5.8544    7.0514 H         1 <0>         0.1268
     34 H17        -2.2226    3.4901    5.2239 H         1 <0>         0.0833
     35 H18        -0.7821    3.0659    6.2097 H         1 <0>         0.0831
     36 H19         0.7849   -0.5722    3.4418 H         1 <0>         0.3438
     37 H20        -0.7968   -0.7367    2.6063 H         1 <0>         0.3503
@<TRIPOS>BOND
     1    1    2 1
     2    1   20 1
     3    1   21 1
     4    1   22 1
     5    2    3 1
     6    2   23 1
     7    2   24 1
     8    3    4 1
     9    3    5 1
    10    3    6 1
    11    5   25 1
    12    5   26 1
    13    5   27 1
    14    6    7 1
    15    6    8 1
    16    6   19 1
    17    8    9 2
    18    8   10 am
    19   10   18 1
    20   10   11 1
    21   11   12 1
    22   11   28 1
    23   11   29 1
    24   12   17 ar
    25   12   13 ar
    26   13   14 ar
    27   13   30 1
    28   14   15 ar
    29   14   31 1
    30   15   16 ar
    31   15   32 1
    32   16   17 ar
    33   16   33 1
    34   17   18 1
    35   18   34 1
    36   18   35 1
    37   19   36 1
    38   19   37 1
@<TRIPOS>MOLECULE
ZINC14949355
   42    44     0     0     0
SMALL
USER_CHARGES
(2S)-2-amino-2-cyclohexyl-1-isoindolin-2-yl-ethanone
@<TRIPOS>ATOM
      1 C1         -6.1649   -4.5063   -4.1346 C.ar      1 <0>        -0.1015
      2 C2         -4.8191   -4.7000   -4.3849 C.ar      1 <0>        -0.1065
      3 C3         -3.9198   -3.6778   -4.1511 C.ar      1 <0>        -0.0882
      4 C4         -4.3640   -2.4593   -3.6668 C.ar      1 <0>        -0.1213
      5 C5         -5.7080   -2.2658   -3.4168 C.ar      1 <0>        -0.1105
      6 C6         -6.6088   -3.2907   -3.6509 C.ar      1 <0>        -0.0894
      7 C7         -5.9110   -0.8635   -2.9013 C.3       1 <0>         0.1508
      8 N1         -4.5983   -0.2118   -2.8530 N.am      1 <0>        -0.5909
      9 C8         -3.6189   -1.1915   -3.3338 C.3       1 <0>         0.1360
     10 C9         -4.3419    1.0483   -2.4495 C.2       1 <0>         0.5256
     11 O1         -5.2489    1.7624   -2.0777 O.2       1 <0>        -0.5169
     12 C10        -2.9281    1.5699   -2.4602 C.3       1 <0>         0.0203
     13 H1         -2.4179    1.2184   -3.3570 H         1 <0>         0.1639
     14 C11        -2.1881    1.0631   -1.2207 C.3       1 <0>        -0.1052
     15 C12        -0.7527    1.5927   -1.2315 C.3       1 <0>        -0.1254
     16 C13        -0.0127    1.0858    0.0080 C.3       1 <0>        -0.1212
     17 C14        -0.7288    1.5792    1.2668 C.3       1 <0>        -0.1277
     18 C15        -2.1642    1.0497    1.2777 C.3       1 <0>        -0.1200
     19 C16        -2.9042    1.5565    0.0381 C.3       1 <0>        -0.1302
     20 H2         -6.8689   -5.3047   -4.3174 H         1 <0>         0.1361
     21 H3         -4.4712   -5.6498   -4.7634 H         1 <0>         0.1357
     22 H4         -2.8685   -3.8293   -4.3467 H         1 <0>         0.1297
     23 H5         -7.6601   -3.1398   -3.4551 H         1 <0>         0.1312
     24 H6         -6.3441   -0.8964   -1.9016 H         1 <0>         0.0948
     25 H7         -6.5713   -0.3149   -3.5730 H         1 <0>         0.0949
     26 H8         -3.1201   -0.8087   -4.2243 H         1 <0>         0.0922
     27 H9         -2.8834   -1.3916   -2.5546 H         1 <0>         0.0920
     28 H10        -2.1733   -0.0268   -1.2266 H         1 <0>         0.1227
     29 H11        -0.7675    2.6825   -1.2255 H         1 <0>         0.0626
     30 H12        -0.2425    1.2411   -2.1283 H         1 <0>         0.0834
     31 H13         0.0021   -0.0041    0.0020 H         1 <0>         0.0729
     32 H14         1.0099    1.4631    0.0003 H         1 <0>         0.0777
     33 H15        -0.2017    1.2182    2.1499 H         1 <0>         0.0750
     34 H16        -0.7436    2.6691    1.2728 H         1 <0>         0.0650
     35 H17        -2.6744    1.4012    2.1745 H         1 <0>         0.0765
     36 H18        -2.1494   -0.0402    1.2717 H         1 <0>         0.0714
     37 H19        -2.9190    2.6464    0.0441 H         1 <0>         0.0630
     38 H20        -3.9268    1.1792    0.0459 H         1 <0>         0.0801
     39 H21        -3.4160    3.3895   -1.6299 H         1 <0>         0.4431
     40 H22        -2.0139    3.4134   -2.5240 H         1 <0>         0.4439
     41 N2         -2.9615    3.0430   -2.4731 N.4       1 <0>        -0.6310
     42 H23        -3.4902    3.3614   -3.2937 H         1 <0>         0.4454
@<TRIPOS>BOND
     1    1    6 ar
     2    1    2 ar
     3    1   20 1
     4    2    3 ar
     5    2   21 1
     6    3    4 ar
     7    3   22 1
     8    4    9 1
     9    4    5 ar
    10    5    6 ar
    11    5    7 1
    12    6   23 1
    13    7    8 1
    14    7   24 1
    15    7   25 1
    16    8    9 1
    17    8   10 am
    18    9   26 1
    19    9   27 1
    20   10   11 2
    21   10   12 1
    22   12   13 1
    23   12   14 1
    24   12   41 1
    25   14   19 1
    26   14   15 1
    27   14   28 1
    28   15   16 1
    29   15   29 1
    30   15   30 1
    31   16   17 1
    32   16   31 1
    33   16   32 1
    34   17   18 1
    35   17   33 1
    36   17   34 1
    37   18   19 1
    38   18   35 1
    39   18   36 1
    40   19   37 1
    41   19   38 1
    42   39   41 1
    43   40   41 1
    44   41   42 1
@<TRIPOS>MOLECULE
ZINC35931820
   34    34     0     0     0
SMALL
USER_CHARGES

@<TRIPOS>ATOM
      1 C1         -0.0187    1.5258    0.0104 C.3       1 <0>        -0.1593
      2 C2          0.0021   -0.0041    0.0020 C.3       1 <0>        -0.1261
      3 C3          0.7182   -0.4975   -1.2568 C.3       1 <0>        -0.1327
      4 C4          0.7390   -2.0273   -1.2652 C.3       1 <0>        -0.1437
      5 C5          1.4551   -2.5207   -2.5240 C.3       1 <0>         0.0129
      6 H1          2.4472   -2.0723   -2.5770 H         1 <0>         0.1630
      7 C6          1.5842   -4.0213   -2.4729 C.2       1 <0>         0.5136
      8 O1          0.8103   -4.7181   -3.0948 O.2       1 <0>        -0.5256
      9 N1          2.5595   -4.5891   -1.7362 N.am      1 <0>        -0.5939
     10 C7          3.5567   -3.8672   -0.9325 C.3       1 <0>         0.0830
     11 C8          4.4791   -4.9242   -0.2894 C.3       1 <0>        -0.1349
     12 C9          4.2989   -6.1540   -1.2181 C.3       1 <0>        -0.1360
     13 C10         2.7993   -6.0371   -1.5978 C.3       1 <0>         0.1003
     14 N2          0.6798   -2.1361   -3.7110 N.4       1 <0>        -0.6213
     15 H2          1.0039    1.9031    0.0027 H         1 <0>         0.0585
     16 H3         -0.5459    1.8868   -0.8726 H         1 <0>         0.0562
     17 H4         -0.5289    1.8773    0.9072 H         1 <0>         0.0643
     18 H5          0.5293   -0.3651    0.8851 H         1 <0>         0.0718
     19 H6         -1.0205   -0.3814    0.0098 H         1 <0>         0.0689
     20 H7          0.1910   -0.1364   -2.1398 H         1 <0>         0.0627
     21 H8          1.7408   -0.1202   -1.2645 H         1 <0>         0.0828
     22 H9          1.2661   -2.3884   -0.3821 H         1 <0>         0.1163
     23 H10        -0.2836   -2.4046   -1.2575 H         1 <0>         0.0998
     24 H11         4.1407   -3.2060   -1.5728 H         1 <0>         0.0798
     25 H12         3.0578   -3.2884   -0.1552 H         1 <0>         0.0813
     26 H13         5.5153   -4.5859   -0.2941 H         1 <0>         0.0941
     27 H14         4.1524   -5.1554    0.7245 H         1 <0>         0.0864
     28 H15         4.9357   -6.0749   -2.0992 H         1 <0>         0.0827
     29 H16         4.4927   -7.0818   -0.6799 H         1 <0>         0.0975
     30 H17         2.1723   -6.4517   -0.8084 H         1 <0>         0.0839
     31 H18         2.6069   -6.5456   -2.5426 H         1 <0>         0.0896
     32 H19         0.5934   -1.1314   -3.7452 H         1 <0>         0.4408
     33 H20         1.1521   -2.4615   -4.5411 H         1 <0>         0.4408
     34 H21        -0.2385   -2.5512   -3.6620 H         1 <0>         0.4426
@<TRIPOS>BOND
     1    1    2 1
     2    1   15 1
     3    1   16 1
     4    1   17 1
     5    2    3 1
     6    2   18 1
     7    2   19 1
     8    3    4 1
     9    3   20 1
    10    3   21 1
    11    4    5 1
    12    4   22 1
    13    4   23 1
    14    5    6 1
    15    5    7 1
    16    5   14 1
    17    7    8 2
    18    7    9 am
    19    9   13 1
    20    9   10 1
    21   10   11 1
    22   10   24 1
    23   10   25 1
    24   11   12 1
    25   11   26 1
    26   11   27 1
    27   12   13 1
    28   12   28 1
    29   12   29 1
    30   13   30 1
    31   13   31 1
    32   14   32 1
    33   14   33 1
    34   14   34 1
@<TRIPOS>MOLECULE
ZINC11959217
   34    34     0     0     0
SMALL
USER_CHARGES
(2S,3R)-2-amino-3-methyl-1-pyrrolidin-1-yl-pentan-1-one
@<TRIPOS>ATOM
      1 C1          2.1873   -0.0730   -1.2073 C.3       1 <0>        -0.1594
      2 C2          0.7182   -0.4975   -1.2568 C.3       1 <0>        -0.1332
      3 C3          0.0021   -0.0041    0.0020 C.3       1 <0>        -0.1105
      4 H1          0.5293   -0.3651    0.8851 H         1 <0>         0.1220
      5 C4         -0.0187    1.5258    0.0104 C.3       1 <0>        -0.1734
      6 C5         -1.4333   -0.5336    0.0129 C.3       1 <0>         0.0178
      7 H2         -1.4185   -1.6235    0.0069 H         1 <0>         0.1613
      8 C6         -2.1387   -0.0476    1.2528 C.2       1 <0>         0.5186
      9 O1         -2.8888    0.9033    1.1903 O.2       1 <0>        -0.5238
     10 N1         -1.9360   -0.6698    2.4310 N.am      1 <0>        -0.5946
     11 C7         -1.0626   -1.8326    2.6469 C.3       1 <0>         0.0835
     12 C8         -1.1645   -2.2115    4.1393 C.3       1 <0>        -0.1346
     13 C9         -2.5276   -1.6003    4.5586 C.3       1 <0>        -0.1363
     14 C10        -2.5582   -0.3010    3.7156 C.3       1 <0>         0.1010
     15 H3          2.2499    1.0140   -1.1561 H         1 <0>         0.0654
     16 H4          2.6611   -0.5061   -0.3263 H         1 <0>         0.0654
     17 H5          2.6975   -0.4246   -2.1040 H         1 <0>         0.0700
     18 H6          0.6556   -1.5845   -1.3079 H         1 <0>         0.0822
     19 H7          0.2444   -0.0644   -2.1377 H         1 <0>         0.0639
     20 H8          1.0039    1.9031    0.0027 H         1 <0>         0.0922
     21 H9         -0.5459    1.8868   -0.8726 H         1 <0>         0.0574
     22 H10        -0.5289    1.8773    0.9072 H         1 <0>         0.0746
     23 H11        -1.3946   -2.6657    2.0274 H         1 <0>         0.0794
     24 H12        -0.0326   -1.5732    2.4018 H         1 <0>         0.0803
     25 H13        -0.3500   -1.7660    4.7105 H         1 <0>         0.0864
     26 H14        -1.1730   -3.2945    4.2629 H         1 <0>         0.0939
     27 H15        -2.5431   -1.3747    5.6248 H         1 <0>         0.0975
     28 H16        -3.3515   -2.2608    4.2885 H         1 <0>         0.0823
     29 H17        -1.9808    0.4828    4.2057 H         1 <0>         0.0832
     30 H18        -3.5864    0.0255    3.5592 H         1 <0>         0.0894
     31 H19        -3.0739   -0.4349   -1.2269 H         1 <0>         0.4425
     32 H20        -2.1712    0.9615   -1.1949 H         1 <0>         0.4427
     33 N2         -2.1288   -0.0563   -1.1954 N.4       1 <0>        -0.6312
     34 H21        -1.6144   -0.3698   -2.0269 H         1 <0>         0.4442
@<TRIPOS>BOND
     1    1    2 1
     2    1   15 1
     3    1   16 1
     4    1   17 1
     5    2    3 1
     6    2   18 1
     7    2   19 1
     8    3    4 1
     9    3    5 1
    10    3    6 1
    11    5   20 1
    12    5   21 1
    13    5   22 1
    14    6    7 1
    15    6    8 1
    16    6   33 1
    17    8    9 2
    18    8   10 am
    19   10   14 1
    20   10   11 1
    21   11   12 1
    22   11   23 1
    23   11   24 1
    24   12   13 1
    25   12   25 1
    26   12   26 1
    27   13   14 1
    28   13   27 1
    29   13   28 1
    30   14   29 1
    31   14   30 1
    32   31   33 1
    33   32   33 1
    34   33   34 1
@<TRIPOS>MOLECULE
ZINC40862914
   26    26     0     0     0
SMALL
USER_CHARGES

@<TRIPOS>ATOM
      1 C1         -0.0189    1.5390    0.0105 C.3       1 <0>        -0.1345
      2 C2          1.4884    1.9071   -0.0019 C.3       1 <0>        -0.1364
      3 C3          2.0919    0.7759    0.8676 C.3       1 <0>         0.1003
      4 N1          1.3128   -0.4257    0.5176 N.am      1 <0>        -0.5916
      5 C4          0.0021   -0.0041    0.0020 C.3       1 <0>         0.0809
      6 C5          1.7328   -1.6997    0.6479 C.2       1 <0>         0.5176
      7 O1          2.8396   -1.9314    1.0862 O.2       1 <0>        -0.5177
      8 C6          0.8272   -2.8362    0.2489 C.3       1 <0>         0.0359
      9 H1          0.2989   -2.5751   -0.6681 H         1 <0>         0.1743
     10 C7         -0.1865   -3.0965    1.3650 C.3       1 <0>        -0.1127
     11 S1         -1.2766   -4.4646    0.8848 S.3       1 <0>        -0.2343
     12 N2          1.6296   -4.0460    0.0242 N.4       1 <0>        -0.6188
     13 H2         -0.4998    1.9132    0.9143 H         1 <0>         0.0862
     14 H3         -0.5169    1.9228   -0.8798 H         1 <0>         0.0954
     15 H4          1.8895    1.8774   -1.0150 H         1 <0>         0.0836
     16 H5          1.6561    2.8825    0.4546 H         1 <0>         0.0983
     17 H6          3.1442    0.6302    0.6235 H         1 <0>         0.0915
     18 H7          1.9758    1.0083    1.9262 H         1 <0>         0.0847
     19 H8         -0.7901   -0.3891    0.6441 H         1 <0>         0.0801
     20 H9         -0.1315   -0.3710   -1.0156 H         1 <0>         0.0838
     21 H10         0.3418   -3.3576    2.2820 H         1 <0>         0.1205
     22 H11        -0.7818   -2.1988    1.5317 H         1 <0>         0.1351
     23 H12        -2.1119   -4.5975    1.9305 H         1 <0>         0.1434
     24 H13         2.1186   -4.2877    0.8730 H         1 <0>         0.4438
     25 H14         1.0232   -4.8069   -0.2429 H         1 <0>         0.4464
     26 H15         2.2981   -3.8743   -0.7118 H         1 <0>         0.4441
@<TRIPOS>BOND
     1    1    5 1
     2    1    2 1
     3    1   13 1
     4    1   14 1
     5    2    3 1
     6    2   15 1
     7    2   16 1
     8    3    4 1
     9    3   17 1
    10    3   18 1
    11    4    5 1
    12    4    6 am
    13    5   19 1
    14    5   20 1
    15    6    7 2
    16    6    8 1
    17    8    9 1
    18    8   10 1
    19    8   12 1
    20   10   11 1
    21   10   21 1
    22   10   22 1
    23   11   23 1
    24   12   24 1
    25   12   25 1
    26   12   26 1
@<TRIPOS>MOLECULE
ZINC40394932
   38    39     0     0     0
SMALL
USER_CHARGES

@<TRIPOS>ATOM
      1 C1         -0.4636    1.2596    0.7105 C.3       1 <0>        -0.1606
      2 C2         -0.1812   -0.2138    0.4100 C.3       1 <0>        -0.1311
      3 C3          0.4252   -0.8794    1.6471 C.3       1 <0>        -0.1060
      4 H1         -0.2351   -0.7288    2.5012 H         1 <0>         0.1083
      5 C4          1.7915   -0.2575    1.9427 C.3       1 <0>        -0.1620
      6 C5          0.5921   -2.3783    1.3896 C.3       1 <0>         0.0146
      7 H2          1.2798   -2.5297    0.5576 H         1 <0>         0.1605
      8 C6          1.1442   -3.0418    2.6249 C.2       1 <0>         0.5239
      9 O1          0.3967   -3.3741    3.5203 O.2       1 <0>        -0.5113
     10 N1          2.4686   -3.2660    2.7346 N.am      1 <0>        -0.5907
     11 C7          3.4850   -3.0157    1.7076 C.3       1 <0>         0.1297
     12 C8          4.8217   -3.4167    2.2782 C.ar      1 <0>        -0.1209
     13 C9          6.0934   -3.3843    1.7317 C.ar      1 <0>        -0.0885
     14 C10         7.1769   -3.8155    2.4722 C.ar      1 <0>        -0.1063
     15 C11         6.9916   -4.2798    3.7612 C.ar      1 <0>        -0.1015
     16 C12         5.7230   -4.3121    4.3072 C.ar      1 <0>        -0.0893
     17 C13         4.6366   -3.8805    3.5654 C.ar      1 <0>        -0.1103
     18 C14         3.1700   -3.8009    3.9060 C.3       1 <0>         0.1502
     19 N2         -0.7129   -2.9667    1.0594 N.4       1 <0>        -0.6233
     20 H3          0.4674    1.7617    0.9736 H         1 <0>         0.0690
     21 H4         -0.8955    1.7338   -0.1708 H         1 <0>         0.0704
     22 H5         -1.1638    1.3330    1.5426 H         1 <0>         0.0630
     23 H6         -1.1122   -0.7159    0.1469 H         1 <0>         0.0594
     24 H7          0.5190   -0.2872   -0.4221 H         1 <0>         0.0847
     25 H8          1.6828    0.8211    2.0562 H         1 <0>         0.0909
     26 H9          2.1919   -0.6812    2.8637 H         1 <0>         0.0683
     27 H10         2.4731   -0.4694    1.1189 H         1 <0>         0.0725
     28 H11         3.2683   -3.6110    0.8206 H         1 <0>         0.0909
     29 H12         3.4962   -1.9568    1.4493 H         1 <0>         0.0967
     30 H13         6.2384   -3.0216    0.7248 H         1 <0>         0.1296
     31 H14         8.1682   -3.7902    2.0443 H         1 <0>         0.1357
     32 H15         7.8380   -4.6175    4.3408 H         1 <0>         0.1361
     33 H16         5.5785   -4.6749    5.3141 H         1 <0>         0.1312
     34 H17         3.0219   -3.1391    4.7593 H         1 <0>         0.0949
     35 H18         2.7927   -4.7965    4.1397 H         1 <0>         0.0950
     36 H19        -0.6028   -3.9552    0.8896 H         1 <0>         0.4401
     37 H20        -1.3495   -2.8266    1.8296 H         1 <0>         0.4440
     38 H21        -1.0825   -2.5224    0.2323 H         1 <0>         0.4421
@<TRIPOS>BOND
     1    1    2 1
     2    1   20 1
     3    1   21 1
     4    1   22 1
     5    2    3 1
     6    2   23 1
     7    2   24 1
     8    3    4 1
     9    3    5 1
    10    3    6 1
    11    5   25 1
    12    5   26 1
    13    5   27 1
    14    6    7 1
    15    6    8 1
    16    6   19 1
    17    8    9 2
    18    8   10 am
    19   10   18 1
    20   10   11 1
    21   11   12 1
    22   11   28 1
    23   11   29 1
    24   12   17 ar
    25   12   13 ar
    26   13   14 ar
    27   13   30 1
    28   14   15 ar
    29   14   31 1
    30   15   16 ar
    31   15   32 1
    32   16   17 ar
    33   16   33 1
    34   17   18 1
    35   18   34 1
    36   18   35 1
    37   19   36 1
    38   19   37 1
    39   19   38 1
@<TRIPOS>MOLECULE
ZINC40423900
   41    42     0     0     0
SMALL
USER_CHARGES

@<TRIPOS>ATOM
      1 C1         -0.0167    1.3772    0.0096 C.ar      1 <0>        -0.0970
      2 C2          1.1716    2.0840    0.0021 C.ar      1 <0>        -0.1049
      3 C3          2.3763    1.4080   -0.0131 C.ar      1 <0>        -0.0881
      4 C4          2.3957    0.0237   -0.0207 C.ar      1 <0>        -0.1293
      5 C5          1.2091   -0.6821   -0.0131 C.ar      1 <0>        -0.1106
      6 C6          0.0021   -0.0041    0.0020 C.ar      1 <0>        -0.0874
      7 C7          1.5194   -2.1575   -0.0232 C.3       1 <0>         0.1491
      8 N1          2.9781   -2.3062   -0.0374 N.am      1 <0>        -0.5891
      9 C8          3.5439   -0.9534   -0.0361 C.3       1 <0>         0.1400
     10 C9          3.6670   -3.4646   -0.0498 C.2       1 <0>         0.5189
     11 O1          3.0742   -4.5227   -0.0499 O.2       1 <0>        -0.5116
     12 C10         5.1738   -3.4450   -0.0636 C.3       1 <0>         0.0148
     13 H1          5.5330   -2.6566    0.5978 H         1 <0>         0.1678
     14 C11         5.6674   -3.1805   -1.4875 C.3       1 <0>        -0.1458
     15 C12         7.1906   -3.0368   -1.4807 C.3       1 <0>        -0.1323
     16 C13         7.6842   -2.7722   -2.9045 C.3       1 <0>        -0.1559
     17 C14         9.2075   -2.6285   -2.8978 C.3       1 <0>        -0.0097
     18 N2          9.6814   -2.3745   -4.2648 N.4       1 <0>        -0.6397
     19 N3          5.6846   -4.7425    0.3986 N.4       1 <0>        -0.6227
     20 H2         -0.9589    1.9047    0.0259 H         1 <0>         0.1389
     21 H3          1.1580    3.1639    0.0076 H         1 <0>         0.1375
     22 H4          3.3043    1.9603   -0.0193 H         1 <0>         0.1286
     23 H5         -0.9263   -0.5559    0.0083 H         1 <0>         0.1334
     24 H6          1.1088   -2.6275    0.8705 H         1 <0>         0.0980
     25 H7          1.0923   -2.6188   -0.9137 H         1 <0>         0.0971
     26 H8          4.1447   -0.8033   -0.9331 H         1 <0>         0.0875
     27 H9          4.1612   -0.8120    0.8511 H         1 <0>         0.0915
     28 H10         5.3839   -4.0134   -2.1309 H         1 <0>         0.1064
     29 H11         5.2174   -2.2616   -1.8632 H         1 <0>         0.1219
     30 H12         7.4741   -2.2039   -0.8373 H         1 <0>         0.0970
     31 H13         7.6407   -3.9557   -1.1050 H         1 <0>         0.0761
     32 H14         7.4008   -3.6051   -3.5480 H         1 <0>         0.0962
     33 H15         7.2342   -1.8533   -3.2803 H         1 <0>         0.0990
     34 H16         9.4909   -1.7956   -2.2543 H         1 <0>         0.1371
     35 H17         9.6575   -3.5474   -2.5221 H         1 <0>         0.1350
     36 H18         9.4190   -3.1455   -4.8605 H         1 <0>         0.4380
     37 H19         9.2648   -1.5239   -4.6127 H         1 <0>         0.4388
     38 H20         5.3521   -5.4723   -0.2137 H         1 <0>         0.4447
     39 H21         6.6935   -4.7294    0.3894 H         1 <0>         0.4386
     40 H22        10.6859   -2.2797   -4.2604 H         1 <0>         0.4449
     41 H23         5.3591   -4.9170    1.3376 H         1 <0>         0.4475
@<TRIPOS>BOND
     1    1    6 ar
     2    1    2 ar
     3    1   20 1
     4    2    3 ar
     5    2   21 1
     6    3    4 ar
     7    3   22 1
     8    4    9 1
     9    4    5 ar
    10    5    6 ar
    11    5    7 1
    12    6   23 1
    13    7    8 1
    14    7   24 1
    15    7   25 1
    16    8    9 1
    17    8   10 am
    18    9   26 1
    19    9   27 1
    20   10   11 2
    21   10   12 1
    22   12   13 1
    23   12   14 1
    24   12   19 1
    25   14   15 1
    26   14   28 1
    27   14   29 1
    28   15   16 1
    29   15   30 1
    30   15   31 1
    31   16   17 1
    32   16   32 1
    33   16   33 1
    34   17   18 1
    35   17   34 1
    36   17   35 1
    37   18   36 1
    38   18   37 1
    39   18   40 1
    40   19   38 1
    41   19   39 1
    42   19   41 1
@<TRIPOS>MOLECULE
ZINC40423900
   40    41     0     0     0
SMALL
USER_CHARGES

@<TRIPOS>ATOM
      1 C1         -0.0167    1.3772    0.0096 C.ar      1 <0>        -0.1068
      2 C2          1.1716    2.0840    0.0021 C.ar      1 <0>        -0.1126
      3 C3          2.3763    1.4080   -0.0131 C.ar      1 <0>        -0.0934
      4 C4          2.3957    0.0237   -0.0207 C.ar      1 <0>        -0.1181
      5 C5          1.2091   -0.6821   -0.0131 C.ar      1 <0>        -0.1040
      6 C6          0.0021   -0.0041    0.0020 C.ar      1 <0>        -0.0927
      7 C7          1.5194   -2.1575   -0.0232 C.3       1 <0>         0.1492
      8 N1          2.9781   -2.3062   -0.0374 N.am      1 <0>        -0.6164
      9 C8          3.5439   -0.9534   -0.0361 C.3       1 <0>         0.1486
     10 C9          3.6670   -3.4646   -0.0498 C.2       1 <0>         0.5407
     11 O1          3.0742   -4.5227   -0.0499 O.2       1 <0>        -0.5141
     12 C10         5.1738   -3.4450   -0.0636 C.3       1 <0>         0.0841
     13 H1          5.5330   -2.6566    0.5978 H         1 <0>         0.1063
     14 C11         5.6674   -3.1805   -1.4875 C.3       1 <0>        -0.1551
     15 C12         7.1906   -3.0368   -1.4807 C.3       1 <0>        -0.1190
     16 C13         7.6842   -2.7722   -2.9045 C.3       1 <0>        -0.1523
     17 C14         9.2075   -2.6285   -2.8978 C.3       1 <0>        -0.0098
     18 N2          9.6814   -2.3745   -4.2648 N.4       1 <0>        -0.6386
     19 N3          5.6846   -4.7425    0.3986 N.3       1 <0>        -0.8270
     20 H2         -0.9589    1.9047    0.0259 H         1 <0>         0.1327
     21 H3          1.1580    3.1639    0.0076 H         1 <0>         0.1317
     22 H4          3.3043    1.9603   -0.0193 H         1 <0>         0.1255
     23 H5         -0.9263   -0.5559    0.0083 H         1 <0>         0.1291
     24 H6          1.1088   -2.6275    0.8705 H         1 <0>         0.0869
     25 H7          1.0923   -2.6188   -0.9137 H         1 <0>         0.0851
     26 H8          4.1447   -0.8033   -0.9331 H         1 <0>         0.0786
     27 H9          4.1612   -0.8120    0.8511 H         1 <0>         0.0836
     28 H10         5.3839   -4.0134   -2.1309 H         1 <0>         0.0769
     29 H11         5.2174   -2.2616   -1.8632 H         1 <0>         0.0787
     30 H12         7.4741   -2.2039   -0.8373 H         1 <0>         0.0813
     31 H13         7.6407   -3.9557   -1.1050 H         1 <0>         0.0769
     32 H14         7.4008   -3.6051   -3.5480 H         1 <0>         0.0891
     33 H15         7.2342   -1.8533   -3.2803 H         1 <0>         0.0898
     34 H16         9.4909   -1.7956   -2.2543 H         1 <0>         0.1349
     35 H17         9.6575   -3.5474   -2.5221 H         1 <0>         0.1346
     36 H18         9.4190   -3.1455   -4.8605 H         1 <0>         0.4359
     37 H19         9.2648   -1.5239   -4.6127 H         1 <0>         0.4357
     38 H20         5.3653   -5.4904   -0.1987 H         1 <0>         0.3561
     39 H21        10.6859   -2.2797   -4.2604 H         1 <0>         0.4396
     40 H22         6.6917   -4.7336    0.4599 H         1 <0>         0.3480
@<TRIPOS>BOND
     1    1    6 ar
     2    1    2 ar
     3    1   20 1
     4    2    3 ar
     5    2   21 1
     6    3    4 ar
     7    3   22 1
     8    4    9 1
     9    4    5 ar
    10    5    6 ar
    11    5    7 1
    12    6   23 1
    13    7    8 1
    14    7   24 1
    15    7   25 1
    16    8    9 1
    17    8   10 am
    18    9   26 1
    19    9   27 1
    20   10   11 2
    21   10   12 1
    22   12   13 1
    23   12   14 1
    24   12   19 1
    25   14   15 1
    26   14   28 1
    27   14   29 1
    28   15   16 1
    29   15   30 1
    30   15   31 1
    31   16   17 1
    32   16   32 1
    33   16   33 1
    34   17   18 1
    35   17   34 1
    36   17   35 1
    37   18   36 1
    38   18   37 1
    39   18   39 1
    40   19   38 1
    41   19   40 1
@<TRIPOS>MOLECULE
ZINC11959221
   34    34     0     0     0
SMALL
USER_CHARGES
(2S,3S)-2-amino-3-methyl-1-pyrrolidin-1-yl-pentan-1-one
@<TRIPOS>ATOM
      1 C1          0.5881   -0.4898    1.9672 C.3       1 <0>        -0.1606
      2 C2          0.3881    1.0052    2.2238 C.3       1 <0>        -0.1307
      3 C3         -0.3293    1.6362    1.0288 C.3       1 <0>        -0.1033
      4 H1         -1.2588    1.0997    0.8383 H         1 <0>         0.1061
      5 C4          0.5693    1.5543   -0.2068 C.3       1 <0>        -0.1604
      6 C5         -0.6405    3.1022    1.3369 C.3       1 <0>         0.0173
      7 H2          0.2913    3.6485    1.4832 H         1 <0>         0.1568
      8 C6         -1.4018    3.7068    0.1853 C.2       1 <0>         0.5132
      9 O1         -2.6040    3.5649    0.1120 O.2       1 <0>        -0.5193
     10 N1         -0.7465    4.4053   -0.7630 N.am      1 <0>        -0.5940
     11 C7          0.6826    4.7496   -0.7397 C.3       1 <0>         0.0774
     12 C8          0.9771    5.5703   -2.0129 C.3       1 <0>        -0.1342
     13 C9         -0.4188    6.1310   -2.3929 C.3       1 <0>        -0.1360
     14 C10        -1.3456    4.9562   -1.9923 C.3       1 <0>         0.0998
     15 H3          1.0992   -0.9394    2.8186 H         1 <0>         0.0699
     16 H4         -0.3819   -0.9682    1.8317 H         1 <0>         0.0626
     17 H5          1.1896   -0.6269    1.0686 H         1 <0>         0.0685
     18 H6          1.3580    1.4835    2.3594 H         1 <0>         0.0832
     19 H7         -0.2134    1.1422    3.1225 H         1 <0>         0.0590
     20 H8          0.8497    0.5160   -0.3839 H         1 <0>         0.0893
     21 H9          1.4671    2.1503   -0.0432 H         1 <0>         0.0720
     22 H10         0.0312    1.9383   -1.0734 H         1 <0>         0.0681
     23 H11         0.9065    5.3435    0.1464 H         1 <0>         0.0780
     24 H12         1.2831    3.8399   -0.7403 H         1 <0>         0.0851
     25 H13         1.3653    4.9319   -2.8065 H         1 <0>         0.0865
     26 H14         1.6727    6.3812   -1.7972 H         1 <0>         0.0934
     27 H15        -0.4816    6.3309   -3.4626 H         1 <0>         0.0972
     28 H16        -0.6508    7.0260   -1.8156 H         1 <0>         0.0819
     29 H17        -1.3616    4.2007   -2.7779 H         1 <0>         0.0833
     30 H18        -2.3539    5.3192   -1.7932 H         1 <0>         0.0898
     31 H19        -2.3230    2.6851    2.4475 H         1 <0>         0.4456
     32 H20        -0.9399    2.8440    3.3573 H         1 <0>         0.4432
     33 N2         -1.4567    3.2092    2.5590 N.4       1 <0>        -0.6323
     34 H21        -1.6820    4.1965    2.7291 H         1 <0>         0.4434
@<TRIPOS>BOND
     1    1    2 1
     2    1   15 1
     3    1   16 1
     4    1   17 1
     5    2    3 1
     6    2   18 1
     7    2   19 1
     8    3    4 1
     9    3    5 1
    10    3    6 1
    11    5   20 1
    12    5   21 1
    13    5   22 1
    14    6    7 1
    15    6    8 1
    16    6   33 1
    17    8    9 2
    18    8   10 am
    19   10   14 1
    20   10   11 1
    21   11   12 1
    22   11   23 1
    23   11   24 1
    24   12   13 1
    25   12   25 1
    26   12   26 1
    27   13   14 1
    28   13   27 1
    29   13   28 1
    30   14   29 1
    31   14   30 1
    32   31   33 1
    33   32   33 1
    34   33   34 1
@<TRIPOS>MOLECULE
ZINC08076607
   54    55     0     0     0
SMALL
USER_CHARGES
(4-nitrophenyl)methyl (5-amino-5-pyrrolidin-1-ylcarbonyl-pentyl)aminoformate
@<TRIPOS>ATOM
      1 C1          0.0021   -0.0041    0.0020 C.ar      1 <0>        -0.0906
      2 C2         -0.0167    1.3781    0.0096 C.ar      1 <0>        -0.0563
      3 C3          1.1709    2.0855    0.0021 C.ar      1 <0>        -0.0303
      4 C4          2.3773    1.4107   -0.0145 C.ar      1 <0>        -0.0565
      5 C5          2.3960    0.0285   -0.0212 C.ar      1 <0>        -0.0908
      6 C6          1.2084   -0.6789   -0.0132 C.ar      1 <0>        -0.0540
      7 C7          1.2289   -2.1857   -0.0205 C.3       1 <0>         0.1249
      8 O1          1.2218   -2.6632   -1.3917 O.3       1 <0>        -0.3631
      9 C8          1.2382   -3.9970   -1.5745 C.2       1 <0>         0.6504
     10 O2          1.2578   -4.7417   -0.6145 O.2       1 <0>        -0.5649
     11 N1          1.2327   -4.5063   -2.8224 N.am      1 <0>        -0.7129
     12 C9          1.2505   -5.9576   -3.0213 C.3       1 <0>         0.1357
     13 C10         1.2399   -6.2671   -4.5197 C.3       1 <0>        -0.1356
     14 C11         1.2585   -7.7828   -4.7274 C.3       1 <0>        -0.1285
     15 C12         1.2479   -8.0924   -6.2258 C.3       1 <0>        -0.1404
     16 C13         1.2665   -9.6081   -6.4336 C.3       1 <0>         0.0172
     17 H1          0.4361  -10.0594   -5.8906 H         1 <0>         0.1623
     18 C14         1.1323   -9.9154   -7.9028 C.2       1 <0>         0.5123
     19 O3          2.1156  -10.1913   -8.5569 O.2       1 <0>        -0.5247
     20 N2         -0.0805   -9.8836   -8.4899 N.am      1 <0>        -0.5939
     21 C15        -1.3502   -9.5721   -7.8172 C.3       1 <0>         0.0834
     22 C16        -2.4680   -9.6803   -8.8755 C.3       1 <0>        -0.1351
     23 C17        -1.8381  -10.6056   -9.9500 C.3       1 <0>        -0.1366
     24 C18        -0.3545  -10.1617   -9.9115 C.3       1 <0>         0.1004
     25 N3          1.1509    3.5656    0.0098 N.pl3     1 <0>         0.0217
     26 O4          0.0879    4.1601    0.0228 O.2       1 <0>        -0.1501
     27 O5          2.1973    4.1889    0.0031 O.3       1 <0>        -0.1502
     28 H2         -0.9258   -0.5567    0.0083 H         1 <0>         0.1511
     29 H3         -0.9592    1.9054    0.0170 H         1 <0>         0.1599
     30 H4          3.3051    1.9634   -0.0201 H         1 <0>         0.1598
     31 H5          3.3385   -0.4987   -0.0324 H         1 <0>         0.1509
     32 H6          2.1288   -2.5393    0.4828 H         1 <0>         0.0924
     33 H7          0.3491   -2.5635    0.5004 H         1 <0>         0.0927
     34 H8          1.2171   -3.9118   -3.5887 H         1 <0>         0.4102
     35 H9          2.1508   -6.3751   -2.5704 H         1 <0>         0.0732
     36 H10         0.3711   -6.3993   -2.5528 H         1 <0>         0.0753
     37 H11         0.3397   -5.8496   -4.9706 H         1 <0>         0.0835
     38 H12         2.1194   -5.8253   -4.9882 H         1 <0>         0.0809
     39 H13         2.1588   -8.2004   -4.2766 H         1 <0>         0.0690
     40 H14         0.3791   -8.2246   -4.2589 H         1 <0>         0.0889
     41 H15         0.3476   -7.6748   -6.6767 H         1 <0>         0.1179
     42 H16         2.1273   -7.6506   -6.6943 H         1 <0>         0.1015
     43 H17        -1.5284  -10.2857   -7.0128 H         1 <0>         0.0801
     44 H18        -1.3186   -8.5589   -7.4165 H         1 <0>         0.0810
     45 H19        -2.7009   -8.7025   -9.2972 H         1 <0>         0.0865
     46 H20        -3.3609  -10.1371   -8.4487 H         1 <0>         0.0941
     47 H21        -2.2761  -10.4201  -10.9307 H         1 <0>         0.0978
     48 H22        -1.9396  -11.6543   -9.6705 H         1 <0>         0.0825
     49 H23        -0.2124   -9.2609  -10.5085 H         1 <0>         0.0839
     50 H24         0.2906  -10.9628  -10.2725 H         1 <0>         0.0897
     51 H25         3.3201   -9.7524   -6.4206 H         1 <0>         0.4450
     52 H26         2.6186  -10.0190   -4.9364 H         1 <0>         0.4432
     53 N4          2.5311  -10.1799   -5.9385 N.4       1 <0>        -0.6310
     54 H27         2.5372  -11.1910   -6.1172 H         1 <0>         0.4461
@<TRIPOS>BOND
     1    1    6 ar
     2    1    2 ar
     3    1   28 1
     4    2    3 ar
     5    2   29 1
     6    3    4 ar
     7    3   25 1
     8    4    5 ar
     9    4   30 1
    10    5    6 ar
    11    5   31 1
    12    6    7 1
    13    7    8 1
    14    7   32 1
    15    7   33 1
    16    8    9 1
    17    9   10 2
    18    9   11 am
    19   11   12 1
    20   11   34 1
    21   12   13 1
    22   12   35 1
    23   12   36 1
    24   13   14 1
    25   13   37 1
    26   13   38 1
    27   14   15 1
    28   14   39 1
    29   14   40 1
    30   15   16 1
    31   15   41 1
    32   15   42 1
    33   16   17 1
    34   16   18 1
    35   16   53 1
    36   18   19 2
    37   18   20 am
    38   20   24 1
    39   20   21 1
    40   21   22 1
    41   21   43 1
    42   21   44 1
    43   22   23 1
    44   22   45 1
    45   22   46 1
    46   23   24 1
    47   23   47 1
    48   23   48 1
    49   24   49 1
    50   24   50 1
    51   25   26 2
    52   25   27 1
    53   51   53 1
    54   52   53 1
    55   53   54 1
@<TRIPOS>MOLECULE
ZINC26396245
   41    42     0     0     0
SMALL
USER_CHARGES
6-[2-[[2-[(2S)-2-cyanopyrrolidin-1-yl]-2-oxo-ethyl]amino]ethylamino]pyridine-3-carbonitrile
@<TRIPOS>ATOM
      1 C1         -1.2361    2.1230    0.0194 C.ar      1 <0>         0.0169
      2 C2         -1.2070    3.4919    0.0324 C.ar      1 <0>        -0.2402
      3 C3          0.0211    4.1497    0.0238 C.ar      1 <0>         0.4237
      4 N1          1.1589    3.4690    0.0092 N.ar      1 <0>        -0.5333
      5 C4          1.1761    2.1523    0.0024 C.ar      1 <0>         0.2112
      6 C5         -0.0173    1.4278    0.0099 C.ar      1 <0>        -0.1260
      7 C6          0.0021   -0.0041    0.0020 C.1       1 <0>         0.2487
      8 N2          0.0175   -1.1399   -0.0042 N.1       1 <0>        -0.3998
      9 N3          0.0540    5.5352    0.0300 N.pl3     1 <0>        -0.7336
     10 C7         -1.1970    6.2976    0.0461 C.3       1 <0>         0.1057
     11 C8         -0.8818    7.7948    0.0500 C.3       1 <0>        -0.0116
     12 N4         -2.1361    8.5592    0.0661 N.4       1 <0>        -0.5261
     13 C9         -1.8720   10.0042    0.0704 C.3       1 <0>        -0.0189
     14 C10        -3.1792   10.7538    0.0869 C.2       1 <0>         0.5141
     15 O1         -4.2277   10.1443    0.0945 O.2       1 <0>        -0.5185
     16 N5         -3.1832   12.1015    0.0934 N.am      1 <0>        -0.5963
     17 C11        -1.9878   12.9643    0.0920 C.3       1 <0>         0.0807
     18 C12        -2.4601   14.3013    0.7102 C.3       1 <0>        -0.1324
     19 C13        -3.8981   14.4204    0.1396 C.3       1 <0>        -0.1221
     20 C14        -4.3804   12.9548    0.1093 C.3       1 <0>         0.2459
     21 H1         -5.0114   12.6877    0.9698 H         1 <0>         0.1329
     22 C15        -5.1832   12.7136   -1.1007 C.1       1 <0>         0.1755
     23 N6         -5.8027   12.5275   -2.0345 N.1       1 <0>        -0.3864
     24 H2         -2.1757    1.5906    0.0209 H         1 <0>         0.1473
     25 H3         -2.1276    4.0565    0.0443 H         1 <0>         0.1376
     26 H4          2.1207    1.6289   -0.0095 H         1 <0>         0.1735
     27 H5          1.0194    6.0625    0.0228 H         1 <0>         0.4387
     28 H6         -1.7889    6.0498   -0.8474 H         1 <0>         0.0872
     29 H7         -1.7710    6.0414    0.9488 H         1 <0>         0.0878
     30 H8         -0.2899    8.0425    0.9435 H         1 <0>         0.1415
     31 H9         -0.3078    8.0510   -0.8527 H         1 <0>         0.1406
     32 H10        -2.7279    8.3115   -0.8274 H         1 <0>         0.4625
     33 H11        -1.2871   10.2674    0.9641 H         1 <0>         0.1643
     34 H12        -1.3049   10.2760   -0.8321 H         1 <0>         0.1620
     35 H13        -1.1962   12.4950    0.6946 H         1 <0>         0.0905
     36 H14        -1.6325   13.0970   -0.9406 H         1 <0>         0.0878
     37 H15        -2.4337   14.2275    1.8074 H         1 <0>         0.0920
     38 H16        -1.7944   15.1128    0.3812 H         1 <0>         0.1044
     39 H17        -4.5053   15.0521    0.8046 H         1 <0>         0.1132
     40 H18        -3.8588   14.8739   -0.8618 H         1 <0>         0.0963
     41 H19        -2.7102    8.3029    0.9687 H         1 <0>         0.4627
@<TRIPOS>BOND
     1    1    6 ar
     2    1    2 ar
     3    1   24 1
     4    2    3 ar
     5    2   25 1
     6    3    4 ar
     7    3    9 1
     8    4    5 ar
     9    5    6 ar
    10    5   26 1
    11    6    7 1
    12    7    8 3
    13    9   10 1
    14    9   27 1
    15   10   11 1
    16   10   28 1
    17   10   29 1
    18   11   12 1
    19   11   30 1
    20   11   31 1
    21   12   13 1
    22   12   32 1
    23   12   41 1
    24   13   14 1
    25   13   33 1
    26   13   34 1
    27   14   15 2
    28   14   16 am
    29   16   20 1
    30   16   17 1
    31   17   18 1
    32   17   35 1
    33   17   36 1
    34   18   19 1
    35   18   37 1
    36   18   38 1
    37   19   20 1
    38   19   39 1
    39   19   40 1
    40   20   21 1
    41   20   22 1
    42   22   23 3
@<TRIPOS>MOLECULE
ZINC03931585
   32    32     0     0     0
SMALL
USER_CHARGES
2-amino-3-methyl-1-thiazolidin-3-yl-pentan-1-one
@<TRIPOS>ATOM
      1 C1          4.5543    2.2439   -2.3610 C.3       1 <0>        -0.1608
      2 C2          3.4512    1.2091   -2.5920 C.3       1 <0>        -0.1309
      3 C3          2.0916    1.8325   -2.2698 C.3       1 <0>        -0.1039
      4 H1          1.9620    2.7437   -2.8538 H         1 <0>         0.1082
      5 C4          2.0253    2.1687   -0.7786 C.3       1 <0>        -0.1617
      6 C5          0.9802    0.8406   -2.6188 C.3       1 <0>         0.0152
      7 H2          1.0809   -0.0507   -1.9995 H         1 <0>         0.1585
      8 C6         -0.3610    1.4794   -2.3654 C.2       1 <0>         0.5122
      9 O1         -0.8455    2.2214   -3.1934 O.2       1 <0>        -0.5051
     10 N1         -1.0221    1.2261   -1.2185 N.am      1 <0>        -0.5948
     11 C7         -2.2685    1.9063   -0.8782 C.3       1 <0>         0.0918
     12 C8         -2.4030    2.0769    0.6637 C.3       1 <0>        -0.0727
     13 S1         -1.6927    0.4456    1.1819 S.3       1 <0>        -0.2367
     14 C9         -0.5293    0.2449   -0.2332 C.3       1 <0>         0.1174
     15 H3          5.5229    1.7998   -2.5906 H         1 <0>         0.0707
     16 H4          4.3865    3.1045   -3.0085 H         1 <0>         0.0629
     17 H5          4.5393    2.5645   -1.3193 H         1 <0>         0.0689
     18 H6          3.6189    0.3485   -1.9445 H         1 <0>         0.0843
     19 H7          3.4661    0.8885   -3.6337 H         1 <0>         0.0599
     20 H8          1.0864    2.6785   -0.5625 H         1 <0>         0.0664
     21 H9          2.0819    1.2493   -0.1960 H         1 <0>         0.0725
     22 H10         2.8602    2.8179   -0.5151 H         1 <0>         0.0927
     23 H11        -2.2816    2.8887   -1.3503 H         1 <0>         0.1107
     24 H12        -3.1097    1.3198   -1.2477 H         1 <0>         0.0965
     25 H13        -1.8009    2.9087    1.0294 H         1 <0>         0.1091
     26 H14        -3.4452    2.1774    0.9669 H         1 <0>         0.1391
     27 H15        -0.5841   -0.7664   -0.6363 H         1 <0>         0.1136
     28 H16         0.4904    0.4824    0.0700 H         1 <0>         0.1126
     29 H17         0.9943    1.2766   -4.6308 H         1 <0>         0.4463
     30 H18         1.9485   -0.0214   -4.2181 H         1 <0>         0.4450
     31 N2          1.0646    0.4515   -4.0376 N.4       1 <0>        -0.6321
     32 H19         0.2916   -0.1871   -4.2589 H         1 <0>         0.4442
@<TRIPOS>BOND
     1    1    2 1
     2    1   15 1
     3    1   16 1
     4    1   17 1
     5    2    3 1
     6    2   18 1
     7    2   19 1
     8    3    4 1
     9    3    5 1
    10    3    6 1
    11    5   20 1
    12    5   21 1
    13    5   22 1
    14    6    7 1
    15    6    8 1
    16    6   31 1
    17    8    9 2
    18    8   10 am
    19   10   14 1
    20   10   11 1
    21   11   12 1
    22   11   23 1
    23   11   24 1
    24   12   13 1
    25   12   25 1
    26   12   26 1
    27   13   14 1
    28   14   27 1
    29   14   28 1
    30   29   31 1
    31   30   31 1
    32   31   32 1
