@<TRIPOS>MOLECULE
ZINC01092752
   12    12     0     0     0
SMALL
USER_CHARGES
5-iodo-1H-pyrimidine-2,4-dione
@<TRIPOS>ATOM
      1 C1          1.1522    2.0543    0.0021 C.2       1 <0>         0.2268
      2 C2          2.3341    1.4012   -0.0126 C.2       1 <0>        -0.2982
      3 C3          2.3385   -0.0150   -0.0208 C.2       1 <0>         0.5615
      4 O1          3.3917   -0.6262   -0.0341 O.2       1 <0>        -0.4897
      5 N1          1.1657   -0.6803   -0.0131 N.am      1 <0>        -0.6567
      6 H1          1.1605   -1.6803   -0.0186 H         1 <0>         0.4437
      7 C4          0.0021   -0.0041    0.0020 C.2       1 <0>         0.6993
      8 O2         -1.0476   -0.6177    0.0087 O.2       1 <0>        -0.5290
      9 N2         -0.0162    1.3412    0.0094 N.am      1 <0>        -0.6357
     10 H2         -0.8915    1.8246    0.0203 H         1 <0>         0.4500
     11 I1          4.1368    2.4685   -0.0248 I         1 <0>         0.0402
     12 H3          1.1289    3.1341    0.0077 H         1 <0>         0.1879
@<TRIPOS>BOND
     1    1    9 1
     2    1    2 2
     3    1   12 1
     4    2    3 1
     5    2   11 1
     6    3    4 2
     7    3    5 am
     8    5    6 1
     9    5    7 am
    10    7    8 2
    11    7    9 am
    12    9   10 1
@<TRIPOS>MOLECULE
ZINC00016359
   16    16     0     0     0
SMALL
USER_CHARGES
5-vinyl-1H-pyrimidine-2,4-dione
@<TRIPOS>ATOM
      1 C1         -2.4440    1.5484   -0.0724 C.2       1 <0>        -0.1778
      2 C2         -1.2956    2.2062    0.0202 C.2       1 <0>        -0.1154
      3 C3         -0.0178    1.4662    0.0085 C.2       1 <0>        -0.2195
      4 C4          1.1758    2.1297   -0.0115 C.2       1 <0>         0.1661
      5 N1          2.3398    1.4168   -0.0267 N.am      1 <0>        -0.6373
      6 H1          3.2125    1.9049   -0.0403 H         1 <0>         0.4455
      7 C5          2.3379    0.0740   -0.0238 C.2       1 <0>         0.6968
      8 O1          3.3998   -0.5180   -0.0382 O.2       1 <0>        -0.5411
      9 N2          1.1955   -0.6347   -0.0049 N.am      1 <0>        -0.6595
     10 H2          1.2300   -1.6341   -0.0033 H         1 <0>         0.4403
     11 C6          0.0024   -0.0040    0.0119 C.2       1 <0>         0.5541
     12 O2         -1.0357   -0.6392    0.0290 O.2       1 <0>        -0.4980
     13 H3         -3.3738    2.0929   -0.1464 H         1 <0>         0.1007
     14 H4         -2.4491    0.4684   -0.0738 H         1 <0>         0.1365
     15 H5         -1.2954    3.2830    0.1042 H         1 <0>         0.1241
     16 H6          1.1985    3.2094   -0.0142 H         1 <0>         0.1845
@<TRIPOS>BOND
     1    1    2 2
     2    1   13 1
     3    1   14 1
     4    2    3 1
     5    2   15 1
     6    3   11 1
     7    3    4 2
     8    4    5 1
     9    4   16 1
    10    5    6 1
    11    5    7 am
    12    7    8 2
    13    7    9 am
    14    9   10 1
    15    9   11 am
    16   11   12 2
@<TRIPOS>MOLECULE
ZINC00005467
   14    14     0     0     0
SMALL
USER_CHARGES
5-ethynyl-1H-pyrimidine-2,4-dione
@<TRIPOS>ATOM
      1 C1          4.5800    2.7499   -0.0259 C.1       1 <0>        -0.1525
      2 C2          3.5713    2.1492   -0.0199 C.1       1 <0>        -0.1346
      3 C3          2.3409    1.4166   -0.0126 C.2       1 <0>        -0.1529
      4 C4          1.1393    2.0655    0.0023 C.2       1 <0>         0.1953
      5 N1         -0.0161    1.3386    0.0094 N.am      1 <0>        -0.6356
      6 H1         -0.8947    1.8161    0.0203 H         1 <0>         0.4491
      7 C5          0.0021   -0.0041    0.0020 C.2       1 <0>         0.6988
      8 O1         -1.0526   -0.6089    0.0088 O.2       1 <0>        -0.5350
      9 N2          1.1531   -0.6988   -0.0131 N.am      1 <0>        -0.6583
     10 H2          1.1307   -1.6985   -0.0185 H         1 <0>         0.4432
     11 C6          2.3385   -0.0537   -0.0210 C.2       1 <0>         0.5583
     12 O2          3.3843   -0.6763   -0.0351 O.2       1 <0>        -0.4927
     13 H3          5.4821    3.2871   -0.0313 H         1 <0>         0.2282
     14 H4          1.1034    3.1449    0.0080 H         1 <0>         0.1887
@<TRIPOS>BOND
     1    1    2 3
     2    1   13 1
     3    2    3 1
     4    3   11 1
     5    3    4 2
     6    4    5 1
     7    4   14 1
     8    5    6 1
     9    5    7 am
    10    7    8 2
    11    7    9 am
    12    9   10 1
    13    9   11 am
    14   11   12 2
@<TRIPOS>MOLECULE
ZINC00016356
   12    12     0     0     0
SMALL
USER_CHARGES
2,4-dihydroxypyrimidine-5-carbonitrile
@<TRIPOS>ATOM
      1 C1          1.1728    2.1630    0.0025 C.2       1 <0>         0.2787
      2 C2         -0.0173    1.4278    0.0099 C.2       1 <0>        -0.3256
      3 C3         -1.2356    2.1354    0.0194 C.2       1 <0>         0.5135
      4 N1         -1.2052    3.4612    0.0308 N.am      1 <0>        -0.6152
      5 C4         -0.0538    4.1132    0.0237 C.2       1 <0>         0.6101
      6 N2          1.1114    3.4826    0.0097 N.2       1 <0>        -0.5939
      7 O1         -0.0667    5.4664    0.0307 O.3       1 <0>        -0.6468
      8 O2         -2.4161    1.4737    0.0213 O.2       1 <0>        -0.6510
      9 C5          0.0021   -0.0041    0.0020 C.1       1 <0>         0.3177
     10 N3          0.0175   -1.1399   -0.0042 N.1       1 <0>        -0.4868
     11 H1          2.1280    1.6591   -0.0093 H         1 <0>         0.1622
     12 H2         -2.1449    4.0328    0.0464 H         1 <0>         0.4372
@<TRIPOS>BOND
     1    1    6 1
     2    1    2 2
     3    1   11 1
     4    2    3 1
     5    2    9 1
     6    3    4 am
     7    3    8 2
     8    4    5 1
     9    4   12 1
    10    5    6 2
    11    5    7 1
    12    9   10 3
