@<TRIPOS>MOLECULE
ZINC00598852
   51    53     0     0     0
SMALL
USER_CHARGES

@<TRIPOS>ATOM
      1 C1          0.5429    1.5070    0.0182 C.3       1 <0>        -0.1671
      2 C2          0.5454    0.0000    0.0096 C.ar      1 <0>         0.0307
      3 C3          0.6980   -0.6802   -1.1634 C.ar      1 <0>        -0.1172
      4 C4          0.7027   -2.0714   -1.1869 C.ar      1 <0>         0.0047
      5 C5          0.5547   -2.7939   -0.0399 C.ar      1 <0>        -0.1547
      6 C6          0.3958   -2.1272    1.1822 C.ar      1 <0>         0.2100
      7 C7          0.3970   -0.7113    1.2046 C.ar      1 <0>        -0.1916
      8 C8          0.2398   -0.0587    2.4533 C.ar      1 <0>         0.5718
      9 N1          0.1047   -0.8049    3.5395 N.ar      1 <0>        -0.5815
     10 C9          0.1146   -2.1336    3.4740 C.ar      1 <0>         0.6862
     11 N2          0.2462   -2.7915    2.3381 N.ar      1 <0>        -0.5785
     12 N3         -0.0306   -2.8556    4.6447 N.pl3     1 <0>        -0.7851
     13 N4          0.2283    1.3172    2.5352 N.pl3     1 <0>        -0.8075
     14 C10         0.8631    0.0856   -2.4507 C.3       1 <0>         0.1601
     15 N5          2.2497    0.5425   -2.5728 N.pl3     1 <0>        -0.7426
     16 C11         2.6471    1.2801   -3.6932 C.ar      1 <0>         0.2787
     17 C12         1.7259    1.5838   -4.6864 C.ar      1 <0>        -0.3075
     18 C13         2.1190    2.3146   -5.7968 C.ar      1 <0>         0.1942
     19 C14         3.4355    2.7433   -5.9156 C.ar      1 <0>        -0.0188
     20 C15         4.3571    2.4389   -4.9210 C.ar      1 <0>         0.1949
     21 C16         3.9612    1.7128   -3.8085 C.ar      1 <0>        -0.3034
     22 O1          5.6456    2.8580   -5.0364 O.3       1 <0>        -0.2978
     23 C17         6.5387    2.5092   -3.9768 C.3       1 <0>         0.0256
     24 O2          3.8225    3.4609   -7.0064 O.3       1 <0>        -0.3094
     25 C18         3.7098    4.8829   -6.9209 C.3       1 <0>         0.0337
     26 O3          1.2165    2.6116   -6.7698 O.3       1 <0>        -0.2977
     27 C19        -0.1189    2.1387   -6.5823 C.3       1 <0>         0.0256
     28 H1          1.5373    1.8705    0.2774 H         1 <0>         0.0979
     29 H2          0.2676    1.8755   -0.9700 H         1 <0>         0.0999
     30 H3         -0.1779    1.8650    0.7533 H         1 <0>         0.1021
     31 H4          0.8251   -2.5869   -2.1281 H         1 <0>         0.1583
     32 H5          0.5597   -3.8734   -0.0733 H         1 <0>         0.1603
     33 H6         -0.1367   -2.3923    5.4903 H         1 <0>         0.4460
     34 H7         -0.0263   -3.8253    4.6202 H         1 <0>         0.4316
     35 H8         -0.4142    1.7635    3.1087 H         1 <0>         0.4288
     36 H9          0.8626    1.8391    2.0193 H         1 <0>         0.4358
     37 H10         0.6185   -0.5620   -3.2927 H         1 <0>         0.0808
     38 H11         0.1955    0.9472   -2.4491 H         1 <0>         0.0823
     39 H12         2.8922    0.3335   -1.8768 H         1 <0>         0.4012
     40 H13         0.7028    1.2503   -4.5941 H         1 <0>         0.1330
     41 H14         4.6763    1.4800   -3.0333 H         1 <0>         0.1322
     42 H15         7.5314    2.9038   -4.1935 H         1 <0>         0.1049
     43 H16         6.1753    2.9338   -3.0409 H         1 <0>         0.0557
     44 H17         6.5905    1.4241   -3.8876 H         1 <0>         0.0576
     45 H18         4.3243    5.2472   -6.0976 H         1 <0>         0.0423
     46 H19         4.0502    5.3312   -7.8543 H         1 <0>         0.0924
     47 H20         2.6690    5.1550   -6.7455 H         1 <0>         0.0423
     48 H21        -0.5282    2.5607   -5.6645 H         1 <0>         0.0553
     49 H22        -0.7344    2.4437   -7.4286 H         1 <0>         0.1049
     50 H23        -0.1125    1.0511   -6.5109 H         1 <0>         0.0571
     51 H24         0.2468   -3.7615    2.3402 H         1 <0>         0.4417
@<TRIPOS>BOND
     1    1    2 1
     2    1   28 1
     3    1   29 1
     4    1   30 1
     5    2    7 ar
     6    2    3 ar
     7    3    4 ar
     8    3   14 1
     9    4    5 ar
    10    4   31 1
    11    5    6 ar
    12    5   32 1
    13    6   11 ar
    14    6    7 ar
    15    7    8 ar
    16    8    9 ar
    17    8   13 1
    18    9   10 ar
    19   10   11 ar
    20   10   12 1
    21   11   51 1
    22   12   33 1
    23   12   34 1
    24   13   35 1
    25   13   36 1
    26   14   15 1
    27   14   37 1
    28   14   38 1
    29   15   16 1
    30   15   39 1
    31   16   21 ar
    32   16   17 ar
    33   17   18 ar
    34   17   40 1
    35   18   19 ar
    36   18   26 1
    37   19   20 ar
    38   19   24 1
    39   20   21 ar
    40   20   22 1
    41   21   41 1
    42   22   23 1
    43   23   42 1
    44   23   43 1
    45   23   44 1
    46   24   25 1
    47   25   45 1
    48   25   46 1
    49   25   47 1
    50   26   27 1
    51   27   48 1
    52   27   49 1
    53   27   50 1
@<TRIPOS>MOLECULE
ZINC36175770
   59    63     0     0     0
SMALL
USER_CHARGES

@<TRIPOS>ATOM
      1 C1         -0.0184    1.5028    0.0103 C.3       1 <0>        -0.1120
      2 C2          0.0021   -0.0041    0.0020 C.2       1 <0>         0.3967
      3 N1          0.0048   -0.6148   -1.1450 N.2       1 <0>        -0.5255
      4 C3          0.0227   -1.9611   -1.2330 C.ar      1 <0>         0.1850
      5 C4          0.0260   -2.6149   -2.4783 C.ar      1 <0>        -0.1172
      6 C5          0.0444   -3.9657   -2.5660 C.ar      1 <0>        -0.0517
      7 C6          0.0606   -4.7762   -1.4121 C.ar      1 <0>        -0.0684
      8 C7          0.0797   -6.1761   -1.5078 C.ar      1 <0>        -0.1011
      9 C8          0.0954   -6.9314   -0.3736 C.ar      1 <0>        -0.0993
     10 C9          0.0929   -6.3351    0.8837 C.ar      1 <0>        -0.0839
     11 C10         0.0745   -4.9773    1.0131 C.ar      1 <0>        -0.0937
     12 C11         0.0581   -4.1723   -0.1305 C.ar      1 <0>         0.0047
     13 C12         0.0387   -2.7179   -0.0472 C.ar      1 <0>        -0.1999
     14 C13         0.0353   -2.0080    1.2317 C.2       1 <0>         0.5432
     15 N2          0.0222   -0.6546    1.1925 N.am      1 <0>        -0.6436
     16 O1          0.0487   -2.6106    2.2903 O.2       1 <0>        -0.5025
     17 C14         0.1100   -7.2001    2.1176 C.3       1 <0>         0.1647
     18 N3          1.4967   -7.4617    2.5113 N.pl3     1 <0>        -0.7414
     19 C15         1.7663   -8.2429    3.6295 C.ar      1 <0>         0.2264
     20 C16         0.7183   -8.7813    4.3716 C.ar      1 <0>        -0.2079
     21 C17         0.9790   -9.5554    5.4786 C.ar      1 <0>        -0.0080
     22 C18         2.3013   -9.8032    5.8612 C.ar      1 <0>        -0.1834
     23 C19         3.3490   -9.2588    5.1106 C.ar      1 <0>        -0.0343
     24 C20         3.0852   -8.4915    4.0038 C.ar      1 <0>        -0.1779
     25 C21         4.6267   -9.7069    5.7756 C.3       1 <0>         0.1401
     26 N4          4.2245  -10.5231    6.9267 N.am      1 <0>        -0.5807
     27 C22         2.8823  -10.5757    6.9719 C.2       1 <0>         0.5645
     28 O2          2.2390  -11.1762    7.8111 O.2       1 <0>        -0.5158
     29 C23         5.1360  -11.1736    7.8713 C.3       1 <0>         0.0974
     30 H1          6.1665  -10.9586    7.5884 H         1 <0>         0.0731
     31 C24         4.8729  -10.6426    9.2818 C.3       1 <0>        -0.0874
     32 C25         5.2238   -9.1545    9.3403 C.3       1 <0>        -0.1732
     33 C26         4.9647   -8.6315   10.7296 C.2       1 <0>         0.4918
     34 O3          4.5388   -9.3796   11.5931 O.co2     1 <0>        -0.6947
     35 O4          5.1809   -7.4602   10.9903 O.co2     1 <0>        -0.7243
     36 C27         4.9081  -12.6630    7.8446 C.2       1 <0>         0.4963
     37 O5          4.0627  -13.1372    7.1051 O.co2     1 <0>        -0.6824
     38 O6          5.5692  -13.3938    8.5625 O.co2     1 <0>        -0.7018
     39 H2          1.0042    1.8801    0.0026 H         1 <0>         0.1000
     40 H3         -0.5455    1.8639   -0.8728 H         1 <0>         0.1042
     41 H4         -0.5286    1.8543    0.9071 H         1 <0>         0.0877
     42 H5          0.0132   -2.0267   -3.3839 H         1 <0>         0.1393
     43 H6          0.0464   -4.4323   -3.5400 H         1 <0>         0.1375
     44 H7          0.0816   -6.6531   -2.4767 H         1 <0>         0.1324
     45 H8          0.1097   -8.0085   -0.4517 H         1 <0>         0.1302
     46 H9          0.0724   -4.5259    1.9943 H         1 <0>         0.1580
     47 H10        -0.4072   -6.6870    2.9282 H         1 <0>         0.0712
     48 H11        -0.3919   -8.1443    1.9064 H         1 <0>         0.0711
     49 H12         2.2267   -7.0898    1.9920 H         1 <0>         0.3984
     50 H13        -0.3031   -8.5902    4.0772 H         1 <0>         0.1217
     51 H14         0.1635   -9.9710    6.0519 H         1 <0>         0.1275
     52 H15         3.8985   -8.0779    3.4261 H         1 <0>         0.1214
     53 H16         5.2207  -10.3029    5.0827 H         1 <0>         0.0845
     54 H17         5.1980   -8.8414    6.1112 H         1 <0>         0.0864
     55 H18         3.8203  -10.7777    9.5305 H         1 <0>         0.0692
     56 H19         5.4882  -11.1893    9.9965 H         1 <0>         0.0725
     57 H20         6.2764   -9.0193    9.0916 H         1 <0>         0.0463
     58 H21         4.6086   -8.6078    8.6256 H         1 <0>         0.0478
     59 H22         0.0232   -0.1477    2.0195 H         1 <0>         0.4209
@<TRIPOS>BOND
     1    1    2 1
     2    1   39 1
     3    1   40 1
     4    1   41 1
     5    2   15 1
     6    2    3 2
     7    3    4 1
     8    4   13 ar
     9    4    5 ar
    10    5    6 ar
    11    5   42 1
    12    6    7 ar
    13    6   43 1
    14    7   12 ar
    15    7    8 ar
    16    8    9 ar
    17    8   44 1
    18    9   10 ar
    19    9   45 1
    20   10   11 ar
    21   10   17 1
    22   11   12 ar
    23   11   46 1
    24   12   13 ar
    25   13   14 1
    26   14   15 am
    27   14   16 2
    28   15   59 1
    29   17   18 1
    30   17   47 1
    31   17   48 1
    32   18   19 1
    33   18   49 1
    34   19   24 ar
    35   19   20 ar
    36   20   21 ar
    37   20   50 1
    38   21   22 ar
    39   21   51 1
    40   22   27 1
    41   22   23 ar
    42   23   24 ar
    43   23   25 1
    44   24   52 1
    45   25   26 1
    46   25   53 1
    47   25   54 1
    48   26   27 am
    49   26   29 1
    50   27   28 2
    51   29   30 1
    52   29   31 1
    53   29   36 1
    54   31   32 1
    55   31   55 1
    56   31   56 1
    57   32   33 1
    58   32   57 1
    59   32   58 1
    60   33   34 2
    61   33   35 1
    62   36   37 2
    63   36   38 1
@<TRIPOS>MOLECULE
ZINC06627681
   39    40     0     0     0
SMALL
USER_CHARGES

@<TRIPOS>ATOM
      1 C1         -0.0173    1.4248    0.0099 C.3       1 <0>         0.0239
      2 O1          0.0021   -0.0041    0.0020 O.3       1 <0>        -0.3021
      3 C2         -1.2011   -0.6379    0.0101 C.ar      1 <0>         0.1549
      4 C3         -2.3748    0.1005    0.0195 C.ar      1 <0>        -0.2271
      5 C4         -3.5982   -0.5428    0.0277 C.ar      1 <0>        -0.0020
      6 C5         -3.6572   -1.9238    0.0266 C.ar      1 <0>        -0.2327
      7 C6         -2.4882   -2.6696    0.0172 C.ar      1 <0>         0.1543
      8 C7         -1.2561   -2.0266    0.0032 C.ar      1 <0>         0.0227
      9 O2         -0.1065   -2.7549   -0.0117 O.3       1 <0>        -0.3126
     10 C8          0.4536   -3.1089    1.2544 C.3       1 <0>         0.0351
     11 O3         -2.5472   -4.0282    0.0166 O.3       1 <0>        -0.3013
     12 C9         -3.8474   -4.6211    0.0259 C.3       1 <0>         0.0236
     13 C10        -4.8712    0.2637    0.0384 C.3       1 <0>        -0.0163
     14 C11        -5.3062    0.5346   -1.3789 C.ar      1 <0>        -0.3083
     15 C12        -4.9545    1.7101   -2.0132 C.ar      1 <0>         0.2250
     16 N1         -5.3522    1.9181   -3.2597 N.ar      1 <0>        -0.6043
     17 C13        -6.0798    1.0161   -3.9019 C.ar      1 <0>         0.6032
     18 N2         -6.4382   -0.1231   -3.3293 N.ar      1 <0>        -0.6263
     19 C14        -6.0690   -0.3996   -2.0826 C.ar      1 <0>         0.4894
     20 N3         -6.4404   -1.5946   -1.4883 N.pl3     1 <0>        -0.8360
     21 N4         -6.4756    1.2708   -5.2034 N.pl3     1 <0>        -0.8207
     22 H1          1.0053    1.8021    0.0021 H         1 <0>         0.1035
     23 H2         -0.5445    1.7859   -0.8732 H         1 <0>         0.0589
     24 H3         -0.5275    1.7763    0.9067 H         1 <0>         0.0581
     25 H4         -2.3329    1.1797    0.0207 H         1 <0>         0.1363
     26 H5         -4.6151   -2.4227    0.0334 H         1 <0>         0.1280
     27 H6         -0.2648   -3.7070    1.8151 H         1 <0>         0.0438
     28 H7          1.3650   -3.6864    1.0998 H         1 <0>         0.0924
     29 H8          0.6878   -2.2033    1.8141 H         1 <0>         0.0441
     30 H9         -4.3845   -4.3050    0.9202 H         1 <0>         0.0570
     31 H10        -4.3978   -4.3036   -0.8597 H         1 <0>         0.0568
     32 H11        -3.7517   -5.7069    0.0243 H         1 <0>         0.1041
     33 H12        -5.6506   -0.2944    0.5572 H         1 <0>         0.0773
     34 H13        -4.6980    1.2092    0.5523 H         1 <0>         0.0904
     35 H14        -4.3619    2.4519   -1.4984 H         1 <0>         0.1633
     36 H15        -6.1706   -1.7873   -0.5767 H         1 <0>         0.4079
     37 H16        -6.2200    2.1014   -5.6342 H         1 <0>         0.4156
     38 H17        -7.0085    0.6187   -5.6847 H         1 <0>         0.4133
     39 H18        -6.9704   -2.2385   -1.9837 H         1 <0>         0.4067
@<TRIPOS>BOND
     1    1    2 1
     2    1   22 1
     3    1   23 1
     4    1   24 1
     5    2    3 1
     6    3    8 ar
     7    3    4 ar
     8    4    5 ar
     9    4   25 1
    10    5    6 ar
    11    5   13 1
    12    6    7 ar
    13    6   26 1
    14    7    8 ar
    15    7   11 1
    16    8    9 1
    17    9   10 1
    18   10   27 1
    19   10   28 1
    20   10   29 1
    21   11   12 1
    22   12   30 1
    23   12   31 1
    24   12   32 1
    25   13   14 1
    26   13   33 1
    27   13   34 1
    28   14   19 ar
    29   14   15 ar
    30   15   16 ar
    31   15   35 1
    32   16   17 ar
    33   17   18 ar
    34   17   21 1
    35   18   19 ar
    36   19   20 1
    37   20   36 1
    38   20   39 1
    39   21   37 1
    40   21   38 1
@<TRIPOS>MOLECULE
ZINC06627681
   40    41     0     0     0
SMALL
USER_CHARGES

@<TRIPOS>ATOM
      1 C1         -0.0173    1.4248    0.0099 C.3       1 <0>         0.0236
      2 O1          0.0021   -0.0041    0.0020 O.3       1 <0>        -0.2966
      3 C2          0.6062   -0.6075   -1.0565 C.ar      1 <0>         0.1590
      4 C3          1.1731    0.1601   -2.0626 C.ar      1 <0>        -0.2276
      5 C4          1.7874   -0.4523   -3.1388 C.ar      1 <0>        -0.0278
      6 C5          1.8393   -1.8314   -3.2169 C.ar      1 <0>        -0.2351
      7 C6          1.2749   -2.6062   -2.2150 C.ar      1 <0>         0.1601
      8 C7          0.6613   -1.9944   -1.1284 C.ar      1 <0>         0.0371
      9 O2          0.1111   -2.7512   -0.1402 O.3       1 <0>        -0.3127
     10 C8         -1.2598   -3.1236   -0.2953 C.3       1 <0>         0.0346
     11 O3          1.3261   -3.9630   -2.2930 O.3       1 <0>        -0.2955
     12 C9          1.9770   -4.5231   -3.4352 C.3       1 <0>         0.0221
     13 C10         2.4017    0.3858   -4.2302 C.3       1 <0>        -0.0295
     14 C11         3.8422    0.6725   -3.8928 C.ar      1 <0>        -0.2227
     15 C12         4.1975    1.8410   -3.2477 C.ar      1 <0>         0.2105
     16 N1          5.4726    2.0633   -2.9647 N.ar      1 <0>        -0.5697
     17 C13         6.4065    1.1822   -3.2920 C.ar      1 <0>         0.6625
     18 N2          6.1075    0.0504   -3.9114 N.ar      1 <0>        -0.5720
     19 C14         4.8475   -0.2398   -4.2201 C.ar      1 <0>         0.5372
     20 N3          4.5370   -1.4272   -4.8628 N.pl3     1 <0>        -0.7792
     21 N4          7.7275    1.4516   -2.9793 N.pl3     1 <0>        -0.7906
     22 H1          1.0053    1.8021    0.0021 H         1 <0>         0.0555
     23 H2         -0.5445    1.7859   -0.8732 H         1 <0>         0.0607
     24 H3         -0.5275    1.7763    0.9067 H         1 <0>         0.1087
     25 H4          1.1343    1.2379   -2.0054 H         1 <0>         0.1378
     26 H5          2.3199   -2.3061   -4.0596 H         1 <0>         0.1268
     27 H6         -1.3771   -3.7054   -1.2095 H         1 <0>         0.0473
     28 H7         -1.5724   -3.7233    0.5596 H         1 <0>         0.0987
     29 H8         -1.8756   -2.2262   -0.3542 H         1 <0>         0.0474
     30 H9          1.4660   -4.1967   -4.3410 H         1 <0>         0.0599
     31 H10         3.0141   -4.1888   -3.4626 H         1 <0>         0.0544
     32 H11         1.9474   -5.6109   -3.3732 H         1 <0>         0.1103
     33 H12         2.3506   -0.1544   -5.1756 H         1 <0>         0.0994
     34 H13         1.8554    1.3249   -4.3183 H         1 <0>         0.1128
     35 H14         3.4440    2.5659   -2.9772 H         1 <0>         0.2147
     36 H15         3.6157   -1.6298   -5.0887 H         1 <0>         0.4275
     37 H16         7.9600    2.2771   -2.5260 H         1 <0>         0.4311
     38 H17         8.4208    0.8149   -3.2134 H         1 <0>         0.4453
     39 H18         5.2409   -2.0558   -5.0868 H         1 <0>         0.4288
     40 H19         5.7260    2.8827   -2.5117 H         1 <0>         0.4452
@<TRIPOS>BOND
     1    1    2 1
     2    1   22 1
     3    1   23 1
     4    1   24 1
     5    2    3 1
     6    3    8 ar
     7    3    4 ar
     8    4    5 ar
     9    4   25 1
    10    5    6 ar
    11    5   13 1
    12    6    7 ar
    13    6   26 1
    14    7    8 ar
    15    7   11 1
    16    8    9 1
    17    9   10 1
    18   10   27 1
    19   10   28 1
    20   10   29 1
    21   11   12 1
    22   12   30 1
    23   12   31 1
    24   12   32 1
    25   13   14 1
    26   13   33 1
    27   13   34 1
    28   14   19 ar
    29   14   15 ar
    30   15   16 ar
    31   15   35 1
    32   16   17 ar
    33   16   40 1
    34   17   18 ar
    35   17   21 1
    36   18   19 ar
    37   19   20 1
    38   20   36 1
    39   20   39 1
    40   21   37 1
    41   21   38 1
@<TRIPOS>MOLECULE
ZINC18279672
   52    54     0     0     0
SMALL
USER_CHARGES
(2S)-2-[[5-[methyl-[(2-methyl-4-oxo-3H-quinazolin-6-yl)methyl]amino]thiophene-2-carbonyl]amino]pentanedioic acid
@<TRIPOS>ATOM
      1 C1         10.3914    0.6209   -2.9939 C.3       1 <0>        -0.1098
      2 C2          9.9324    1.6032   -1.9474 C.2       1 <0>         0.3866
      3 N1         10.8080    2.5530   -1.5269 N.am      1 <0>        -0.6544
      4 H1         11.7018    2.5827   -1.9025 H         1 <0>         0.4157
      5 C3         10.4445    3.4586   -0.5889 C.2       1 <0>         0.5541
      6 O1         11.2187    4.3151   -0.2033 O.2       1 <0>        -0.5194
      7 C4          9.0777    3.3677   -0.0542 C.ar      1 <0>        -0.2041
      8 C5          8.6044    4.2514    0.9136 C.ar      1 <0>        -0.0276
      9 C6          7.3145    4.1207    1.3792 C.ar      1 <0>        -0.1286
     10 C7          6.4876    3.1147    0.8963 C.ar      1 <0>        -0.0507
     11 C8          6.9345    2.2343   -0.0630 C.ar      1 <0>        -0.0992
     12 C9          8.2378    2.3468   -0.5515 C.ar      1 <0>         0.1569
     13 N2          8.7202    1.4988   -1.4941 N.2       1 <0>        -0.5098
     14 C10         6.7981    5.0737    2.4262 C.3       1 <0>         0.1624
     15 N3          6.1861    6.2329    1.7721 N.pl3     1 <0>        -0.5801
     16 C11         6.9998    7.4090    1.4544 C.3       1 <0>         0.0999
     17 C12         4.8379    6.2170    1.4541 C.2       1 <0>         0.1191
     18 C13         4.0888    7.2017    0.8433 C.2       1 <0>        -0.2745
     19 C14         2.7578    6.9738    0.6212 C.2       1 <0>        -0.0340
     20 C15         2.2441    5.7510    1.0309 C.2       1 <0>        -0.2445
     21 S1          3.6794    4.9577    1.7328 S.3       1 <0>         0.1263
     22 C16         0.9186    5.2612    0.9245 C.2       1 <0>         0.6013
     23 O2          0.0538    5.9506    0.4145 O.2       1 <0>        -0.5485
     24 N4          0.6151    4.0324    1.3875 N.am      1 <0>        -0.6859
     25 C17        -0.7552    3.5260    1.2775 C.3       1 <0>         0.1006
     26 H2         -1.2033    3.8884    0.3523 H         1 <0>         0.0870
     27 C18        -0.7345    1.9962    1.2691 C.3       1 <0>        -0.0862
     28 C19        -0.0184    1.5028    0.0103 C.3       1 <0>        -0.1531
     29 C20         0.0021   -0.0041    0.0020 C.2       1 <0>         0.4619
     30 O3         -0.5042   -0.6201    0.9098 O.co2     1 <0>        -0.6390
     31 C21        -1.5658    4.0110    2.4518 C.2       1 <0>         0.4651
     32 O4         -1.0516    4.7080    3.2942 O.co2     1 <0>        -0.6388
     33 H3         10.8333   -0.2486   -2.5072 H         1 <0>         0.0972
     34 H4          9.5388    0.3061   -3.5957 H         1 <0>         0.1058
     35 H5         11.1341    1.0945   -3.6359 H         1 <0>         0.0837
     36 H6          9.2443    5.0328    1.2961 H         1 <0>         0.1350
     37 H7          5.4806    3.0240    1.2757 H         1 <0>         0.1416
     38 H8          6.2812    1.4583   -0.4338 H         1 <0>         0.1499
     39 H9          7.6246    5.4055    3.0547 H         1 <0>         0.0951
     40 H10         6.0536    4.5687    3.0417 H         1 <0>         0.0926
     41 H11         6.9800    8.1025    2.2951 H         1 <0>         0.0543
     42 H12         8.0272    7.0991    1.2632 H         1 <0>         0.0687
     43 H13         6.5977    7.9004    0.5685 H         1 <0>         0.0705
     44 H14         4.5442    8.1348    0.5463 H         1 <0>         0.1271
     45 H15         2.1325    7.7151    0.1461 H         1 <0>         0.1421
     46 H16         1.3039    3.4833    1.7937 H         1 <0>         0.3879
     47 H17        -1.7571    1.6189    1.2768 H         1 <0>         0.0849
     48 H18        -0.2073    1.6351    2.1522 H         1 <0>         0.0569
     49 H19         1.0042    1.8801    0.0026 H         1 <0>         0.0573
     50 H20        -0.5455    1.8639   -0.8728 H         1 <0>         0.0608
     51 O5          0.5827   -0.6618   -1.0138 O.co2     1 <0>        -0.7903
     52 O6         -2.8590    3.6685    2.5619 O.co2     1 <0>        -0.7696
@<TRIPOS>BOND
     1    1    2 1
     2    1   33 1
     3    1   34 1
     4    1   35 1
     5    2   13 2
     6    2    3 1
     7    3    4 1
     8    3    5 am
     9    5    6 2
    10    5    7 1
    11    7   12 ar
    12    7    8 ar
    13    8    9 ar
    14    8   36 1
    15    9   10 ar
    16    9   14 1
    17   10   11 ar
    18   10   37 1
    19   11   12 ar
    20   11   38 1
    21   12   13 1
    22   14   15 1
    23   14   39 1
    24   14   40 1
    25   15   16 1
    26   15   17 1
    27   16   41 1
    28   16   42 1
    29   16   43 1
    30   17   21 1
    31   17   18 2
    32   18   19 1
    33   18   44 1
    34   19   20 2
    35   19   45 1
    36   20   21 1
    37   20   22 1
    38   22   23 2
    39   22   24 am
    40   24   25 1
    41   24   46 1
    42   25   26 1
    43   25   27 1
    44   25   31 1
    45   27   28 1
    46   27   47 1
    47   27   48 1
    48   28   29 1
    49   28   49 1
    50   28   50 1
    51   29   30 2
    52   29   51 1
    53   31   32 2
    54   31   52 1
@<TRIPOS>MOLECULE
ZINC01540998
   50    52     0     0     0
SMALL
USER_CHARGES

@<TRIPOS>ATOM
      1 C1         -0.0167    1.3794    0.0096 C.ar      1 <0>        -0.1237
      2 C2          1.1667    2.0884    0.0021 C.ar      1 <0>        -0.0650
      3 C3          2.3848    1.4070   -0.0132 C.ar      1 <0>        -0.1108
      4 C4          2.3966    0.0113   -0.0208 C.ar      1 <0>        -0.0853
      5 C5          1.2061   -0.6856   -0.0132 C.ar      1 <0>        -0.1248
      6 C6          0.0021   -0.0041    0.0020 C.ar      1 <0>        -0.0756
      7 C7         -1.2946   -0.7719    0.0103 C.3       1 <0>        -0.0645
      8 C8         -1.7472   -1.0241   -1.4293 C.3       1 <0>        -0.0478
      9 C9         -3.0439   -1.7919   -1.4210 C.2       1 <0>        -0.0685
     10 C10        -3.1874   -3.1243   -1.5149 C.2       1 <0>        -0.0065
     11 N1         -4.5200   -3.4490   -1.4711 N.pl3     1 <0>        -0.5467
     12 H1         -4.8743   -4.3505   -1.5209 H         1 <0>         0.4184
     13 C11        -5.2735   -2.3187   -1.3465 C.2       1 <0>         0.3387
     14 C12        -4.3891   -1.2318   -1.3029 C.2       1 <0>        -0.3095
     15 C13        -4.9114    0.0734   -1.1699 C.2       1 <0>         0.5795
     16 O1         -4.1726    1.0423   -1.1322 O.2       1 <0>        -0.5172
     17 N2         -6.2532    0.2199   -1.0861 N.am      1 <0>        -0.6639
     18 H2         -6.6382    1.1055   -0.9942 H         1 <0>         0.4126
     19 C14        -7.0663   -0.8737   -1.1307 C.2       1 <0>         0.6511
     20 N3         -6.5926   -2.0916   -1.2621 N.2       1 <0>        -0.5927
     21 N4         -8.4242   -0.6953   -1.0434 N.pl3     1 <0>        -0.8265
     22 C15         3.6569    2.1603   -0.0218 C.2       1 <0>         0.5510
     23 O2          3.6435    3.3757   -0.0155 O.2       1 <0>        -0.5556
     24 N5          4.8314    1.4994   -0.0366 N.am      1 <0>        -0.6767
     25 C16         6.0919    2.2459   -0.0451 C.3       1 <0>         0.0726
     26 H3          5.9814    3.1523    0.5501 H         1 <0>         0.0776
     27 C17         7.2027    1.3778    0.5494 C.3       1 <0>        -0.0801
     28 C18         6.9032    1.1060    2.0250 C.3       1 <0>        -0.1779
     29 C19         7.9973    0.2510    2.6105 C.2       1 <0>         0.4911
     30 O3          8.9302   -0.1078    1.9123 O.co2     1 <0>        -0.6973
     31 O4          7.9496   -0.0820    3.7824 O.co2     1 <0>        -0.7205
     32 C20         6.4472    2.6155   -1.4622 C.2       1 <0>         0.4957
     33 O5          5.7154    2.2860   -2.3799 O.co2     1 <0>        -0.6965
     34 O6          7.4666    3.2441   -1.6909 O.co2     1 <0>        -0.7009
     35 H4         -0.9598    1.9054    0.0260 H         1 <0>         0.1238
     36 H5          1.1508    3.1682    0.0077 H         1 <0>         0.1319
     37 H6          3.3358   -0.5219   -0.0330 H         1 <0>         0.1274
     38 H7          1.2138   -1.7656   -0.0191 H         1 <0>         0.1227
     39 H8         -1.1489   -1.7256    0.5176 H         1 <0>         0.0683
     40 H9         -2.0557   -0.1941    0.5345 H         1 <0>         0.0708
     41 H10        -1.8929   -0.0704   -1.9367 H         1 <0>         0.0817
     42 H11        -0.9861   -1.6019   -1.9536 H         1 <0>         0.0745
     43 H12        -2.3774   -3.8322   -1.6109 H         1 <0>         0.1800
     44 H13        -8.7912    0.1979   -0.9515 H         1 <0>         0.4143
     45 H14        -9.0171   -1.4624   -1.0735 H         1 <0>         0.4255
     46 H15         4.8421    0.5294   -0.0416 H         1 <0>         0.3891
     47 H16         7.2537    0.4325    0.0090 H         1 <0>         0.0548
     48 H17         8.1565    1.8981    0.4621 H         1 <0>         0.0788
     49 H18         6.8522    2.0513    2.5654 H         1 <0>         0.0521
     50 H19         5.9494    0.5857    2.1123 H         1 <0>         0.0504
@<TRIPOS>BOND
     1    1    6 ar
     2    1    2 ar
     3    1   35 1
     4    2    3 ar
     5    2   36 1
     6    3    4 ar
     7    3   22 1
     8    4    5 ar
     9    4   37 1
    10    5    6 ar
    11    5   38 1
    12    6    7 1
    13    7    8 1
    14    7   39 1
    15    7   40 1
    16    8    9 1
    17    8   41 1
    18    8   42 1
    19    9   14 1
    20    9   10 2
    21   10   11 1
    22   10   43 1
    23   11   12 1
    24   11   13 1
    25   13   20 1
    26   13   14 2
    27   14   15 1
    28   15   16 2
    29   15   17 am
    30   17   18 1
    31   17   19 1
    32   19   20 2
    33   19   21 1
    34   21   44 1
    35   21   45 1
    36   22   23 2
    37   22   24 am
    38   24   25 1
    39   24   46 1
    40   25   26 1
    41   25   27 1
    42   25   32 1
    43   27   28 1
    44   27   47 1
    45   27   48 1
    46   28   29 1
    47   28   49 1
    48   28   50 1
    49   29   30 2
    50   29   31 1
    51   32   33 2
    52   32   34 1
@<TRIPOS>MOLECULE
ZINC00598590
   49    51     0     0     0
SMALL
USER_CHARGES
5-[(3,5-diethoxy-4-pyrrol-1-yl-phenyl)methyl]pyrimidine-2,4-diamine
@<TRIPOS>ATOM
      1 C1         -0.0127    1.0858    0.0080 C.3       1 <0>        -0.1530
      2 C2         -0.7288    1.5792    1.2668 C.3       1 <0>         0.0531
      3 O1         -0.0377    1.1059    2.4245 O.3       1 <0>        -0.2982
      4 C3         -0.5477    1.4576    3.6347 C.ar      1 <0>         0.1851
      5 C4         -1.6858    2.2464    3.7059 C.ar      1 <0>        -0.2381
      6 C5         -2.2086    2.5999    4.9357 C.ar      1 <0>         0.0133
      7 C6         -1.5937    2.1789    6.1000 C.ar      1 <0>        -0.2322
      8 C7         -0.4519    1.3946    6.0391 C.ar      1 <0>         0.1852
      9 C8          0.0748    1.0314    4.8037 C.ar      1 <0>         0.0357
     10 N1          1.2319    0.2371    4.7367 N.pl3     1 <0>        -0.3807
     11 C9          1.2985   -1.0311    4.2368 C.2       1 <0>         0.0012
     12 C10         2.5738   -1.4587    4.3406 C.2       1 <0>        -0.2005
     13 C11         3.3201   -0.4216    4.9344 C.2       1 <0>        -0.2005
     14 C12         2.4745    0.6037    5.1662 C.2       1 <0>         0.0015
     15 O2          0.1523    0.9815    7.1848 O.3       1 <0>        -0.2991
     16 C13        -0.4437    1.3922    8.4170 C.3       1 <0>         0.0529
     17 C14         0.3696    0.8357    9.5873 C.3       1 <0>        -0.1527
     18 C15        -3.4493    3.4522    5.0075 C.3       1 <0>        -0.0184
     19 C16        -3.0585    4.9075    5.0301 C.ar      1 <0>        -0.3101
     20 C17        -2.9281    5.5854    6.2265 C.ar      1 <0>         0.2260
     21 N2         -2.5826    6.8643    6.2125 N.ar      1 <0>        -0.6039
     22 C18        -2.3619    7.4977    5.0699 C.ar      1 <0>         0.6040
     23 N3         -2.4758    6.8839    3.9019 N.ar      1 <0>        -0.6261
     24 C19        -2.8143    5.5998    3.8422 C.ar      1 <0>         0.4900
     25 N4         -2.9278    4.9590    2.6192 N.pl3     1 <0>        -0.8361
     26 N5         -2.0028    8.8340    5.0976 N.pl3     1 <0>        -0.8202
     27 H1          0.0021   -0.0041    0.0020 H         1 <0>         0.0689
     28 H2          1.0099    1.4631    0.0003 H         1 <0>         0.0680
     29 H3         -0.5399    1.4469   -0.8751 H         1 <0>         0.0813
     30 H4         -0.7436    2.6691    1.2728 H         1 <0>         0.0634
     31 H5         -1.7514    1.2020    1.2746 H         1 <0>         0.0650
     32 H6         -2.1669    2.5817    2.7990 H         1 <0>         0.1308
     33 H7         -2.0031    2.4617    7.0585 H         1 <0>         0.1392
     34 H8          0.4733   -1.5941    3.8263 H         1 <0>         0.1541
     35 H9          2.9524   -2.4212    4.0298 H         1 <0>         0.1347
     36 H10         4.3755   -0.4434    5.1623 H         1 <0>         0.1346
     37 H11         2.7357    1.5510    5.6143 H         1 <0>         0.1534
     38 H12        -0.4570    2.4809    8.4690 H         1 <0>         0.0659
     39 H13        -1.4643    1.0134    8.4710 H         1 <0>         0.0662
     40 H14        -0.0850    1.1490   10.5272 H         1 <0>         0.0816
     41 H15         0.3829   -0.2530    9.5353 H         1 <0>         0.0677
     42 H16         1.3902    1.2145    9.5333 H         1 <0>         0.0678
     43 H17        -4.0748    3.2575    4.1363 H         1 <0>         0.0792
     44 H18        -4.0040    3.2109    5.9143 H         1 <0>         0.0925
     45 H19        -3.1054    5.0781    7.1633 H         1 <0>         0.1635
     46 H20        -3.1786    4.0227    2.5837 H         1 <0>         0.4077
     47 H21        -2.7566    5.4467    1.7984 H         1 <0>         0.4071
     48 H22        -1.9156    9.2952    5.9465 H         1 <0>         0.4159
     49 H23        -1.8383    9.3093    4.2682 H         1 <0>         0.4136
@<TRIPOS>BOND
     1    1    2 1
     2    1   27 1
     3    1   28 1
     4    1   29 1
     5    2    3 1
     6    2   30 1
     7    2   31 1
     8    3    4 1
     9    4    9 ar
    10    4    5 ar
    11    5    6 ar
    12    5   32 1
    13    6    7 ar
    14    6   18 1
    15    7    8 ar
    16    7   33 1
    17    8    9 ar
    18    8   15 1
    19    9   10 1
    20   10   14 1
    21   10   11 1
    22   11   12 2
    23   11   34 1
    24   12   13 1
    25   12   35 1
    26   13   14 2
    27   13   36 1
    28   14   37 1
    29   15   16 1
    30   16   17 1
    31   16   38 1
    32   16   39 1
    33   17   40 1
    34   17   41 1
    35   17   42 1
    36   18   19 1
    37   18   43 1
    38   18   44 1
    39   19   24 ar
    40   19   20 ar
    41   20   21 ar
    42   20   45 1
    43   21   22 ar
    44   22   23 ar
    45   22   26 1
    46   23   24 ar
    47   24   25 1
    48   25   46 1
    49   25   47 1
    50   26   48 1
    51   26   49 1
@<TRIPOS>MOLECULE
ZINC13762607
   32    33     0     0     0
SMALL
USER_CHARGES
5-(3-azido-4-chloro-phenyl)-6-ethyl-pyrimidine-2,4-diamine
@<TRIPOS>ATOM
      1 C1         -0.7508    2.5330    2.8946 C.3       1 <0>        -0.1419
      2 C2         -0.8145    1.7467    1.5837 C.3       1 <0>        -0.0812
      3 C3         -2.1406    1.0371    1.4874 C.ar      1 <0>         0.2727
      4 C4         -2.2972   -0.2415    2.0189 C.ar      1 <0>        -0.2952
      5 C5         -3.5557   -0.8611    1.9037 C.ar      1 <0>         0.4995
      6 N1         -4.5393   -0.2072    1.2966 N.ar      1 <0>        -0.6294
      7 C6         -4.3434    1.0077    0.8064 C.ar      1 <0>         0.6130
      8 N2         -3.1728    1.6222    0.9021 N.ar      1 <0>        -0.6013
      9 N3         -5.3929    1.6565    0.1813 N.pl3     1 <0>        -0.8171
     10 N4         -3.7646   -2.1294    2.4146 N.pl3     1 <0>        -0.8308
     11 C7         -1.1682   -0.9307    2.6885 C.ar      1 <0>         0.0290
     12 C8         -0.0679   -1.3531    1.9321 C.ar      1 <0>        -0.1078
     13 C9          1.0058   -1.9942    2.5255 C.ar      1 <0>        -0.0759
     14 C10         1.0084   -2.2415    3.8806 C.ar      1 <0>        -0.0197
     15 C11        -0.1356   -1.8132    4.6892 C.ar      1 <0>         0.1204
     16 C12        -1.2155   -1.1546    4.0523 C.ar      1 <0>        -0.1696
     17 N5         -0.1593   -2.0379    5.9951 N.2       1 <0>        -0.3114
     18 N6         -1.0416   -1.7049    6.6067 N.1       1 <0>         0.2763
     19 N7         -1.9239   -1.3719    7.2183 N.1       1 <0>        -0.1162
     20 Cl1         2.3524   -3.0525    4.6220 Cl        1 <0>        -0.0379
     21 H1         -1.5706    3.2506    2.9281 H         1 <0>         0.0599
     22 H2          0.1993    3.0638    2.9541 H         1 <0>         0.0675
     23 H3         -0.8358    1.8448    3.7356 H         1 <0>         0.0529
     24 H4         -0.7075    2.4323    0.7431 H         1 <0>         0.0897
     25 H5         -0.0079    1.0140    1.5599 H         1 <0>         0.0884
     26 H6         -6.2568    1.2216    0.1070 H         1 <0>         0.4147
     27 H7         -5.2651    2.5465   -0.1827 H         1 <0>         0.4167
     28 H8         -3.0404   -2.5995    2.8568 H         1 <0>         0.4113
     29 H9         -4.6352   -2.5488    2.3307 H         1 <0>         0.4092
     30 H10        -0.0550   -1.1717    0.8675 H         1 <0>         0.1382
     31 H11         1.8447   -2.3067    1.9214 H         1 <0>         0.1489
     32 H12        -2.0696   -0.8292    4.6277 H         1 <0>         0.1273
@<TRIPOS>BOND
     1    1    2 1
     2    1   21 1
     3    1   22 1
     4    1   23 1
     5    2    3 1
     6    2   24 1
     7    2   25 1
     8    3    8 ar
     9    3    4 ar
    10    4    5 ar
    11    4   11 1
    12    5    6 ar
    13    5   10 1
    14    6    7 ar
    15    7    8 ar
    16    7    9 1
    17    9   26 1
    18    9   27 1
    19   10   28 1
    20   10   29 1
    21   11   16 ar
    22   11   12 ar
    23   12   13 ar
    24   12   30 1
    25   13   14 ar
    26   13   31 1
    27   14   15 ar
    28   14   20 1
    29   15   16 ar
    30   15   17 1
    31   16   32 1
    32   17   18 2
    33   18   19 2
@<TRIPOS>MOLECULE
ZINC13762607
   33    34     0     0     0
SMALL
USER_CHARGES
5-(3-azido-4-chloro-phenyl)-6-ethyl-pyrimidine-2,4-diamine
@<TRIPOS>ATOM
      1 C1         -0.7508    2.5330    2.8946 C.3       1 <0>        -0.1538
      2 C2         -0.8145    1.7467    1.5837 C.3       1 <0>        -0.1140
      3 C3         -2.1406    1.0371    1.4874 C.ar      1 <0>         0.2573
      4 C4         -2.2972   -0.2415    2.0189 C.ar      1 <0>        -0.1962
      5 C5         -3.5557   -0.8611    1.9037 C.ar      1 <0>         0.5446
      6 N1         -4.5393   -0.2072    1.2966 N.ar      1 <0>        -0.5669
      7 C6         -4.3434    1.0077    0.8064 C.ar      1 <0>         0.6734
      8 N2         -5.3929    1.6565    0.1813 N.pl3     1 <0>        -0.7887
      9 N3         -3.7646   -2.1294    2.4146 N.pl3     1 <0>        -0.7713
     10 C7         -1.1682   -0.9307    2.6885 C.ar      1 <0>        -0.0239
     11 C8         -0.0679   -1.3531    1.9321 C.ar      1 <0>        -0.0978
     12 C9          1.0058   -1.9942    2.5255 C.ar      1 <0>        -0.0718
     13 C10         1.0084   -2.2415    3.8806 C.ar      1 <0>        -0.0036
     14 C11        -0.1356   -1.8132    4.6892 C.ar      1 <0>         0.1369
     15 C12        -1.2155   -1.1546    4.0523 C.ar      1 <0>        -0.1703
     16 N4         -0.1593   -2.0379    5.9951 N.2       1 <0>        -0.3126
     17 N5         -1.0416   -1.7049    6.6067 N.1       1 <0>         0.2761
     18 N6         -1.9239   -1.3719    7.2183 N.1       1 <0>        -0.0943
     19 Cl1         2.3524   -3.0525    4.6220 Cl        1 <0>        -0.0138
     20 H1         -1.5706    3.2506    2.9281 H         1 <0>         0.0633
     21 H2          0.1993    3.0638    2.9541 H         1 <0>         0.0899
     22 H3         -0.8358    1.8448    3.7356 H         1 <0>         0.0680
     23 H4         -0.7075    2.4323    0.7431 H         1 <0>         0.1072
     24 H5         -0.0079    1.0140    1.5599 H         1 <0>         0.1225
     25 H6         -6.2568    1.2216    0.1070 H         1 <0>         0.4439
     26 H7         -5.2651    2.5465   -0.1827 H         1 <0>         0.4311
     27 H8         -3.0404   -2.5995    2.8568 H         1 <0>         0.4315
     28 H9         -4.6352   -2.5488    2.3307 H         1 <0>         0.4306
     29 H10        -0.0550   -1.1717    0.8675 H         1 <0>         0.1438
     30 H11         1.8447   -2.3067    1.9214 H         1 <0>         0.1588
     31 H12        -2.0696   -0.8292    4.6277 H         1 <0>         0.1320
     32 N7         -3.1649    1.6916    0.8738 N.ar      1 <0>        -0.5930
     33 H13        -3.0231    2.6120    0.5093 H         1 <0>         0.4607
@<TRIPOS>BOND
     1    1    2 1
     2    1   20 1
     3    1   21 1
     4    1   22 1
     5    2    3 1
     6    2   23 1
     7    2   24 1
     8    3    4 ar
     9    3   32 ar
    10    4    5 ar
    11    4   10 1
    12    5    6 ar
    13    5    9 1
    14    6    7 ar
    15    7    8 1
    16    7   32 ar
    17    8   25 1
    18    8   26 1
    19    9   27 1
    20    9   28 1
    21   10   15 ar
    22   10   11 ar
    23   11   12 ar
    24   11   29 1
    25   12   13 ar
    26   12   30 1
    27   13   14 ar
    28   13   19 1
    29   14   15 ar
    30   14   16 1
    31   15   31 1
    32   16   17 2
    33   17   18 2
    34   32   33 1
@<TRIPOS>MOLECULE
ZINC13762607
   33    34     0     0     0
SMALL
USER_CHARGES
5-(3-azido-4-chloro-phenyl)-6-ethyl-pyrimidine-2,4-diamine
@<TRIPOS>ATOM
      1 C1         -0.7508    2.5330    2.8946 C.3       1 <0>        -0.1490
      2 C2         -0.8145    1.7467    1.5837 C.3       1 <0>        -0.0969
      3 C3         -2.1406    1.0371    1.4874 C.ar      1 <0>         0.2952
      4 C4         -2.2972   -0.2415    2.0189 C.ar      1 <0>        -0.2416
      5 C5         -3.5557   -0.8611    1.9037 C.ar      1 <0>         0.3761
      6 N1         -4.5393   -0.2072    1.2966 N.ar      1 <0>        -0.5292
      7 C6         -4.3434    1.0077    0.8064 C.ar      1 <0>         0.5861
      8 N2         -5.3929    1.6565    0.1813 N.pl3     1 <0>        -0.7352
      9 N3         -3.7646   -2.1294    2.4146 N.pl3     1 <0>        -0.7663
     10 C7         -1.1682   -0.9307    2.6885 C.ar      1 <0>        -0.0342
     11 C8         -0.0679   -1.3531    1.9321 C.ar      1 <0>        -0.0865
     12 C9          1.0058   -1.9942    2.5255 C.ar      1 <0>        -0.0705
     13 C10         1.0084   -2.2415    3.8806 C.ar      1 <0>         0.0034
     14 C11        -0.1356   -1.8132    4.6892 C.ar      1 <0>         0.1404
     15 C12        -1.2155   -1.1546    4.0523 C.ar      1 <0>        -0.1716
     16 N4         -0.1593   -2.0379    5.9951 N.2       1 <0>        -0.3116
     17 N5         -1.0416   -1.7049    6.6067 N.1       1 <0>         0.2758
     18 N6         -1.9239   -1.3719    7.2183 N.1       1 <0>        -0.0901
     19 Cl1         2.3524   -3.0525    4.6220 Cl        1 <0>        -0.0075
     20 H1         -1.5706    3.2506    2.9281 H         1 <0>         0.0686
     21 H2          0.1993    3.0638    2.9541 H         1 <0>         0.0902
     22 H3         -0.8358    1.8448    3.7356 H         1 <0>         0.0612
     23 H4         -0.7075    2.4323    0.7431 H         1 <0>         0.1182
     24 H5         -0.0079    1.0140    1.5599 H         1 <0>         0.1130
     25 H6         -6.2568    1.2216    0.1070 H         1 <0>         0.4376
     26 H7         -5.2651    2.5465   -0.1827 H         1 <0>         0.4502
     27 H8         -3.0404   -2.5995    2.8568 H         1 <0>         0.4527
     28 H9         -4.6352   -2.5488    2.3307 H         1 <0>         0.4486
     29 H10        -0.0550   -1.1717    0.8675 H         1 <0>         0.1484
     30 H11         1.8447   -2.3067    1.9214 H         1 <0>         0.1632
     31 H12        -2.0696   -0.8292    4.6277 H         1 <0>         0.1335
     32 N7         -3.1649    1.6916    0.8738 N.ar      1 <0>        -0.4899
     33 H13        -3.7939   -0.6850    1.7614 H         1 <0>         0.4176
@<TRIPOS>BOND
     1    1    2 1
     2    1   20 1
     3    1   21 1
     4    1   22 1
     5    2    3 1
     6    2   23 1
     7    2   24 1
     8    3    4 ar
     9    3   32 ar
    10    4    5 ar
    11    4   10 1
    12    5    6 ar
    13    5    9 1
    14    6    7 ar
    15    6   33 1
    16    7    8 1
    17    7   32 ar
    18    8   25 1
    19    8   26 1
    20    9   27 1
    21    9   28 1
    22   10   15 ar
    23   10   11 ar
    24   11   12 ar
    25   11   29 1
    26   12   13 ar
    27   12   30 1
    28   13   14 ar
    29   13   19 1
    30   14   15 ar
    31   14   16 1
    32   15   31 1
    33   16   17 2
    34   17   18 2
@<TRIPOS>MOLECULE
ZINC01529323
   53    55     0     0     0
SMALL
USER_CHARGES

@<TRIPOS>ATOM
      1 C1         -0.0178    1.4608    0.0101 C.3       1 <0>         0.0943
      2 N1          0.0021   -0.0041    0.0020 N.pl3     1 <0>        -0.6229
      3 C2          0.0241   -0.7433    1.2666 C.3       1 <0>         0.1846
      4 C3         -1.3889   -1.0161    1.7137 C.ar      1 <0>         0.0299
      5 C4         -1.9892   -2.2351    1.3999 C.ar      1 <0>         0.1556
      6 N2         -3.2219   -2.4965    1.7797 N.ar      1 <0>        -0.4373
      7 C5         -3.9051   -1.5830    2.4739 C.ar      1 <0>         0.3718
      8 C6         -3.2902   -0.3458    2.7901 C.ar      1 <0>        -0.0918
      9 N3         -2.0425   -0.1038    2.4012 N.ar      1 <0>        -0.3728
     10 C7         -4.0706    0.6301    3.5527 C.ar      1 <0>         0.5432
     11 N4         -5.3055    0.2953    3.9004 N.ar      1 <0>        -0.6300
     12 C8         -5.8196   -0.8850    3.5693 C.ar      1 <0>         0.6362
     13 N5         -5.1609   -1.7987    2.8845 N.ar      1 <0>        -0.5990
     14 N6         -7.1130   -1.1692    3.9639 N.pl3     1 <0>        -0.8099
     15 N7         -3.5402    1.8539    3.8976 N.pl3     1 <0>        -0.7943
     16 C9          0.0000   -0.6928   -1.2059 C.ar      1 <0>         0.2179
     17 C10         0.0132   -2.0849   -1.2118 C.ar      1 <0>        -0.2113
     18 C11         0.0112   -2.7693   -2.4056 C.ar      1 <0>        -0.0159
     19 C12        -0.0041   -2.0653   -3.6133 C.ar      1 <0>        -0.1590
     20 C13        -0.0173   -0.6674   -3.6040 C.ar      1 <0>        -0.0366
     21 C14        -0.0210    0.0112   -2.4068 C.ar      1 <0>        -0.1985
     22 C15        -0.0058   -2.7960   -4.8948 C.2       1 <0>         0.5556
     23 O1          0.0061   -4.0119   -4.9015 O.2       1 <0>        -0.5600
     24 N8         -0.0205   -2.1158   -6.0583 N.am      1 <0>        -0.6793
     25 C16        -0.0222   -2.8414   -7.3310 C.3       1 <0>         0.0733
     26 H1         -0.6020   -3.7584   -7.2256 H         1 <0>         0.0773
     27 C17        -0.6480   -1.9644   -8.4172 C.3       1 <0>        -0.0801
     28 C18        -2.1222   -1.7198   -8.0888 C.3       1 <0>        -0.1777
     29 C19        -2.7386   -0.8559   -9.1588 C.2       1 <0>         0.4909
     30 O2         -2.0616   -0.4715  -10.0971 O.co2     1 <0>        -0.6975
     31 O3         -3.9143   -0.5414   -9.0862 O.co2     1 <0>        -0.7207
     32 C20         1.3940   -3.1839   -7.7158 C.2       1 <0>         0.4958
     33 O4          2.3190   -2.8526   -6.9939 O.co2     1 <0>        -0.6970
     34 O5          1.6147   -3.7923   -8.7491 O.co2     1 <0>        -0.7014
     35 H2          1.0048    1.8381    0.0023 H         1 <0>         0.0502
     36 H3         -0.5450    1.8219   -0.8730 H         1 <0>         0.0690
     37 H4         -0.5280    1.8123    0.9069 H         1 <0>         0.0657
     38 H5          0.5496   -1.6879    1.1262 H         1 <0>         0.1015
     39 H6          0.5371   -0.1514    2.0246 H         1 <0>         0.0948
     40 H7         -1.4361   -2.9733    0.8382 H         1 <0>         0.1815
     41 H8         -7.6209   -0.5150    4.4689 H         1 <0>         0.4148
     42 H9         -7.5132   -2.0229    3.7358 H         1 <0>         0.4190
     43 H10        -2.6346    2.0814    3.6347 H         1 <0>         0.4250
     44 H11        -4.0722    2.4880    4.4032 H         1 <0>         0.4139
     45 H12         0.0253   -2.6282   -0.2785 H         1 <0>         0.1208
     46 H13         0.0217   -3.8493   -2.4096 H         1 <0>         0.1351
     47 H14        -0.0287   -0.1208   -4.5353 H         1 <0>         0.1282
     48 H15        -0.0359    1.0910   -2.3989 H         1 <0>         0.1244
     49 H16        -0.0300   -1.1459   -6.0530 H         1 <0>         0.3877
     50 H17        -0.1225   -1.0104   -8.4615 H         1 <0>         0.0543
     51 H18        -0.5691   -2.4677   -9.3808 H         1 <0>         0.0783
     52 H19        -2.6477   -2.6737   -8.0445 H         1 <0>         0.0522
     53 H20        -2.2011   -1.2164   -7.1252 H         1 <0>         0.0501
@<TRIPOS>BOND
     1    1    2 1
     2    1   35 1
     3    1   36 1
     4    1   37 1
     5    2    3 1
     6    2   16 1
     7    3    4 1
     8    3   38 1
     9    3   39 1
    10    4    9 ar
    11    4    5 ar
    12    5    6 ar
    13    5   40 1
    14    6    7 ar
    15    7   13 ar
    16    7    8 ar
    17    8    9 ar
    18    8   10 ar
    19   10   11 ar
    20   10   15 1
    21   11   12 ar
    22   12   13 ar
    23   12   14 1
    24   14   41 1
    25   14   42 1
    26   15   43 1
    27   15   44 1
    28   16   21 ar
    29   16   17 ar
    30   17   18 ar
    31   17   45 1
    32   18   19 ar
    33   18   46 1
    34   19   20 ar
    35   19   22 1
    36   20   21 ar
    37   20   47 1
    38   21   48 1
    39   22   23 2
    40   22   24 am
    41   24   25 1
    42   24   49 1
    43   25   26 1
    44   25   27 1
    45   25   32 1
    46   27   28 1
    47   27   50 1
    48   27   51 1
    49   28   29 1
    50   28   52 1
    51   28   53 1
    52   29   30 2
    53   29   31 1
    54   32   33 2
    55   32   34 1
@<TRIPOS>MOLECULE
ZINC00057464
   31    32     0     0     0
SMALL
USER_CHARGES

@<TRIPOS>ATOM
      1 C1          0.8938   -1.6695   -0.2826 C.3       1 <0>        -0.1541
      2 C2          0.1058   -0.3830   -0.0280 C.3       1 <0>        -0.1059
      3 C3         -1.3705   -0.6715   -0.1204 C.ar      1 <0>         0.2540
      4 C4         -2.0171   -0.6541   -1.3543 C.ar      1 <0>        -0.1905
      5 C5         -3.3964   -0.9306   -1.3874 C.ar      1 <0>         0.5400
      6 N1         -4.0249   -1.1960   -0.2480 N.ar      1 <0>        -0.5746
      7 C6         -3.3681   -1.2013    0.9023 C.ar      1 <0>         0.6664
      8 N2         -2.0684   -0.9502    0.9687 N.ar      1 <0>        -0.5689
      9 N3         -4.0580   -1.4823    2.0680 N.pl3     1 <0>        -0.7902
     10 N4         -4.0862   -0.9256   -2.5867 N.pl3     1 <0>        -0.7725
     11 C7         -1.2715   -0.3515   -2.5998 C.ar      1 <0>        -0.0664
     12 C8         -0.7740    0.9313   -2.8230 C.ar      1 <0>        -0.0833
     13 C9         -0.0805    1.2075   -3.9835 C.ar      1 <0>        -0.1019
     14 C10         0.1212    0.2132   -4.9255 C.ar      1 <0>        -0.0159
     15 C11        -0.3708   -1.0625   -4.7087 C.ar      1 <0>        -0.1017
     16 C12        -1.0607   -1.3505   -3.5489 C.ar      1 <0>        -0.0895
     17 Cl1         0.9936    0.5676   -6.3840 Cl        1 <0>        -0.0435
     18 H1          1.9579   -1.4768   -0.1461 H         1 <0>         0.0889
     19 H2          0.5708   -2.4384    0.4193 H         1 <0>         0.0627
     20 H3          0.7140   -2.0099   -1.3023 H         1 <0>         0.0723
     21 H4          0.3403   -0.0041    0.9668 H         1 <0>         0.1048
     22 H5          0.3775    0.3633   -0.7745 H         1 <0>         0.1224
     23 H6         -5.0088   -1.6717    2.0352 H         1 <0>         0.4457
     24 H7         -3.5910   -1.4900    2.9181 H         1 <0>         0.4308
     25 H8         -3.6191   -0.7304   -3.4141 H         1 <0>         0.4323
     26 H9         -5.0370   -1.1173   -2.6001 H         1 <0>         0.4292
     27 H10        -0.9315    1.7078   -2.0891 H         1 <0>         0.1381
     28 H11         0.3054    2.2011   -4.1575 H         1 <0>         0.1461
     29 H12        -0.2111   -1.8346   -5.4468 H         1 <0>         0.1460
     30 H13        -1.4406   -2.3471   -3.3788 H         1 <0>         0.1372
     31 H14        -1.6224   -0.9677    1.8299 H         1 <0>         0.4421
@<TRIPOS>BOND
     1    1    2 1
     2    1   18 1
     3    1   19 1
     4    1   20 1
     5    2    3 1
     6    2   21 1
     7    2   22 1
     8    3    8 ar
     9    3    4 ar
    10    4    5 ar
    11    4   11 1
    12    5    6 ar
    13    5   10 1
    14    6    7 ar
    15    7    8 ar
    16    7    9 1
    17    8   31 1
    18    9   23 1
    19    9   24 1
    20   10   25 1
    21   10   26 1
    22   11   16 ar
    23   11   12 ar
    24   12   13 ar
    25   12   27 1
    26   13   14 ar
    27   13   28 1
    28   14   15 ar
    29   14   17 1
    30   15   16 ar
    31   15   29 1
    32   16   30 1
@<TRIPOS>MOLECULE
ZINC00057464
   30    31     0     0     0
SMALL
USER_CHARGES

@<TRIPOS>ATOM
      1 C1         -0.0187    1.5258    0.0104 C.3       1 <0>        -0.1415
      2 C2          0.0021   -0.0041    0.0020 C.3       1 <0>        -0.0814
      3 C3          0.7309   -0.5033    1.2229 C.ar      1 <0>         0.2684
      4 C4          2.1076   -0.7142    1.1859 C.ar      1 <0>        -0.2868
      5 C5          2.7415   -1.1805    2.3524 C.ar      1 <0>         0.4973
      6 N1          2.0075   -1.4004    3.4372 N.ar      1 <0>        -0.6305
      7 C6          0.7005   -1.1855    3.4254 C.ar      1 <0>         0.6107
      8 N2          0.0727   -0.7418    2.3457 N.ar      1 <0>        -0.6025
      9 N3         -0.0299   -1.4263    4.5753 N.pl3     1 <0>        -0.8186
     10 N4          4.1063   -1.4066    2.3689 N.pl3     1 <0>        -0.8307
     11 C7          2.8842   -0.4545   -0.0502 C.ar      1 <0>        -0.0061
     12 C8          2.6528   -1.2161   -1.1945 C.ar      1 <0>        -0.0980
     13 C9          3.3779   -0.9701   -2.3425 C.ar      1 <0>        -0.1043
     14 C10         4.3342    0.0308   -2.3589 C.ar      1 <0>        -0.0374
     15 C11         4.5679    0.7901   -1.2251 C.ar      1 <0>        -0.1042
     16 C12         3.8442    0.5559   -0.0737 C.ar      1 <0>        -0.1060
     17 Cl1         5.2438    0.3344   -3.8059 Cl        1 <0>        -0.0689
     18 H1          1.0039    1.9031    0.0027 H         1 <0>         0.0561
     19 H2         -0.5459    1.8868   -0.8726 H         1 <0>         0.0657
     20 H3         -0.5289    1.8773    0.9072 H         1 <0>         0.0593
     21 H4         -1.0205   -0.3814    0.0098 H         1 <0>         0.0875
     22 H5          0.5123   -0.3556   -0.8948 H         1 <0>         0.0875
     23 H6          0.4159   -1.7477    5.3746 H         1 <0>         0.4141
     24 H7         -0.9878   -1.2737    4.5823 H         1 <0>         0.4160
     25 H8          4.6346   -1.2437    1.5719 H         1 <0>         0.4128
     26 H9          4.5349   -1.7282    3.1775 H         1 <0>         0.4080
     27 H10         1.9075   -1.9977   -1.1826 H         1 <0>         0.1325
     28 H11         3.1993   -1.5597   -3.2296 H         1 <0>         0.1355
     29 H12         5.3153    1.5695   -1.2429 H         1 <0>         0.1350
     30 H13         4.0244    1.1515    0.8090 H         1 <0>         0.1304
@<TRIPOS>BOND
     1    1    2 1
     2    1   18 1
     3    1   19 1
     4    1   20 1
     5    2    3 1
     6    2   21 1
     7    2   22 1
     8    3    8 ar
     9    3    4 ar
    10    4    5 ar
    11    4   11 1
    12    5    6 ar
    13    5   10 1
    14    6    7 ar
    15    7    8 ar
    16    7    9 1
    17    9   23 1
    18    9   24 1
    19   10   25 1
    20   10   26 1
    21   11   16 ar
    22   11   12 ar
    23   12   13 ar
    24   12   27 1
    25   13   14 ar
    26   13   28 1
    27   14   15 ar
    28   14   17 1
    29   15   16 ar
    30   15   29 1
    31   16   30 1
@<TRIPOS>MOLECULE
ZINC06920406
   53    55     0     0     0
SMALL
USER_CHARGES

@<TRIPOS>ATOM
      1 C1         -0.0178    1.4608    0.0101 C.3       1 <0>         0.0941
      2 N1          0.0021   -0.0041    0.0020 N.pl3     1 <0>        -0.6227
      3 C2          0.0241   -0.7433    1.2666 C.3       1 <0>         0.1846
      4 C3         -1.3889   -1.0161    1.7137 C.ar      1 <0>         0.0297
      5 C4         -1.9892   -2.2351    1.3999 C.ar      1 <0>         0.1557
      6 N2         -3.2219   -2.4965    1.7797 N.ar      1 <0>        -0.4368
      7 C5         -3.9051   -1.5830    2.4739 C.ar      1 <0>         0.3719
      8 C6         -3.2902   -0.3458    2.7901 C.ar      1 <0>        -0.0918
      9 N3         -2.0425   -0.1038    2.4012 N.ar      1 <0>        -0.3728
     10 C7         -4.0706    0.6301    3.5527 C.ar      1 <0>         0.5431
     11 N4         -5.3055    0.2953    3.9004 N.ar      1 <0>        -0.6300
     12 C8         -5.8196   -0.8850    3.5693 C.ar      1 <0>         0.6360
     13 N5         -5.1609   -1.7987    2.8845 N.ar      1 <0>        -0.5986
     14 N6         -7.1130   -1.1692    3.9639 N.pl3     1 <0>        -0.8100
     15 N7         -3.5402    1.8539    3.8976 N.pl3     1 <0>        -0.7944
     16 C9          0.0000   -0.6928   -1.2059 C.ar      1 <0>         0.2189
     17 C10         0.0132   -2.0849   -1.2118 C.ar      1 <0>        -0.2116
     18 C11         0.0112   -2.7693   -2.4056 C.ar      1 <0>        -0.0155
     19 C12        -0.0041   -2.0653   -3.6133 C.ar      1 <0>        -0.1616
     20 C13        -0.0173   -0.6674   -3.6040 C.ar      1 <0>        -0.0356
     21 C14        -0.0210    0.0112   -2.4068 C.ar      1 <0>        -0.1983
     22 C15        -0.0058   -2.7960   -4.8948 C.2       1 <0>         0.5487
     23 O1          0.0061   -4.0119   -4.9015 O.2       1 <0>        -0.5585
     24 N8         -0.0205   -2.1158   -6.0583 N.am      1 <0>        -0.6789
     25 C16        -0.0222   -2.8414   -7.3310 C.3       1 <0>         0.0745
     26 H1          0.5768   -3.7469   -7.2338 H         1 <0>         0.0773
     27 C17         0.5711   -1.9524   -8.4257 C.3       1 <0>        -0.0822
     28 C18         2.0446   -1.6789   -8.1177 C.3       1 <0>        -0.1766
     29 C19         2.6291   -0.8032   -9.1959 C.2       1 <0>         0.4909
     30 O2          1.9317   -0.4323  -10.1247 O.co2     1 <0>        -0.6980
     31 O3          3.7993   -0.4657   -9.1396 O.co2     1 <0>        -0.7201
     32 C20        -1.4367   -3.2117   -7.6962 C.2       1 <0>         0.4981
     33 O4         -2.3634   -2.5041   -7.3399 O.co2     1 <0>        -0.6991
     34 O5         -1.6542   -4.2188   -8.3480 O.co2     1 <0>        -0.7022
     35 H2          1.0048    1.8381    0.0023 H         1 <0>         0.0507
     36 H3         -0.5450    1.8219   -0.8730 H         1 <0>         0.0690
     37 H4         -0.5280    1.8123    0.9069 H         1 <0>         0.0658
     38 H5          0.5496   -1.6879    1.1262 H         1 <0>         0.1014
     39 H6          0.5371   -0.1514    2.0246 H         1 <0>         0.0950
     40 H7         -1.4361   -2.9733    0.8382 H         1 <0>         0.1814
     41 H8         -7.6209   -0.5150    4.4689 H         1 <0>         0.4147
     42 H9         -7.5132   -2.0229    3.7358 H         1 <0>         0.4190
     43 H10        -2.6346    2.0814    3.6347 H         1 <0>         0.4250
     44 H11        -4.0722    2.4880    4.4032 H         1 <0>         0.4139
     45 H12         0.0253   -2.6282   -0.2785 H         1 <0>         0.1211
     46 H13         0.0217   -3.8493   -2.4096 H         1 <0>         0.1354
     47 H14        -0.0287   -0.1208   -4.5353 H         1 <0>         0.1292
     48 H15        -0.0359    1.0910   -2.3989 H         1 <0>         0.1249
     49 H16        -0.0300   -1.1459   -6.0530 H         1 <0>         0.3899
     50 H17         0.4888   -2.4573   -9.3882 H         1 <0>         0.0717
     51 H18         0.0264   -1.0090   -8.4626 H         1 <0>         0.0594
     52 H19         2.1270   -1.1740   -7.1552 H         1 <0>         0.0514
     53 H20         2.5893   -2.6223   -8.0808 H         1 <0>         0.0527
@<TRIPOS>BOND
     1    1    2 1
     2    1   35 1
     3    1   36 1
     4    1   37 1
     5    2    3 1
     6    2   16 1
     7    3    4 1
     8    3   38 1
     9    3   39 1
    10    4    9 ar
    11    4    5 ar
    12    5    6 ar
    13    5   40 1
    14    6    7 ar
    15    7   13 ar
    16    7    8 ar
    17    8    9 ar
    18    8   10 ar
    19   10   11 ar
    20   10   15 1
    21   11   12 ar
    22   12   13 ar
    23   12   14 1
    24   14   41 1
    25   14   42 1
    26   15   43 1
    27   15   44 1
    28   16   21 ar
    29   16   17 ar
    30   17   18 ar
    31   17   45 1
    32   18   19 ar
    33   18   46 1
    34   19   20 ar
    35   19   22 1
    36   20   21 ar
    37   20   47 1
    38   21   48 1
    39   22   23 2
    40   22   24 am
    41   24   25 1
    42   24   49 1
    43   25   26 1
    44   25   27 1
    45   25   32 1
    46   27   28 1
    47   27   50 1
    48   27   51 1
    49   28   29 1
    50   28   52 1
    51   28   53 1
    52   29   30 2
    53   29   31 1
    54   32   33 2
    55   32   34 1
@<TRIPOS>MOLECULE
ZINC01566881
   33    35     0     0     0
SMALL
USER_CHARGES
6-(m-tolyl)pteridine-2,4,7-triamine
@<TRIPOS>ATOM
      1 C1          1.5430    2.8069   -2.2267 C.3       1 <0>        -0.1177
      2 C2          0.7561    2.5582   -0.9658 C.ar      1 <0>        -0.0814
      3 C3          1.2456    2.9974    0.2516 C.ar      1 <0>        -0.1123
      4 C4          0.5290    2.7728    1.4132 C.ar      1 <0>        -0.1089
      5 C5         -0.6797    2.1085    1.3641 C.ar      1 <0>        -0.1247
      6 C6         -1.1809    1.6685    0.1396 C.ar      1 <0>        -0.0277
      7 C7         -0.4512    1.8933   -1.0276 C.ar      1 <0>        -0.0857
      8 C8         -2.4810    0.9604    0.0792 C.ar      1 <0>         0.0545
      9 C9         -3.5835    1.4480    0.8203 C.ar      1 <0>         0.4462
     10 N1         -4.7491    0.8284    0.7697 N.ar      1 <0>        -0.5202
     11 C10        -4.8820   -0.2717    0.0223 C.ar      1 <0>         0.4276
     12 C11        -3.7741   -0.7601   -0.7139 C.ar      1 <0>        -0.1483
     13 N2         -2.6041   -0.1262   -0.6620 N.ar      1 <0>        -0.3450
     14 C12        -3.9518   -1.9304   -1.4959 C.ar      1 <0>         0.5516
     15 N3         -5.1434   -2.5099   -1.5011 N.ar      1 <0>        -0.6394
     16 C13        -6.1557   -2.0171   -0.7944 C.ar      1 <0>         0.6432
     17 N4         -6.0451   -0.9317   -0.0504 N.ar      1 <0>        -0.6058
     18 N5         -7.3744   -2.6672   -0.8406 N.pl3     1 <0>        -0.8073
     19 N6         -2.9101   -2.4515   -2.2332 N.pl3     1 <0>        -0.7990
     20 N7         -3.4416    2.5827    1.5970 N.pl3     1 <0>        -0.8213
     21 H1          1.2458    3.7629   -2.6578 H         1 <0>         0.0727
     22 H2          2.6073    2.8292   -1.9923 H         1 <0>         0.0689
     23 H3          1.3451    2.0086   -2.9419 H         1 <0>         0.0682
     24 H4          2.1908    3.5181    0.2949 H         1 <0>         0.1256
     25 H5          0.9159    3.1184    2.3604 H         1 <0>         0.1291
     26 H6         -1.2381    1.9333    2.2717 H         1 <0>         0.1283
     27 H7         -0.8326    1.5515   -1.9784 H         1 <0>         0.1265
     28 H8         -8.1265   -2.3245   -0.3328 H         1 <0>         0.4192
     29 H9         -7.4777   -3.4662   -1.3807 H         1 <0>         0.4168
     30 H10        -2.0427   -2.0174   -2.2214 H         1 <0>         0.4239
     31 H11        -3.0445   -3.2523   -2.7638 H         1 <0>         0.4134
     32 H12        -2.6316    3.1130    1.5374 H         1 <0>         0.4170
     33 H13        -4.1521    2.8486    2.2015 H         1 <0>         0.4119
@<TRIPOS>BOND
     1    1    2 1
     2    1   21 1
     3    1   22 1
     4    1   23 1
     5    2    7 ar
     6    2    3 ar
     7    3    4 ar
     8    3   24 1
     9    4    5 ar
    10    4   25 1
    11    5    6 ar
    12    5   26 1
    13    6    7 ar
    14    6    8 1
    15    7   27 1
    16    8   13 ar
    17    8    9 ar
    18    9   10 ar
    19    9   20 1
    20   10   11 ar
    21   11   17 ar
    22   11   12 ar
    23   12   13 ar
    24   12   14 ar
    25   14   15 ar
    26   14   19 1
    27   15   16 ar
    28   16   17 ar
    29   16   18 1
    30   18   28 1
    31   18   29 1
    32   19   30 1
    33   19   31 1
    34   20   32 1
    35   20   33 1
@<TRIPOS>MOLECULE
ZINC01712532
   38    41     0     0     0
SMALL
USER_CHARGES
6,7-diphenylpteridine-2,4-diamine
@<TRIPOS>ATOM
      1 C1          0.2234    8.1194   -1.3307 C.ar      1 <0>        -0.1059
      2 C2          1.2291    7.5752   -0.5521 C.ar      1 <0>        -0.1225
      3 C3          1.2012    6.2359   -0.2214 C.ar      1 <0>        -0.0861
      4 C4          0.1565    5.4305   -0.6737 C.ar      1 <0>        -0.0395
      5 C5         -0.8514    5.9836   -1.4630 C.ar      1 <0>        -0.0848
      6 C6         -0.8158    7.3256   -1.7820 C.ar      1 <0>        -0.1178
      7 C7          0.1206    3.9917   -0.3221 C.ar      1 <0>         0.0988
      8 C8         -1.0890    3.4038    0.1182 C.ar      1 <0>         0.2243
      9 N1         -1.1320    2.1212    0.4402 N.ar      1 <0>        -0.4340
     10 C9         -0.0285    1.3772    0.3377 C.ar      1 <0>         0.3800
     11 C10         1.1813    1.9714   -0.1046 C.ar      1 <0>        -0.0928
     12 N2          1.2191    3.2619   -0.4214 N.ar      1 <0>        -0.3701
     13 C11         2.3673    1.1184   -0.1962 C.ar      1 <0>         0.5454
     14 N3          2.2373   -0.1576    0.1405 N.ar      1 <0>        -0.6274
     15 C12         1.0712   -0.6484    0.5476 C.ar      1 <0>         0.6413
     16 N4         -0.0267    0.0745    0.6480 N.ar      1 <0>        -0.6010
     17 N5          1.0060   -1.9873    0.8832 N.pl3     1 <0>        -0.8058
     18 N6          3.5779    1.6243   -0.6180 N.pl3     1 <0>        -0.7912
     19 C13        -2.3131    4.2307    0.2246 C.ar      1 <0>        -0.0609
     20 C14        -2.2575    5.4906    0.8204 C.ar      1 <0>        -0.0755
     21 C15        -3.4000    6.2591    0.9106 C.ar      1 <0>        -0.1214
     22 C16        -4.6015    5.7769    0.4230 C.ar      1 <0>        -0.0982
     23 C17        -4.6644    4.5255   -0.1635 C.ar      1 <0>        -0.1245
     24 C18        -3.5274    3.7504   -0.2655 C.ar      1 <0>        -0.0738
     25 H1          0.2495    9.1682   -1.5870 H         1 <0>         0.1245
     26 H2          2.0375    8.2000   -0.2021 H         1 <0>         0.1260
     27 H3          1.9867    5.8122    0.3868 H         1 <0>         0.1244
     28 H4         -1.6606    5.3638   -1.8199 H         1 <0>         0.1241
     29 H5         -1.5982    7.7560   -2.3895 H         1 <0>         0.1265
     30 H6          0.1676   -2.3719    1.1832 H         1 <0>         0.4201
     31 H7          1.7987   -2.5426    0.8187 H         1 <0>         0.4175
     32 H8          4.3534    1.0442   -0.6726 H         1 <0>         0.4168
     33 H9          3.6544    2.5604   -0.8604 H         1 <0>         0.4261
     34 H10        -1.3210    5.8661    1.2058 H         1 <0>         0.1258
     35 H11        -3.3572    7.2368    1.3674 H         1 <0>         0.1282
     36 H12        -5.4941    6.3801    0.5002 H         1 <0>         0.1263
     37 H13        -5.6052    4.1547   -0.5426 H         1 <0>         0.1285
     38 H14        -3.5776    2.7739   -0.7242 H         1 <0>         0.1283
@<TRIPOS>BOND
     1    1    6 ar
     2    1    2 ar
     3    1   25 1
     4    2    3 ar
     5    2   26 1
     6    3    4 ar
     7    3   27 1
     8    4    5 ar
     9    4    7 1
    10    5    6 ar
    11    5   28 1
    12    6   29 1
    13    7   12 ar
    14    7    8 ar
    15    8    9 ar
    16    8   19 1
    17    9   10 ar
    18   10   16 ar
    19   10   11 ar
    20   11   12 ar
    21   11   13 ar
    22   13   14 ar
    23   13   18 1
    24   14   15 ar
    25   15   16 ar
    26   15   17 1
    27   17   30 1
    28   17   31 1
    29   18   32 1
    30   18   33 1
    31   19   24 ar
    32   19   20 ar
    33   20   21 ar
    34   20   34 1
    35   21   22 ar
    36   21   35 1
    37   22   23 ar
    38   22   36 1
    39   23   24 ar
    40   23   37 1
    41   24   38 1
@<TRIPOS>MOLECULE
ZINC01574819
   40    41     0     0     0
SMALL
USER_CHARGES
5-(4-chloro-3-dimethylaminoazo-phenyl)-6-ethyl-pyrimidine-2,4-diamine
@<TRIPOS>ATOM
      1 C1         -0.4062    0.3719   -3.2115 C.3       1 <0>        -0.1416
      2 C2          0.8287    0.0288   -2.3759 C.3       1 <0>        -0.0800
      3 C3          0.4042   -0.7048   -1.1299 C.ar      1 <0>         0.2691
      4 C4          0.0785   -0.0007    0.0273 C.ar      1 <0>        -0.2854
      5 C5         -0.3176   -0.7318    1.1625 C.ar      1 <0>         0.4984
      6 N1         -0.3606   -2.0571    1.0891 N.ar      1 <0>        -0.6302
      7 C6         -0.0369   -2.6840   -0.0320 C.ar      1 <0>         0.6106
      8 N2          0.3399   -2.0265   -1.1193 N.ar      1 <0>        -0.6026
      9 N3         -0.0942   -4.0658   -0.0691 N.pl3     1 <0>        -0.8191
     10 N4         -0.6569   -0.0808    2.3352 N.pl3     1 <0>        -0.8300
     11 C7          0.1418    1.4805    0.0599 C.ar      1 <0>        -0.0008
     12 C8          1.3751    2.1287   -0.0095 C.ar      1 <0>        -0.0941
     13 C9          1.4369    3.5077    0.0202 C.ar      1 <0>        -0.0984
     14 C10         0.2785    4.2549    0.1183 C.ar      1 <0>        -0.0048
     15 C11        -0.9623    3.6171    0.1890 C.ar      1 <0>         0.1149
     16 C12        -1.0294    2.2258    0.1540 C.ar      1 <0>        -0.1166
     17 N5         -2.1125    4.3591    0.2865 N.2       1 <0>        -0.3261
     18 N6         -3.2575    3.7684    0.3516 N.2       1 <0>         0.0466
     19 N7         -4.4318    4.5259    0.4511 N.pl3     1 <0>        -0.4916
     20 C13        -4.3596    5.9888    0.4811 C.3       1 <0>         0.0672
     21 C14        -5.7321    3.8551    0.5251 C.3       1 <0>         0.1167
     22 Cl1         0.3655    5.9883    0.1545 Cl        1 <0>        -0.0499
     23 H1         -0.0938    0.8247   -4.1525 H         1 <0>         0.0657
     24 H2         -0.9708   -0.5378   -3.4158 H         1 <0>         0.0587
     25 H3         -1.0337    1.0732   -2.6614 H         1 <0>         0.0554
     26 H4          1.3462    0.9472   -2.0983 H         1 <0>         0.0874
     27 H5          1.4981   -0.6032   -2.9594 H         1 <0>         0.0878
     28 H6         -0.3685   -4.5611    0.7185 H         1 <0>         0.4138
     29 H7          0.1398   -4.5392   -0.8827 H         1 <0>         0.4158
     30 H8         -0.6229    0.8876    2.3797 H         1 <0>         0.4123
     31 H9         -0.9288   -0.5928    3.1129 H         1 <0>         0.4077
     32 H10         2.2839    1.5503   -0.0871 H         1 <0>         0.1358
     33 H11         2.3944    4.0045   -0.0339 H         1 <0>         0.1433
     34 H12        -1.9864    1.7278    0.2038 H         1 <0>         0.1370
     35 H13        -4.4126    6.3761   -0.5363 H         1 <0>         0.0562
     36 H14        -5.1929    6.3819    1.0635 H         1 <0>         0.0731
     37 H15        -3.4194    6.2968    0.9386 H         1 <0>         0.0805
     38 H16        -5.5866    2.7754    0.4891 H         1 <0>         0.0831
     39 H17        -6.2272    4.1241    1.4582 H         1 <0>         0.0671
     40 H18        -6.3501    4.1666   -0.3170 H         1 <0>         0.0670
@<TRIPOS>BOND
     1    1    2 1
     2    1   23 1
     3    1   24 1
     4    1   25 1
     5    2    3 1
     6    2   26 1
     7    2   27 1
     8    3    8 ar
     9    3    4 ar
    10    4    5 ar
    11    4   11 1
    12    5    6 ar
    13    5   10 1
    14    6    7 ar
    15    7    8 ar
    16    7    9 1
    17    9   28 1
    18    9   29 1
    19   10   30 1
    20   10   31 1
    21   11   16 ar
    22   11   12 ar
    23   12   13 ar
    24   12   32 1
    25   13   14 ar
    26   13   33 1
    27   14   15 ar
    28   14   22 1
    29   15   16 ar
    30   15   17 1
    31   16   34 1
    32   17   18 2
    33   18   19 1
    34   19   20 1
    35   19   21 1
    36   20   35 1
    37   20   36 1
    38   20   37 1
    39   21   38 1
    40   21   39 1
    41   21   40 1
@<TRIPOS>MOLECULE
ZINC03777839
   51    53     0     0     0
SMALL
USER_CHARGES

@<TRIPOS>ATOM
      1 C1          0.8935   -1.6706   -0.2826 C.3       1 <0>        -0.1551
      2 C2          0.1058   -0.3838   -0.0280 C.3       1 <0>        -0.1070
      3 C3         -1.3705   -0.6719   -0.1204 C.ar      1 <0>         0.2621
      4 C4         -2.0170   -0.6540   -1.3542 C.ar      1 <0>        -0.1961
      5 C5         -3.3965   -0.9296   -1.3873 C.ar      1 <0>         0.5430
      6 N1         -4.0252   -1.1946   -0.2479 N.ar      1 <0>        -0.5719
      7 C6         -3.3684   -1.2004    0.9025 C.ar      1 <0>         0.6687
      8 N2         -2.0686   -0.9506    0.9688 N.ar      1 <0>        -0.5688
      9 N3         -4.0588   -1.4806    2.0685 N.pl3     1 <0>        -0.7876
     10 N4         -4.0866   -0.9241   -2.5868 N.pl3     1 <0>        -0.7722
     11 C7         -1.2713   -0.3519   -2.5998 C.ar      1 <0>        -0.0711
     12 C8         -0.7738    0.9316   -2.8220 C.ar      1 <0>        -0.0435
     13 C9         -0.0808    1.2101   -3.9808 C.ar      1 <0>        -0.1155
     14 C10         0.1217    0.2127   -4.9276 C.ar      1 <0>         0.2720
     15 C11        -0.3736   -1.0671   -4.7086 C.ar      1 <0>        -0.0566
     16 C12        -1.0616   -1.3521   -3.5479 C.ar      1 <0>        -0.0393
     17 N5         -0.1571   -2.1269   -5.7192 N.pl3     1 <0>         0.0307
     18 O1         -0.5878   -3.2405   -5.5291 O.2       1 <0>        -0.1726
     19 O2          0.4504   -1.8788   -6.7346 O.3       1 <0>        -0.1112
     20 N6          0.8238    0.4974   -6.1012 N.pl3     1 <0>        -0.6740
     21 C13         2.2779    0.3246   -6.1451 C.3       1 <0>         0.1131
     22 C14         0.1060    0.9687   -7.2881 C.3       1 <0>         0.1897
     23 C15         0.0323    2.4737   -7.2660 C.ar      1 <0>        -0.1119
     24 C16        -1.0320    3.1047   -6.6496 C.ar      1 <0>        -0.1118
     25 C17        -1.0995    4.4852   -6.6293 C.ar      1 <0>        -0.1212
     26 C18        -0.1025    5.2348   -7.2251 C.ar      1 <0>        -0.1147
     27 C19         0.9623    4.6038   -7.8408 C.ar      1 <0>        -0.1162
     28 C20         1.0320    3.2233   -7.8573 C.ar      1 <0>        -0.1015
     29 H1          1.9576   -1.4783   -0.1455 H         1 <0>         0.0904
     30 H2          0.5699   -2.4395    0.4190 H         1 <0>         0.0659
     31 H3          0.7141   -2.0106   -1.3025 H         1 <0>         0.0694
     32 H4          0.3405   -0.0050    0.9668 H         1 <0>         0.1084
     33 H5          0.3778    0.3624   -0.7744 H         1 <0>         0.1206
     34 H6         -5.0098   -1.6691    2.0358 H         1 <0>         0.4466
     35 H7         -3.5918   -1.4886    2.9187 H         1 <0>         0.4316
     36 H8         -3.6193   -0.7291   -3.4142 H         1 <0>         0.4300
     37 H9         -5.0375   -1.1152   -2.6002 H         1 <0>         0.4312
     38 H10        -0.9315    1.7071   -2.0870 H         1 <0>         0.1479
     39 H11         0.3047    2.2041   -4.1533 H         1 <0>         0.1574
     40 H12        -1.4419   -2.3482   -3.3758 H         1 <0>         0.1560
     41 H13         2.5137   -0.6899   -6.4663 H         1 <0>         0.0533
     42 H14         2.7074    1.0377   -6.8488 H         1 <0>         0.0722
     43 H15         2.6944    0.4976   -5.1528 H         1 <0>         0.0531
     44 H16         0.6338    0.6438   -8.1848 H         1 <0>         0.0937
     45 H17        -0.9027    0.5556   -7.2906 H         1 <0>         0.0669
     46 H18        -1.8109    2.5190   -6.1841 H         1 <0>         0.1112
     47 H19        -1.9314    4.9782   -6.1483 H         1 <0>         0.1204
     48 H20        -0.1556    6.3134   -7.2098 H         1 <0>         0.1231
     49 H21         1.7411    5.1895   -8.3065 H         1 <0>         0.1246
     50 H22         1.8658    2.7304   -8.3351 H         1 <0>         0.1231
     51 H23        -1.6226   -0.9684    1.8300 H         1 <0>         0.4435
@<TRIPOS>BOND
     1    1    2 1
     2    1   29 1
     3    1   30 1
     4    1   31 1
     5    2    3 1
     6    2   32 1
     7    2   33 1
     8    3    8 ar
     9    3    4 ar
    10    4    5 ar
    11    4   11 1
    12    5    6 ar
    13    5   10 1
    14    6    7 ar
    15    7    8 ar
    16    7    9 1
    17    8   51 1
    18    9   34 1
    19    9   35 1
    20   10   36 1
    21   10   37 1
    22   11   16 ar
    23   11   12 ar
    24   12   13 ar
    25   12   38 1
    26   13   14 ar
    27   13   39 1
    28   14   15 ar
    29   14   20 1
    30   15   16 ar
    31   15   17 1
    32   16   40 1
    33   17   18 2
    34   17   19 1
    35   20   21 1
    36   20   22 1
    37   21   41 1
    38   21   42 1
    39   21   43 1
    40   22   23 1
    41   22   44 1
    42   22   45 1
    43   23   28 ar
    44   23   24 ar
    45   24   25 ar
    46   24   46 1
    47   25   26 ar
    48   25   47 1
    49   26   27 ar
    50   26   48 1
    51   27   28 ar
    52   27   49 1
    53   28   50 1
@<TRIPOS>MOLECULE
ZINC03777839
   50    52     0     0     0
SMALL
USER_CHARGES

@<TRIPOS>ATOM
      1 C1         -0.0187    1.5258    0.0104 C.3       1 <0>        -0.1427
      2 C2          0.0021   -0.0041    0.0020 C.3       1 <0>        -0.0814
      3 C3          0.7074   -0.4901   -1.2379 C.ar      1 <0>         0.2740
      4 C4         -0.0072   -0.7231   -2.4107 C.ar      1 <0>        -0.2926
      5 C5          0.6976   -1.1764   -3.5412 C.ar      1 <0>         0.5021
      6 N1          2.0090   -1.3634   -3.4470 N.ar      1 <0>        -0.6284
      7 C6          2.6466   -1.1284   -2.3099 C.ar      1 <0>         0.6148
      8 N2          2.0147   -0.6959   -1.2283 N.ar      1 <0>        -0.6006
      9 N3          4.0136   -1.3357   -2.2512 N.pl3     1 <0>        -0.8164
     10 N4          0.0353   -1.4235   -4.7309 N.pl3     1 <0>        -0.8299
     11 C7         -1.4721   -0.4999   -2.4664 C.ar      1 <0>        -0.0108
     12 C8         -2.3275   -1.2811   -1.6903 C.ar      1 <0>        -0.0547
     13 C9         -3.6891   -1.0718   -1.7437 C.ar      1 <0>        -0.1182
     14 C10        -4.2095   -0.0831   -2.5708 C.ar      1 <0>         0.2413
     15 C11        -3.3590    0.6965   -3.3455 C.ar      1 <0>        -0.0561
     16 C12        -1.9958    0.4952   -3.2903 C.ar      1 <0>        -0.0545
     17 N5         -3.9163    1.7479   -4.2259 N.pl3     1 <0>         0.0371
     18 O1         -3.1769    2.4264   -4.9001 O.2       1 <0>        -0.1819
     19 O2         -5.1109    1.9281   -4.2708 O.3       1 <0>        -0.1285
     20 N6         -5.5895    0.1269   -2.6235 N.pl3     1 <0>        -0.6693
     21 C13        -6.2215    1.0769   -1.7047 C.3       1 <0>         0.1162
     22 C14        -6.4047   -0.6029   -3.5977 C.3       1 <0>         0.1908
     23 C15        -6.8791   -1.8964   -2.9870 C.ar      1 <0>        -0.1069
     24 C16        -6.1129   -3.0405   -3.1095 C.ar      1 <0>        -0.1081
     25 C17        -6.5480   -4.2270   -2.5494 C.ar      1 <0>        -0.1208
     26 C18        -7.7492   -4.2694   -1.8664 C.ar      1 <0>        -0.1187
     27 C19        -8.5149   -3.1251   -1.7432 C.ar      1 <0>        -0.1198
     28 C20        -8.0777   -1.9376   -2.2996 C.ar      1 <0>        -0.1040
     29 H1          1.0039    1.9031    0.0027 H         1 <0>         0.0621
     30 H2         -0.5459    1.8868   -0.8726 H         1 <0>         0.0541
     31 H3         -0.5289    1.8773    0.9072 H         1 <0>         0.0668
     32 H4          0.5293   -0.3651    0.8851 H         1 <0>         0.0907
     33 H5         -1.0205   -0.3814    0.0098 H         1 <0>         0.0845
     34 H6          4.4908   -1.6486   -3.0356 H         1 <0>         0.4152
     35 H7          4.4945   -1.1681   -1.4257 H         1 <0>         0.4169
     36 H8         -0.9228   -1.2844   -4.7905 H         1 <0>         0.4103
     37 H9          0.5292   -1.7358   -5.5051 H         1 <0>         0.4103
     38 H10        -1.9237   -2.0499   -1.0481 H         1 <0>         0.1425
     39 H11        -4.3520   -1.6766   -1.1428 H         1 <0>         0.1473
     40 H12        -1.3349    1.1047   -3.8887 H         1 <0>         0.1499
     41 H13        -6.2373    2.0671   -2.1601 H         1 <0>         0.0488
     42 H14        -7.2423    0.7565   -1.4963 H         1 <0>         0.0656
     43 H15        -5.6552    1.1140   -0.7742 H         1 <0>         0.0520
     44 H16        -7.2657    0.0038   -3.8781 H         1 <0>         0.0880
     45 H17        -5.8071   -0.8171   -4.4838 H         1 <0>         0.0657
     46 H18        -5.1745   -3.0074   -3.6431 H         1 <0>         0.1142
     47 H19        -5.9498   -5.1210   -2.6457 H         1 <0>         0.1199
     48 H20        -8.0895   -5.1965   -1.4294 H         1 <0>         0.1205
     49 H21        -9.4535   -3.1582   -1.2099 H         1 <0>         0.1215
     50 H22        -8.6741   -1.0428   -2.2002 H         1 <0>         0.1211
@<TRIPOS>BOND
     1    1    2 1
     2    1   29 1
     3    1   30 1
     4    1   31 1
     5    2    3 1
     6    2   32 1
     7    2   33 1
     8    3    8 ar
     9    3    4 ar
    10    4    5 ar
    11    4   11 1
    12    5    6 ar
    13    5   10 1
    14    6    7 ar
    15    7    8 ar
    16    7    9 1
    17    9   34 1
    18    9   35 1
    19   10   36 1
    20   10   37 1
    21   11   16 ar
    22   11   12 ar
    23   12   13 ar
    24   12   38 1
    25   13   14 ar
    26   13   39 1
    27   14   15 ar
    28   14   20 1
    29   15   16 ar
    30   15   17 1
    31   16   40 1
    32   17   18 2
    33   17   19 1
    34   20   21 1
    35   20   22 1
    36   21   41 1
    37   21   42 1
    38   21   43 1
    39   22   23 1
    40   22   44 1
    41   22   45 1
    42   23   28 ar
    43   23   24 ar
    44   24   25 ar
    45   24   46 1
    46   25   26 ar
    47   25   47 1
    48   26   27 ar
    49   26   48 1
    50   27   28 ar
    51   27   49 1
    52   28   50 1
@<TRIPOS>MOLECULE
ZINC05386873
   31    32     0     0     0
SMALL
USER_CHARGES
2-chloro-5-(2,4-diamino-6-ethyl-pyrimidin-5-yl)benzenediazonium
@<TRIPOS>ATOM
      1 C1         -2.1037    2.5491    2.1139 C.3       1 <0>        -0.1446
      2 C2         -0.9642    1.7331    1.5003 C.3       1 <0>        -0.0861
      3 C3         -0.0429    1.2560    2.5933 C.ar      1 <0>         0.2909
      4 C4          1.0248    2.0472    3.0116 C.ar      1 <0>        -0.3332
      5 C5          1.8561    1.5567    4.0356 C.ar      1 <0>         0.5122
      6 N1          1.5924    0.3657    4.5607 N.ar      1 <0>        -0.6245
      7 C6          0.5652   -0.3516    4.1305 C.ar      1 <0>         0.6287
      8 N2         -0.2407    0.0826    3.1720 N.ar      1 <0>        -0.5939
      9 N3          0.3228   -1.5875    4.7029 N.pl3     1 <0>        -0.8049
     10 N4          2.9297    2.3029    4.4880 N.pl3     1 <0>        -0.8323
     11 C7          1.2783    3.3715    2.3944 C.ar      1 <0>         0.0258
     12 C8          1.7103    3.4537    1.0701 C.ar      1 <0>         0.0065
     13 C9          1.9427    4.6852    0.4906 C.ar      1 <0>        -0.0841
     14 C10         1.7594    5.8443    1.2206 C.ar      1 <0>         0.0312
     15 C11         1.3319    5.7749    2.5498 C.ar      1 <0>        -0.0071
     16 C12         1.0912    4.5328    3.1365 C.ar      1 <0>        -0.0209
     17 N5          1.1516    6.9110    3.2659 N.1       1 <0>         0.1513
     18 N6          1.0141    7.7776    3.8120 N.1       1 <0>         0.3159
     19 Cl1         2.0609    7.3882    0.4863 Cl        1 <0>         0.0034
     20 H1         -1.6931    3.4207    2.6235 H         1 <0>         0.0478
     21 H2         -2.6477    1.9326    2.8296 H         1 <0>         0.0674
     22 H3         -2.7823    2.8753    1.3257 H         1 <0>         0.0729
     23 H4         -1.3764    0.8736    0.9717 H         1 <0>         0.1007
     24 H5         -0.4065    2.3564    0.8013 H         1 <0>         0.0814
     25 H6          0.9011   -1.9171    5.4084 H         1 <0>         0.4204
     26 H7         -0.4255   -2.1245    4.3986 H         1 <0>         0.4223
     27 H8          3.1146    3.1720    4.0989 H         1 <0>         0.4054
     28 H9          3.4974    1.9570    5.1943 H         1 <0>         0.4168
     29 H10         1.8598    2.5515    0.4955 H         1 <0>         0.1751
     30 H11         2.2733    4.7427   -0.5359 H         1 <0>         0.1835
     31 H12         0.7605    4.4729    4.1629 H         1 <0>         0.1718
@<TRIPOS>BOND
     1    1    2 1
     2    1   20 1
     3    1   21 1
     4    1   22 1
     5    2    3 1
     6    2   23 1
     7    2   24 1
     8    3    8 ar
     9    3    4 ar
    10    4    5 ar
    11    4   11 1
    12    5    6 ar
    13    5   10 1
    14    6    7 ar
    15    7    8 ar
    16    7    9 1
    17    9   25 1
    18    9   26 1
    19   10   27 1
    20   10   28 1
    21   11   16 ar
    22   11   12 ar
    23   12   13 ar
    24   12   29 1
    25   13   14 ar
    26   13   30 1
    27   14   15 ar
    28   14   19 1
    29   15   16 ar
    30   15   17 1
    31   16   31 1
    32   17   18 3
@<TRIPOS>MOLECULE
ZINC05386873
   32    33     0     0     0
SMALL
USER_CHARGES
2-chloro-5-(2,4-diamino-6-ethyl-pyrimidin-5-yl)benzenediazonium
@<TRIPOS>ATOM
      1 C1         -2.1037    2.5491    2.1139 C.3       1 <0>        -0.1514
      2 C2         -0.9642    1.7331    1.5003 C.3       1 <0>        -0.1000
      3 C3         -0.0429    1.2560    2.5933 C.ar      1 <0>         0.3030
      4 C4          1.0248    2.0472    3.0116 C.ar      1 <0>        -0.2840
      5 C5          1.8561    1.5567    4.0356 C.ar      1 <0>         0.4048
      6 N1          1.5924    0.3657    4.5607 N.ar      1 <0>        -0.5159
      7 C6          0.5652   -0.3516    4.1305 C.ar      1 <0>         0.5908
      8 N2          0.3228   -1.5875    4.7029 N.pl3     1 <0>        -0.7171
      9 N3          2.9297    2.3029    4.4880 N.pl3     1 <0>        -0.7652
     10 C7          1.2783    3.3715    2.3944 C.ar      1 <0>        -0.0378
     11 C8          1.7103    3.4537    1.0701 C.ar      1 <0>         0.0230
     12 C9          1.9427    4.6852    0.4906 C.ar      1 <0>        -0.0772
     13 C10         1.7594    5.8443    1.2206 C.ar      1 <0>         0.0538
     14 C11         1.3319    5.7749    2.5498 C.ar      1 <0>         0.0016
     15 C12         1.0912    4.5328    3.1365 C.ar      1 <0>        -0.0087
     16 N4          1.1516    6.9110    3.2659 N.1       1 <0>         0.1383
     17 N5          1.0141    7.7776    3.8120 N.1       1 <0>         0.3541
     18 Cl1         2.0609    7.3882    0.4863 Cl        1 <0>         0.0349
     19 H1         -1.6931    3.4207    2.6235 H         1 <0>         0.0557
     20 H2         -2.6477    1.9326    2.8296 H         1 <0>         0.0758
     21 H3         -2.7823    2.8753    1.3257 H         1 <0>         0.0948
     22 H4         -1.3764    0.8736    0.9717 H         1 <0>         0.1277
     23 H5         -0.4065    2.3564    0.8013 H         1 <0>         0.1054
     24 H6          0.9011   -1.9171    5.4084 H         1 <0>         0.4430
     25 H7         -0.4255   -2.1245    4.3986 H         1 <0>         0.4558
     26 H8          3.1146    3.1720    4.0989 H         1 <0>         0.4477
     27 H9          3.4974    1.9570    5.1943 H         1 <0>         0.4559
     28 H10         1.8598    2.5515    0.4955 H         1 <0>         0.1847
     29 H11         2.2733    4.7427   -0.5359 H         1 <0>         0.1964
     30 H12         0.7605    4.4729    4.1629 H         1 <0>         0.1801
     31 N6         -0.2987    0.0398    3.1501 N.ar      1 <0>        -0.4794
     32 H13         1.7736    1.2664    4.1658 H         1 <0>         0.4092
@<TRIPOS>BOND
     1    1    2 1
     2    1   19 1
     3    1   20 1
     4    1   21 1
     5    2    3 1
     6    2   22 1
     7    2   23 1
     8    3    4 ar
     9    3   31 ar
    10    4    5 ar
    11    4   10 1
    12    5    6 ar
    13    5    9 1
    14    6    7 ar
    15    6   32 1
    16    7    8 1
    17    7   31 ar
    18    8   24 1
    19    8   25 1
    20    9   26 1
    21    9   27 1
    22   10   15 ar
    23   10   11 ar
    24   11   12 ar
    25   11   28 1
    26   12   13 ar
    27   12   29 1
    28   13   14 ar
    29   13   18 1
    30   14   15 ar
    31   14   16 1
    32   15   30 1
    33   16   17 3
@<TRIPOS>MOLECULE
ZINC05386873
   32    33     0     0     0
SMALL
USER_CHARGES
2-chloro-5-(2,4-diamino-6-ethyl-pyrimidin-5-yl)benzenediazonium
@<TRIPOS>ATOM
      1 C1         -2.1037    2.5491    2.1139 C.3       1 <0>        -0.1563
      2 C2         -0.9642    1.7331    1.5003 C.3       1 <0>        -0.1207
      3 C3         -0.0429    1.2560    2.5933 C.ar      1 <0>         0.2864
      4 C4          1.0248    2.0472    3.0116 C.ar      1 <0>        -0.2349
      5 C5          1.8561    1.5567    4.0356 C.ar      1 <0>         0.5524
      6 N1          1.5924    0.3657    4.5607 N.ar      1 <0>        -0.5597
      7 C6          0.5652   -0.3516    4.1305 C.ar      1 <0>         0.6796
      8 N2          0.3228   -1.5875    4.7029 N.pl3     1 <0>        -0.7742
      9 N3          2.9297    2.3029    4.4880 N.pl3     1 <0>        -0.7763
     10 C7          1.2783    3.3715    2.3944 C.ar      1 <0>        -0.0292
     11 C8          1.7103    3.4537    1.0701 C.ar      1 <0>         0.0144
     12 C9          1.9427    4.6852    0.4906 C.ar      1 <0>        -0.0796
     13 C10         1.7594    5.8443    1.2206 C.ar      1 <0>         0.0487
     14 C11         1.3319    5.7749    2.5498 C.ar      1 <0>        -0.0001
     15 C12         1.0912    4.5328    3.1365 C.ar      1 <0>        -0.0091
     16 N4          1.1516    6.9110    3.2659 N.1       1 <0>         0.1399
     17 N5          1.0141    7.7776    3.8120 N.1       1 <0>         0.3482
     18 Cl1         2.0609    7.3882    0.4863 Cl        1 <0>         0.0291
     19 H1         -1.6931    3.4207    2.6235 H         1 <0>         0.0633
     20 H2         -2.6477    1.9326    2.8296 H         1 <0>         0.0714
     21 H3         -2.7823    2.8753    1.3257 H         1 <0>         0.0959
     22 H4         -1.3764    0.8736    0.9717 H         1 <0>         0.1190
     23 H5         -0.4065    2.3564    0.8013 H         1 <0>         0.1167
     24 H6          0.9011   -1.9171    5.4084 H         1 <0>         0.4490
     25 H7         -0.4255   -2.1245    4.3986 H         1 <0>         0.4362
     26 H8          3.1146    3.1720    4.0989 H         1 <0>         0.4249
     27 H9          3.4974    1.9570    5.1943 H         1 <0>         0.4372
     28 H10         1.8598    2.5515    0.4955 H         1 <0>         0.1805
     29 H11         2.2733    4.7427   -0.5359 H         1 <0>         0.1927
     30 H12         0.7605    4.4729    4.1629 H         1 <0>         0.1782
     31 N6         -0.2987    0.0398    3.1501 N.ar      1 <0>        -0.5908
     32 H13        -1.0783   -0.5009    2.8339 H         1 <0>         0.4672
@<TRIPOS>BOND
     1    1    2 1
     2    1   19 1
     3    1   20 1
     4    1   21 1
     5    2    3 1
     6    2   22 1
     7    2   23 1
     8    3    4 ar
     9    3   31 ar
    10    4    5 ar
    11    4   10 1
    12    5    6 ar
    13    5    9 1
    14    6    7 ar
    15    7    8 1
    16    7   31 ar
    17    8   24 1
    18    8   25 1
    19    9   26 1
    20    9   27 1
    21   10   15 ar
    22   10   11 ar
    23   11   12 ar
    24   11   28 1
    25   12   13 ar
    26   12   29 1
    27   13   14 ar
    28   13   18 1
    29   14   15 ar
    30   14   16 1
    31   15   30 1
    32   16   17 3
    33   31   32 1
@<TRIPOS>MOLECULE
ZINC03814891
   38    40     0     0     0
SMALL
USER_CHARGES

@<TRIPOS>ATOM
      1 C1         -0.0167    1.3781    0.0096 C.ar      1 <0>        -0.1190
      2 C2          1.1709    2.0855    0.0021 C.ar      1 <0>        -0.1178
      3 C3          2.3773    1.4107   -0.0130 C.ar      1 <0>        -0.1251
      4 C4          2.3960    0.0285   -0.0201 C.ar      1 <0>        -0.0902
      5 C5          1.2084   -0.6789   -0.0117 C.ar      1 <0>        -0.1159
      6 C6          0.0021   -0.0041    0.0020 C.ar      1 <0>        -0.1137
      7 C7          3.7112   -0.7071   -0.0376 C.3       1 <0>        -0.0768
      8 C8          4.1714   -0.9633    1.3989 C.3       1 <0>        -0.0829
      9 C9          5.4578   -1.7972    1.3869 C.3       1 <0>        -0.1164
     10 C10         5.7648   -2.2349    2.8183 C.3       1 <0>        -0.1011
     11 C11         5.7372   -1.0520    3.7479 C.ar      1 <0>         0.2383
     12 C12         5.1351    0.1367    3.4152 C.ar      1 <0>        -0.2186
     13 C13         5.1531    1.1804    4.3491 C.ar      1 <0>         0.5306
     14 N1          5.7518    0.9934    5.5194 N.ar      1 <0>        -0.5773
     15 C14         6.3255   -0.1666    5.8014 C.ar      1 <0>         0.6654
     16 N2          6.3204   -1.1692    4.9383 N.ar      1 <0>        -0.5759
     17 N3          6.9454   -0.3336    7.0275 N.pl3     1 <0>        -0.7931
     18 N4          4.5536    2.3941    4.0549 N.pl3     1 <0>        -0.7777
     19 C15         4.4643    0.3681    2.0896 C.3       1 <0>        -0.0727
     20 H1         -0.9591    1.9053    0.0259 H         1 <0>         0.1239
     21 H2          1.1563    3.1654    0.0076 H         1 <0>         0.1234
     22 H3          3.3051    1.9634   -0.0196 H         1 <0>         0.1198
     23 H4          1.2231   -1.7588   -0.0176 H         1 <0>         0.1223
     24 H5         -0.9258   -0.5567    0.0082 H         1 <0>         0.1244
     25 H6          3.5884   -1.6586   -0.5549 H         1 <0>         0.0842
     26 H7          4.4573   -0.1052   -0.5563 H         1 <0>         0.0798
     27 H8          3.3915   -1.4950    1.9441 H         1 <0>         0.0866
     28 H9          5.3189   -2.6758    0.7570 H         1 <0>         0.0984
     29 H10         6.2813   -1.1946    1.0036 H         1 <0>         0.0827
     30 H11         5.0203   -2.9633    3.1399 H         1 <0>         0.1195
     31 H12         6.7522   -2.6954    2.8504 H         1 <0>         0.1109
     32 H13         6.9561    0.3942    7.6686 H         1 <0>         0.4446
     33 H14         7.3691   -1.1784    7.2457 H         1 <0>         0.4300
     34 H15         4.1180    2.5249    3.1982 H         1 <0>         0.4316
     35 H16         4.5693    3.1132    4.7058 H         1 <0>         0.4283
     36 H17         5.1174    0.9671    1.4550 H         1 <0>         0.0970
     37 H18         3.5292    0.9053    2.2478 H         1 <0>         0.0926
     38 H19         6.7497   -2.0055    5.1776 H         1 <0>         0.4402
@<TRIPOS>BOND
     1    1    6 ar
     2    1    2 ar
     3    1   20 1
     4    2    3 ar
     5    2   21 1
     6    3    4 ar
     7    3   22 1
     8    4    5 ar
     9    4    7 1
    10    5    6 ar
    11    5   23 1
    12    6   24 1
    13    7    8 1
    14    7   25 1
    15    7   26 1
    16    8   19 1
    17    8    9 1
    18    8   27 1
    19    9   10 1
    20    9   28 1
    21    9   29 1
    22   10   11 1
    23   10   30 1
    24   10   31 1
    25   11   16 ar
    26   11   12 ar
    27   12   13 ar
    28   12   19 1
    29   13   14 ar
    30   13   18 1
    31   14   15 ar
    32   15   16 ar
    33   15   17 1
    34   16   38 1
    35   17   32 1
    36   17   33 1
    37   18   34 1
    38   18   35 1
    39   19   36 1
    40   19   37 1
@<TRIPOS>MOLECULE
ZINC05974593
   37    39     0     0     0
SMALL
USER_CHARGES
(6S)-6-benzyl-5,6,7,8-tetrahydroquinazoline-2,4-diamine
@<TRIPOS>ATOM
      1 C1          1.0012   -0.0571   -4.7472 C.ar      1 <0>        -0.1258
      2 C2         -0.0294   -0.7239   -4.1116 C.ar      1 <0>        -0.1173
      3 C3         -0.5998   -0.1886   -2.9718 C.ar      1 <0>        -0.1179
      4 C4         -0.1392    1.0132   -2.4674 C.ar      1 <0>        -0.0782
      5 C5          0.8879    1.6825   -3.1060 C.ar      1 <0>        -0.1197
      6 C6          1.4612    1.1451   -4.2433 C.ar      1 <0>        -0.1191
      7 C7         -0.7610    1.5967   -1.2249 C.3       1 <0>        -0.0773
      8 C8         -0.0127    1.0858    0.0080 C.3       1 <0>        -0.0792
      9 H1          0.0021   -0.0041    0.0020 H         1 <0>         0.0765
     10 C9         -0.7066    1.5848    1.2808 C.3       1 <0>        -0.1131
     11 C10        -0.0863    0.8726    2.4819 C.3       1 <0>        -0.0706
     12 C11         1.4138    0.9852    2.4437 C.ar      1 <0>         0.2472
     13 C12         2.1019    1.3199    1.3032 C.ar      1 <0>        -0.2984
     14 C13         3.4998    1.3863    1.3602 C.ar      1 <0>         0.4806
     15 N1          4.1151    1.1290    2.5083 N.ar      1 <0>        -0.6306
     16 C14         3.4157    0.8140    3.5881 C.ar      1 <0>         0.6026
     17 N2          2.0950    0.7428    3.5609 N.ar      1 <0>        -0.6111
     18 N3          4.0822    0.5536    4.7727 N.pl3     1 <0>        -0.8234
     19 N4          4.2320    1.7171    0.2317 N.pl3     1 <0>        -0.8348
     20 C15         1.4194    1.6190   -0.0028 C.3       1 <0>        -0.0491
     21 H2          1.4473   -0.4757   -5.6373 H         1 <0>         0.1198
     22 H3         -0.3888   -1.6632   -4.5052 H         1 <0>         0.1207
     23 H4         -1.4050   -0.7095   -2.4752 H         1 <0>         0.1208
     24 H5          1.2448    2.6237   -2.7145 H         1 <0>         0.1203
     25 H6          2.2667    1.6659   -4.7398 H         1 <0>         0.1206
     26 H7         -1.8068    1.2952   -1.1660 H         1 <0>         0.0765
     27 H8         -0.6979    2.6842   -1.2634 H         1 <0>         0.0747
     28 H9         -0.5628    2.6608    1.3786 H         1 <0>         0.0695
     29 H10        -1.7716    1.3578    1.2304 H         1 <0>         0.0767
     30 H11        -0.3692   -0.1799    2.4623 H         1 <0>         0.0893
     31 H12        -0.4585    1.3287    3.3992 H         1 <0>         0.0898
     32 H13         5.0504    0.6029    4.8054 H         1 <0>         0.4123
     33 H14         3.5812    0.3219    5.5703 H         1 <0>         0.4143
     34 H15         3.7768    1.9044   -0.6041 H         1 <0>         0.4116
     35 H16         5.1999    1.7615    0.2774 H         1 <0>         0.4062
     36 H17         1.9732    1.1479   -0.8149 H         1 <0>         0.0680
     37 H18         1.4011    2.6978   -0.1576 H         1 <0>         0.0677
@<TRIPOS>BOND
     1    1    6 ar
     2    1    2 ar
     3    1   21 1
     4    2    3 ar
     5    2   22 1
     6    3    4 ar
     7    3   23 1
     8    4    5 ar
     9    4    7 1
    10    5    6 ar
    11    5   24 1
    12    6   25 1
    13    7    8 1
    14    7   26 1
    15    7   27 1
    16    8    9 1
    17    8   20 1
    18    8   10 1
    19   10   11 1
    20   10   28 1
    21   10   29 1
    22   11   12 1
    23   11   30 1
    24   11   31 1
    25   12   17 ar
    26   12   13 ar
    27   13   14 ar
    28   13   20 1
    29   14   15 ar
    30   14   19 1
    31   15   16 ar
    32   16   17 ar
    33   16   18 1
    34   18   32 1
    35   18   33 1
    36   19   34 1
    37   19   35 1
    38   20   36 1
    39   20   37 1
@<TRIPOS>MOLECULE
ZINC05974593
   38    40     0     0     0
SMALL
USER_CHARGES
(6S)-6-benzyl-5,6,7,8-tetrahydroquinazoline-2,4-diamine
@<TRIPOS>ATOM
      1 C1          1.0012   -0.0571   -4.7472 C.ar      1 <0>        -0.1190
      2 C2         -0.0294   -0.7239   -4.1116 C.ar      1 <0>        -0.1138
      3 C3         -0.5998   -0.1886   -2.9718 C.ar      1 <0>        -0.1159
      4 C4         -0.1392    1.0132   -2.4674 C.ar      1 <0>        -0.0902
      5 C5          0.8879    1.6825   -3.1060 C.ar      1 <0>        -0.1249
      6 C6          1.4612    1.1451   -4.2433 C.ar      1 <0>        -0.1179
      7 C7         -0.7610    1.5967   -1.2249 C.3       1 <0>        -0.0766
      8 C8         -0.0127    1.0858    0.0080 C.3       1 <0>        -0.0828
      9 H1          0.0021   -0.0041    0.0020 H         1 <0>         0.0861
     10 C9         -0.7066    1.5848    1.2808 C.3       1 <0>        -0.1171
     11 C10        -0.0863    0.8726    2.4819 C.3       1 <0>        -0.1065
     12 C11         1.4138    0.9852    2.4437 C.ar      1 <0>         0.2357
     13 C12         2.1019    1.3199    1.3032 C.ar      1 <0>        -0.2164
     14 C13         3.4998    1.3863    1.3602 C.ar      1 <0>         0.5344
     15 N1          4.1151    1.1290    2.5083 N.ar      1 <0>        -0.5711
     16 C14         3.4157    0.8140    3.5881 C.ar      1 <0>         0.6715
     17 N2          4.0822    0.5536    4.7727 N.pl3     1 <0>        -0.7933
     18 N3          4.2320    1.7171    0.2317 N.pl3     1 <0>        -0.7755
     19 C15         1.4194    1.6190   -0.0028 C.3       1 <0>        -0.0713
     20 H2          1.4473   -0.4757   -5.6373 H         1 <0>         0.1239
     21 H3         -0.3888   -1.6632   -4.5052 H         1 <0>         0.1243
     22 H4         -1.4050   -0.7095   -2.4752 H         1 <0>         0.1222
     23 H5          1.2448    2.6237   -2.7145 H         1 <0>         0.1199
     24 H6          2.2667    1.6659   -4.7398 H         1 <0>         0.1235
     25 H7         -1.8068    1.2952   -1.1660 H         1 <0>         0.0840
     26 H8         -0.6979    2.6842   -1.2634 H         1 <0>         0.0798
     27 H9         -0.5628    2.6608    1.3786 H         1 <0>         0.0822
     28 H10        -1.7716    1.3578    1.2304 H         1 <0>         0.0970
     29 H11        -0.3692   -0.1799    2.4623 H         1 <0>         0.1185
     30 H12        -0.4585    1.3287    3.3992 H         1 <0>         0.1100
     31 H13         5.0504    0.6029    4.8054 H         1 <0>         0.4423
     32 H14         3.5812    0.3219    5.5703 H         1 <0>         0.4298
     33 H15         3.7768    1.9044   -0.6041 H         1 <0>         0.4322
     34 H16         5.1999    1.7615    0.2774 H         1 <0>         0.4287
     35 H17         1.9732    1.1479   -0.8149 H         1 <0>         0.0928
     36 H18         1.4011    2.6978   -0.1576 H         1 <0>         0.0969
     37 N4          2.0571    0.7244    3.6249 N.ar      1 <0>        -0.6012
     38 H19         1.5288    0.4869    4.4401 H         1 <0>         0.4579
@<TRIPOS>BOND
     1    1    6 ar
     2    1    2 ar
     3    1   20 1
     4    2    3 ar
     5    2   21 1
     6    3    4 ar
     7    3   22 1
     8    4    5 ar
     9    4    7 1
    10    5    6 ar
    11    5   23 1
    12    6   24 1
    13    7    8 1
    14    7   25 1
    15    7   26 1
    16    8    9 1
    17    8   19 1
    18    8   10 1
    19   10   11 1
    20   10   27 1
    21   10   28 1
    22   11   12 1
    23   11   29 1
    24   11   30 1
    25   12   13 ar
    26   12   37 ar
    27   13   14 ar
    28   13   19 1
    29   14   15 ar
    30   14   18 1
    31   15   16 ar
    32   16   17 1
    33   16   37 ar
    34   17   31 1
    35   17   32 1
    36   18   33 1
    37   18   34 1
    38   19   35 1
    39   19   36 1
    40   37   38 1
@<TRIPOS>MOLECULE
ZINC05974593
   38    40     0     0     0
SMALL
USER_CHARGES
(6S)-6-benzyl-5,6,7,8-tetrahydroquinazoline-2,4-diamine
@<TRIPOS>ATOM
      1 C1          1.0012   -0.0571   -4.7472 C.ar      1 <0>        -0.1187
      2 C2         -0.0294   -0.7239   -4.1116 C.ar      1 <0>        -0.1127
      3 C3         -0.5998   -0.1886   -2.9718 C.ar      1 <0>        -0.1148
      4 C4         -0.1392    1.0132   -2.4674 C.ar      1 <0>        -0.0916
      5 C5          0.8879    1.6825   -3.1060 C.ar      1 <0>        -0.1281
      6 C6          1.4612    1.1451   -4.2433 C.ar      1 <0>        -0.1185
      7 C7         -0.7610    1.5967   -1.2249 C.3       1 <0>        -0.0768
      8 C8         -0.0127    1.0858    0.0080 C.3       1 <0>        -0.0818
      9 H1          0.0021   -0.0041    0.0020 H         1 <0>         0.0898
     10 C9         -0.7066    1.5848    1.2808 C.3       1 <0>        -0.1245
     11 C10        -0.0863    0.8726    2.4819 C.3       1 <0>        -0.0900
     12 C11         1.4138    0.9852    2.4437 C.ar      1 <0>         0.2822
     13 C12         2.1019    1.3199    1.3032 C.ar      1 <0>        -0.2626
     14 C13         3.4998    1.3863    1.3602 C.ar      1 <0>         0.3548
     15 N1          4.1151    1.1290    2.5083 N.ar      1 <0>        -0.5291
     16 C14         3.4157    0.8140    3.5881 C.ar      1 <0>         0.5805
     17 N2          4.0822    0.5536    4.7727 N.pl3     1 <0>        -0.7428
     18 N3          4.2320    1.7171    0.2317 N.pl3     1 <0>        -0.7709
     19 C15         1.4194    1.6190   -0.0028 C.3       1 <0>        -0.0733
     20 H2          1.4473   -0.4757   -5.6373 H         1 <0>         0.1243
     21 H3         -0.3888   -1.6632   -4.5052 H         1 <0>         0.1251
     22 H4         -1.4050   -0.7095   -2.4752 H         1 <0>         0.1236
     23 H5          1.2448    2.6237   -2.7145 H         1 <0>         0.1199
     24 H6          2.2667    1.6659   -4.7398 H         1 <0>         0.1236
     25 H7         -1.8068    1.2952   -1.1660 H         1 <0>         0.0877
     26 H8         -0.6979    2.6842   -1.2634 H         1 <0>         0.0814
     27 H9         -0.5628    2.6608    1.3786 H         1 <0>         0.0822
     28 H10        -1.7716    1.3578    1.2304 H         1 <0>         0.1010
     29 H11        -0.3692   -0.1799    2.4623 H         1 <0>         0.1257
     30 H12        -0.4585    1.3287    3.3992 H         1 <0>         0.1227
     31 H13         5.0504    0.6029    4.8054 H         1 <0>         0.4357
     32 H14         3.5812    0.3219    5.5703 H         1 <0>         0.4483
     33 H15         3.7768    1.9044   -0.6041 H         1 <0>         0.4529
     34 H16         5.1999    1.7615    0.2774 H         1 <0>         0.4468
     35 H17         1.9732    1.1479   -0.8149 H         1 <0>         0.0988
     36 H18         1.4011    2.6978   -0.1576 H         1 <0>         0.1083
     37 N4          2.0571    0.7244    3.6249 N.ar      1 <0>        -0.4985
     38 H19         3.6453    1.3199    1.6464 H         1 <0>         0.4194
@<TRIPOS>BOND
     1    1    6 ar
     2    1    2 ar
     3    1   20 1
     4    2    3 ar
     5    2   21 1
     6    3    4 ar
     7    3   22 1
     8    4    5 ar
     9    4    7 1
    10    5    6 ar
    11    5   23 1
    12    6   24 1
    13    7    8 1
    14    7   25 1
    15    7   26 1
    16    8    9 1
    17    8   19 1
    18    8   10 1
    19   10   11 1
    20   10   27 1
    21   10   28 1
    22   11   12 1
    23   11   29 1
    24   11   30 1
    25   12   13 ar
    26   12   37 ar
    27   13   14 ar
    28   13   19 1
    29   14   15 ar
    30   14   18 1
    31   15   16 ar
    32   15   38 1
    33   16   17 1
    34   16   37 ar
    35   17   31 1
    36   17   32 1
    37   18   33 1
    38   18   34 1
    39   19   35 1
    40   19   36 1
@<TRIPOS>MOLECULE
ZINC00000640
   43    45     0     0     0
SMALL
USER_CHARGES
8-[(2,5-dimethoxyphenyl)methyl]-7-methyl-2,4,10-triazabicyclo[4.4.0]deca-2,4,6,8,10-pentaene-3,5-diamine
@<TRIPOS>ATOM
      1 C1          3.5065    8.2770   -0.3471 C.3       1 <0>        -0.1506
      2 C2          3.5106    7.2923   -1.4879 C.ar      1 <0>         0.0340
      3 C3          3.5305    5.9421   -1.2542 C.ar      1 <0>        -0.1724
      4 C4          3.5392    5.0549   -2.3234 C.ar      1 <0>         0.2009
      5 N1          3.5174    5.4726   -3.5696 N.ar      1 <0>        -0.4888
      6 C5          3.4976    6.7731   -3.8623 C.ar      1 <0>         0.4050
      7 C6          3.4936    7.7296   -2.8172 C.ar      1 <0>        -0.2731
      8 C7          3.4719    9.1049   -3.1575 C.ar      1 <0>         0.5206
      9 N2          3.4563    9.4333   -4.4415 N.ar      1 <0>        -0.6171
     10 C8          3.4607    8.5036   -5.3924 C.ar      1 <0>         0.6192
     11 N3          3.4806    7.2104   -5.1296 N.ar      1 <0>        -0.5903
     12 N4          3.4432    8.9092   -6.7132 N.pl3     1 <0>        -0.8137
     13 N5          3.4667   10.0751   -2.1796 N.pl3     1 <0>        -0.8468
     14 C9          3.5493    5.4207    0.1596 C.3       1 <0>        -0.0189
     15 C10         3.7139    3.9228    0.1405 C.ar      1 <0>        -0.0822
     16 C11         2.6074    3.1047    0.2626 C.ar      1 <0>        -0.1082
     17 C12         2.7589    1.7263    0.2455 C.ar      1 <0>         0.0958
     18 C13         4.0221    1.1690    0.1115 C.ar      1 <0>        -0.1673
     19 C14         5.1277    1.9869   -0.0164 C.ar      1 <0>        -0.1656
     20 C15         4.9761    3.3657    0.0008 C.ar      1 <0>         0.0984
     21 O1          6.0652    4.1710   -0.1199 O.3       1 <0>        -0.3104
     22 C16         7.3342    3.5292   -0.2604 C.3       1 <0>         0.0264
     23 O2          1.6698    0.9210    0.3657 O.3       1 <0>        -0.3164
     24 C17         1.8996   -0.4891    0.3399 C.3       1 <0>         0.0270
     25 H1          4.5237    8.6214   -0.1608 H         1 <0>         0.0854
     26 H2          2.8761    9.1282   -0.6042 H         1 <0>         0.0984
     27 H3          3.1167    7.7937    0.5487 H         1 <0>         0.0825
     28 H4          3.5599    3.9935   -2.1253 H         1 <0>         0.1602
     29 H5          3.4458    8.2486   -7.4235 H         1 <0>         0.4176
     30 H6          3.4285    9.8546   -6.9301 H         1 <0>         0.4150
     31 H7          4.0336    9.9793   -1.3984 H         1 <0>         0.4180
     32 H8          2.8962   10.8541   -2.2722 H         1 <0>         0.4095
     33 H9          2.6122    5.6769    0.6538 H         1 <0>         0.0894
     34 H10         4.3809    5.8707    0.7018 H         1 <0>         0.0937
     35 H11         1.6244    3.5386    0.3718 H         1 <0>         0.1400
     36 H12         4.1407    0.0956    0.1029 H         1 <0>         0.1317
     37 H13         6.1107    1.5530   -0.1252 H         1 <0>         0.1325
     38 H14         7.3295    2.9068   -1.1552 H         1 <0>         0.0552
     39 H15         8.1156    4.2842   -0.3470 H         1 <0>         0.0995
     40 H16         7.5254    2.9070    0.6139 H         1 <0>         0.0549
     41 H17         0.9500   -1.0140    0.4447 H         1 <0>         0.1009
     42 H18         2.3642   -0.7643   -0.6070 H         1 <0>         0.0555
     43 H19         2.5598   -0.7648    1.1622 H         1 <0>         0.0547
@<TRIPOS>BOND
     1    1    2 1
     2    1   25 1
     3    1   26 1
     4    1   27 1
     5    2    7 ar
     6    2    3 ar
     7    3    4 ar
     8    3   14 1
     9    4    5 ar
    10    4   28 1
    11    5    6 ar
    12    6   11 ar
    13    6    7 ar
    14    7    8 ar
    15    8    9 ar
    16    8   13 1
    17    9   10 ar
    18   10   11 ar
    19   10   12 1
    20   12   29 1
    21   12   30 1
    22   13   31 1
    23   13   32 1
    24   14   15 1
    25   14   33 1
    26   14   34 1
    27   15   20 ar
    28   15   16 ar
    29   16   17 ar
    30   16   35 1
    31   17   18 ar
    32   17   23 1
    33   18   19 ar
    34   18   36 1
    35   19   20 ar
    36   19   37 1
    37   20   21 1
    38   21   22 1
    39   22   38 1
    40   22   39 1
    41   22   40 1
    42   23   24 1
    43   24   41 1
    44   24   42 1
    45   24   43 1
@<TRIPOS>MOLECULE
ZINC00000640
   44    46     0     0     0
SMALL
USER_CHARGES
6-[(2,5-dimethoxyphenyl)methyl]-5-methyl-pyrido[3,2-e]pyrimidine-2,4-diamine
@<TRIPOS>ATOM
      1 C1          3.5026    8.2770   -0.3471 C.3       1 <0>        -0.1623
      2 C2          3.5068    7.2922   -1.4879 C.ar      1 <0>         0.0415
      3 C3          3.5339    5.9421   -1.2542 C.ar      1 <0>        -0.1364
      4 C4          3.5435    5.0550   -2.3234 C.ar      1 <0>         0.2418
      5 N1          3.5212    5.4727   -3.5696 N.ar      1 <0>        -0.4732
      6 C5          3.4882    6.7729   -3.8622 C.ar      1 <0>         0.3969
      7 C6          3.4834    7.7294   -2.8171 C.ar      1 <0>        -0.2387
      8 C7          3.4615    9.1047   -3.1576 C.ar      1 <0>         0.5725
      9 N2          3.4329    9.4328   -4.4414 N.ar      1 <0>        -0.5726
     10 C8          3.4322    8.5030   -5.3922 C.ar      1 <0>         0.6045
     11 N3          3.4026    8.9083   -6.7128 N.pl3     1 <0>        -0.7947
     12 N4          3.4624   10.0751   -2.1798 N.pl3     1 <0>        -0.8206
     13 C9          3.5533    5.4208    0.1596 C.3       1 <0>        -0.0266
     14 C10         3.7195    3.9230    0.1404 C.ar      1 <0>        -0.1017
     15 C11         2.6139    3.1038    0.2626 C.ar      1 <0>        -0.1085
     16 C12         2.7669    1.7255    0.2455 C.ar      1 <0>         0.1008
     17 C13         4.0306    1.1696    0.1114 C.ar      1 <0>        -0.1595
     18 C14         5.1354    1.9886   -0.0165 C.ar      1 <0>        -0.1615
     19 C15         4.9823    3.3673    0.0007 C.ar      1 <0>         0.0962
     20 O1          6.0706    4.1737   -0.1201 O.3       1 <0>        -0.3165
     21 C16         7.3402    3.5333   -0.2606 C.3       1 <0>         0.0247
     22 O2          1.6786    0.9191    0.3657 O.3       1 <0>        -0.3147
     23 C17         1.9099   -0.4908    0.3399 C.3       1 <0>         0.0249
     24 H1          4.5190    8.6255   -0.1643 H         1 <0>         0.1026
     25 H2          2.8678    9.1256   -0.6021 H         1 <0>         0.0980
     26 H3          3.1178    7.7921    0.5500 H         1 <0>         0.1045
     27 H4          3.5700    3.9937   -2.1254 H         1 <0>         0.1833
     28 H5          3.4016    8.2476   -7.4231 H         1 <0>         0.4471
     29 H6          3.3829    9.8536   -6.9297 H         1 <0>         0.4240
     30 H7          4.0364    9.9808   -1.4036 H         1 <0>         0.4469
     31 H8          2.8892   10.8526   -2.2675 H         1 <0>         0.4310
     32 H9          2.6160    5.6760    0.6538 H         1 <0>         0.1032
     33 H10         4.3845    5.8716    0.7017 H         1 <0>         0.1063
     34 H11         1.6305    3.5366    0.3719 H         1 <0>         0.1418
     35 H12         4.1504    0.0963    0.1028 H         1 <0>         0.1363
     36 H13         6.1188    1.5558   -0.1254 H         1 <0>         0.1363
     37 H14         7.3361    2.9109   -1.1555 H         1 <0>         0.0572
     38 H15         8.1208    4.2891   -0.3473 H         1 <0>         0.1016
     39 H16         7.5321    2.9113    0.6136 H         1 <0>         0.0593
     40 H17         0.9609   -1.0167    0.4447 H         1 <0>         0.1049
     41 H18         2.3748   -0.7655   -0.6070 H         1 <0>         0.0575
     42 H19         2.5705   -0.7658    1.1622 H         1 <0>         0.0577
     43 N5          3.4593    7.1626   -5.1838 N.ar      1 <0>        -0.4652
     44 H20         3.4117   10.3956   -4.7111 H         1 <0>         0.4493
@<TRIPOS>BOND
     1    1    2 1
     2    1   24 1
     3    1   25 1
     4    1   26 1
     5    2    7 ar
     6    2    3 ar
     7    3   13 1
     8    3    4 ar
     9    4   27 1
    10    4    5 ar
    11    5    6 ar
    12    6    7 ar
    13    6   43 ar
    14    7    8 ar
    15    8   12 1
    16    8    9 ar
    17    9   10 ar
    18    9   44 1
    19   10   11 1
    20   10   43 ar
    21   11   28 1
    22   11   29 1
    23   12   30 1
    24   12   31 1
    25   13   14 1
    26   13   32 1
    27   13   33 1
    28   14   19 ar
    29   14   15 ar
    30   15   16 ar
    31   15   34 1
    32   16   17 ar
    33   16   22 1
    34   17   18 ar
    35   17   35 1
    36   18   19 ar
    37   18   36 1
    38   19   20 1
    39   20   21 1
    40   21   37 1
    41   21   38 1
    42   21   39 1
    43   22   23 1
    44   23   40 1
    45   23   41 1
    46   23   42 1
@<TRIPOS>MOLECULE
ZINC00000640
   44    46     0     0     0
SMALL
USER_CHARGES
8-[(2,5-dimethoxyphenyl)methyl]-7-methyl-2,4,10-triazabicyclo[4.4.0]deca-2,4,6,8,10-pentaene-3,5-diamine
@<TRIPOS>ATOM
      1 C1          3.5065    8.2770   -0.3471 C.3       1 <0>        -0.1639
      2 C2          3.5106    7.2923   -1.4879 C.ar      1 <0>         0.0541
      3 C3          3.5305    5.9421   -1.2542 C.ar      1 <0>        -0.1302
      4 C4          3.5392    5.0549   -2.3234 C.ar      1 <0>         0.2243
      5 N1          3.5174    5.4726   -3.5696 N.ar      1 <0>        -0.4980
      6 C5          3.4976    6.7731   -3.8623 C.ar      1 <0>         0.3907
      7 C6          3.4936    7.7296   -2.8172 C.ar      1 <0>        -0.2267
      8 C7          3.4719    9.1049   -3.1575 C.ar      1 <0>         0.5800
      9 N2          3.4563    9.4333   -4.4415 N.ar      1 <0>        -0.5730
     10 C8          3.4607    8.5036   -5.3924 C.ar      1 <0>         0.6920
     11 N3          3.4432    8.9092   -6.7132 N.pl3     1 <0>        -0.7812
     12 N4          3.4667   10.0751   -2.1796 N.pl3     1 <0>        -0.8037
     13 C9          3.5493    5.4207    0.1596 C.3       1 <0>        -0.0285
     14 C10         3.7139    3.9228    0.1405 C.ar      1 <0>        -0.1017
     15 C11         2.6074    3.1047    0.2626 C.ar      1 <0>        -0.1086
     16 C12         2.7589    1.7263    0.2455 C.ar      1 <0>         0.1007
     17 C13         4.0221    1.1690    0.1115 C.ar      1 <0>        -0.1597
     18 C14         5.1277    1.9869   -0.0164 C.ar      1 <0>        -0.1619
     19 C15         4.9761    3.3657    0.0008 C.ar      1 <0>         0.0960
     20 O1          6.0652    4.1710   -0.1199 O.3       1 <0>        -0.3162
     21 C16         7.3342    3.5292   -0.2604 C.3       1 <0>         0.0247
     22 O2          1.6698    0.9210    0.3657 O.3       1 <0>        -0.3147
     23 C17         1.8996   -0.4891    0.3399 C.3       1 <0>         0.0249
     24 H1          4.5237    8.6214   -0.1608 H         1 <0>         0.1055
     25 H2          2.8761    9.1282   -0.6042 H         1 <0>         0.1044
     26 H3          3.1167    7.7937    0.5487 H         1 <0>         0.1039
     27 H4          3.5599    3.9935   -2.1253 H         1 <0>         0.1849
     28 H5          3.4458    8.2486   -7.4235 H         1 <0>         0.4324
     29 H6          3.4285    9.8546   -6.9301 H         1 <0>         0.4450
     30 H7          4.0336    9.9793   -1.3984 H         1 <0>         0.4363
     31 H8          2.8962   10.8541   -2.2722 H         1 <0>         0.4301
     32 H9          2.6122    5.6769    0.6538 H         1 <0>         0.1050
     33 H10         4.3809    5.8707    0.7018 H         1 <0>         0.1083
     34 H11         1.6244    3.5386    0.3718 H         1 <0>         0.1421
     35 H12         4.1407    0.0956    0.1029 H         1 <0>         0.1364
     36 H13         6.1107    1.5530   -0.1252 H         1 <0>         0.1362
     37 H14         7.3295    2.9068   -1.1552 H         1 <0>         0.0562
     38 H15         8.1156    4.2842   -0.3470 H         1 <0>         0.1022
     39 H16         7.5254    2.9070    0.6139 H         1 <0>         0.0598
     40 H17         0.9500   -1.0140    0.4447 H         1 <0>         0.1052
     41 H18         2.3642   -0.7643   -0.6070 H         1 <0>         0.0570
     42 H19         2.5598   -0.7648    1.1622 H         1 <0>         0.0581
     43 N5          3.4808    7.1631   -5.1841 N.ar      1 <0>        -0.5882
     44 H20         3.4825    6.5360   -5.9630 H         1 <0>         0.4597
@<TRIPOS>BOND
     1    1    2 1
     2    1   24 1
     3    1   25 1
     4    1   26 1
     5    2    7 ar
     6    2    3 ar
     7    3    4 ar
     8    3   13 1
     9    4    5 ar
    10    4   27 1
    11    5    6 ar
    12    6    7 ar
    13    6   43 ar
    14    7    8 ar
    15    8    9 ar
    16    8   12 1
    17    9   10 ar
    18   10   11 1
    19   10   43 ar
    20   11   28 1
    21   11   29 1
    22   12   30 1
    23   12   31 1
    24   13   14 1
    25   13   32 1
    26   13   33 1
    27   14   19 ar
    28   14   15 ar
    29   15   16 ar
    30   15   34 1
    31   16   17 ar
    32   16   22 1
    33   17   18 ar
    34   17   35 1
    35   18   19 ar
    36   18   36 1
    37   19   20 1
    38   20   21 1
    39   21   37 1
    40   21   38 1
    41   21   39 1
    42   22   23 1
    43   23   40 1
    44   23   41 1
    45   23   42 1
    46   43   44 1
