@<TRIPOS>MOLECULE
ZINC02049556
   55    58     0     0     0
SMALL
USER_CHARGES

@<TRIPOS>ATOM
      1 C1         -1.2752    0.6640   -0.7144 C.3       1 <0>        -0.1527
      2 C2         -1.0795   -0.8515   -0.7913 C.3       1 <0>         0.0637
      3 O1         -0.1465   -1.1593   -1.8290 O.3       1 <0>        -0.3507
      4 C3          0.1394   -2.4642   -2.0295 C.2       1 <0>         0.5329
      5 O2         -0.3910   -3.3168   -1.3399 O.2       1 <0>        -0.5111
      6 C4          1.0481   -2.8379   -3.0330 C.2       1 <0>        -0.2972
      7 C5          1.4666   -4.1332   -3.1558 C.2       1 <0>         0.2597
      8 N1          2.3254   -4.4776   -4.1069 N.2       1 <0>        -0.5241
      9 C6          2.8373   -3.6530   -4.9856 C.2       1 <0>         0.3960
     10 N2          2.5497   -2.3086   -5.0392 N.am      1 <0>        -0.5785
     11 C7          3.1358   -1.5633   -5.9851 C.2       1 <0>         0.5567
     12 O3          2.9122   -0.3699   -6.0710 O.2       1 <0>        -0.4667
     13 C8          4.0574   -2.2296   -6.9157 C.2       1 <0>        -0.2704
     14 C9          4.7695   -1.7071   -7.9476 C.2       1 <0>         0.1236
     15 C10         5.5225   -2.5938   -8.8431 C.ar      1 <0>        -0.1726
     16 C11         5.1920   -3.9522   -8.9282 C.ar      1 <0>        -0.0438
     17 C12         5.9012   -4.7790   -9.7699 C.ar      1 <0>        -0.1596
     18 C13         6.9436   -4.2679  -10.5346 C.ar      1 <0>         0.1811
     19 C14         7.2763   -2.9205  -10.4538 C.ar      1 <0>        -0.2243
     20 C15         6.5702   -2.0833   -9.6198 C.ar      1 <0>        -0.0239
     21 O4          7.6397   -5.0878  -11.3631 O.3       1 <0>        -0.2695
     22 C16         8.6984   -4.4981  -12.1204 C.3       1 <0>        -0.0124
     23 C17         9.3517   -5.5526  -12.9760 C.2       1 <0>         0.5009
     24 O5          8.9482   -6.7025  -12.9407 O.co2     1 <0>        -0.6683
     25 O6         10.2839   -5.2558  -13.7037 O.co2     1 <0>        -0.6833
     26 S1          3.9882   -3.9123   -6.3214 S.3       1 <0>         0.1398
     27 C18         1.5867   -1.8205   -4.0123 C.3       1 <0>         0.2449
     28 H1          2.0805   -1.0342   -3.4413 H         1 <0>         0.0990
     29 C19         0.4144   -1.2000   -4.7277 C.ar      1 <0>        -0.0939
     30 C20        -0.1914   -1.8717   -5.7731 C.ar      1 <0>        -0.0899
     31 C21        -1.2666   -1.3031   -6.4296 C.ar      1 <0>        -0.1102
     32 C22        -1.7366   -0.0614   -6.0403 C.ar      1 <0>        -0.0264
     33 C23        -1.1298    0.6103   -4.9940 C.ar      1 <0>        -0.1112
     34 C24        -0.0583    0.0382   -4.3346 C.ar      1 <0>        -0.0588
     35 Cl1        -3.0866    0.6536   -6.8647 Cl        1 <0>        -0.0705
     36 C25         0.9486   -5.1792   -2.2026 C.3       1 <0>        -0.1140
     37 H2         -0.3203    1.1431   -0.4983 H         1 <0>         0.0657
     38 H3         -1.6578    1.0297   -1.6673 H         1 <0>         0.0662
     39 H4         -1.9869    0.8987    0.0771 H         1 <0>         0.0779
     40 H5         -0.6969   -1.2173    0.1616 H         1 <0>         0.0658
     41 H6         -2.0344   -1.3307   -1.0074 H         1 <0>         0.0656
     42 H7          4.7818   -0.6394   -8.1093 H         1 <0>         0.1609
     43 H8          4.3826   -4.3504   -8.3343 H         1 <0>         0.1332
     44 H9          5.6474   -5.8266   -9.8361 H         1 <0>         0.1425
     45 H10         8.0876   -2.5289  -11.0496 H         1 <0>         0.1395
     46 H11         6.8266   -1.0359   -9.5612 H         1 <0>         0.1341
     47 H12         8.2946   -3.7116  -12.7580 H         1 <0>         0.0653
     48 H13         9.4371   -4.0720  -11.4415 H         1 <0>         0.0654
     49 H14         0.1757   -2.8408   -6.0771 H         1 <0>         0.1186
     50 H15        -1.7396   -1.8278   -7.2465 H         1 <0>         0.1340
     51 H16        -1.4960    1.5798   -4.6899 H         1 <0>         0.1350
     52 H17         0.4124    0.5604   -3.5147 H         1 <0>         0.1366
     53 H18        -0.0158   -5.5458   -2.5544 H         1 <0>         0.0939
     54 H19         1.6557   -6.0072   -2.1525 H         1 <0>         0.0771
     55 H20         0.8311   -4.7412   -1.2114 H         1 <0>         0.1084
@<TRIPOS>BOND
     1    1    2 1
     2    1   37 1
     3    1   38 1
     4    1   39 1
     5    2    3 1
     6    2   40 1
     7    2   41 1
     8    3    4 1
     9    4    5 2
    10    4    6 1
    11    6   27 1
    12    6    7 2
    13    7    8 1
    14    7   36 1
    15    8    9 2
    16    9   26 1
    17    9   10 1
    18   10   11 am
    19   10   27 1
    20   11   12 2
    21   11   13 1
    22   13   14 2
    23   13   26 1
    24   14   15 1
    25   14   42 1
    26   15   20 ar
    27   15   16 ar
    28   16   17 ar
    29   16   43 1
    30   17   18 ar
    31   17   44 1
    32   18   19 ar
    33   18   21 1
    34   19   20 ar
    35   19   45 1
    36   20   46 1
    37   21   22 1
    38   22   23 1
    39   22   47 1
    40   22   48 1
    41   23   24 2
    42   23   25 1
    43   27   28 1
    44   27   29 1
    45   29   34 ar
    46   29   30 ar
    47   30   31 ar
    48   30   49 1
    49   31   32 ar
    50   31   50 1
    51   32   33 ar
    52   32   35 1
    53   33   34 ar
    54   33   51 1
    55   34   52 1
    56   36   53 1
    57   36   54 1
    58   36   55 1
@<TRIPOS>MOLECULE
ZINC02049558
   55    58     0     0     0
SMALL
USER_CHARGES

@<TRIPOS>ATOM
      1 C1         -2.0149    0.9879   -1.4799 C.3       1 <0>        -0.1524
      2 C2         -1.9554   -0.5367   -1.5926 C.3       1 <0>         0.0629
      3 O1         -0.9246   -0.9066   -2.5106 O.3       1 <0>        -0.3477
      4 C3         -0.7396   -2.2274   -2.7252 C.2       1 <0>         0.5316
      5 O2         -1.4365   -3.0420   -2.1469 O.2       1 <0>        -0.5117
      6 C4          0.2565   -2.6614   -3.6153 C.2       1 <0>        -0.2983
      7 C5          0.5593   -3.9885   -3.7388 C.2       1 <0>         0.2601
      8 N1          1.5019   -4.3898   -4.5822 N.2       1 <0>        -0.5251
      9 C6          2.2066   -3.5956   -5.3481 C.2       1 <0>         0.3913
     10 N2          2.0615   -2.2278   -5.3797 N.am      1 <0>        -0.5782
     11 C7          2.8409   -1.5179   -6.2058 C.2       1 <0>         0.5575
     12 O3          2.7486   -0.3058   -6.2676 O.2       1 <0>        -0.4672
     13 C8          3.8110   -2.2463   -7.0349 C.2       1 <0>        -0.2729
     14 C9          4.7045   -1.7683   -7.9394 C.2       1 <0>         0.1228
     15 C10         5.4137   -2.6945   -8.8305 C.ar      1 <0>        -0.1721
     16 C11         5.0373   -4.0424   -8.8871 C.ar      1 <0>        -0.0373
     17 C12         5.7056   -4.9063   -9.7249 C.ar      1 <0>        -0.1599
     18 C13         6.7523   -4.4432  -10.5140 C.ar      1 <0>         0.1834
     19 C14         7.1305   -3.1064  -10.4615 C.ar      1 <0>        -0.2247
     20 C15         6.4656   -2.2323   -9.6317 C.ar      1 <0>        -0.0216
     21 O4          7.4079   -5.2996  -11.3385 O.3       1 <0>        -0.2687
     22 C16         8.4736   -4.7583  -12.1216 C.3       1 <0>        -0.0129
     23 C17         9.0784   -5.8482  -12.9686 C.2       1 <0>         0.5009
     24 O5          8.6377   -6.9833  -12.9073 O.co2     1 <0>        -0.6682
     25 O6         10.0084   -5.5948  -13.7152 O.co2     1 <0>        -0.6830
     26 S1          3.4977   -3.9305   -6.5300 S.3       1 <0>         0.1392
     27 C18         1.0200   -1.6751   -4.4687 C.3       1 <0>         0.2446
     28 H1          0.2983   -1.1259   -5.0734 H         1 <0>         0.0970
     29 C19         1.6917   -0.6886   -3.5485 C.ar      1 <0>        -0.0909
     30 C20         2.8741   -1.0271   -2.9172 C.ar      1 <0>        -0.0900
     31 C21         3.4906   -0.1228   -2.0732 C.ar      1 <0>        -0.1113
     32 C22         2.9242    1.1213   -1.8601 C.ar      1 <0>        -0.0262
     33 C23         1.7409    1.4595   -2.4922 C.ar      1 <0>        -0.1116
     34 C24         1.1282    0.5565   -3.3404 C.ar      1 <0>        -0.0511
     35 Cl1         3.6977    2.2575   -0.7996 Cl        1 <0>        -0.0721
     36 C25        -0.1832   -5.0045   -2.9097 C.3       1 <0>        -0.1162
     37 H2         -1.0566    1.3634   -1.1207 H         1 <0>         0.0664
     38 H3         -2.2292    1.4166   -2.4589 H         1 <0>         0.0654
     39 H4         -2.8011    1.2701   -0.7797 H         1 <0>         0.0773
     40 H5         -1.7411   -0.9654   -0.6136 H         1 <0>         0.0651
     41 H6         -2.9136   -0.9122   -1.9517 H         1 <0>         0.0656
     42 H7          4.8932   -0.7068   -8.0029 H         1 <0>         0.1612
     43 H8          4.2245   -4.4033   -8.2743 H         1 <0>         0.1294
     44 H9          5.4164   -5.9459   -9.7691 H         1 <0>         0.1434
     45 H10         7.9449   -2.7522  -11.0762 H         1 <0>         0.1403
     46 H11         6.7573   -1.1931   -9.5950 H         1 <0>         0.1352
     47 H12         8.0862   -3.9696  -12.7667 H         1 <0>         0.0657
     48 H13         9.2364   -4.3457  -11.4614 H         1 <0>         0.0658
     49 H14         3.3160   -1.9985   -3.0834 H         1 <0>         0.1177
     50 H15         4.4141   -0.3875   -1.5798 H         1 <0>         0.1329
     51 H16         1.2981    2.4304   -2.3260 H         1 <0>         0.1340
     52 H17         0.2070    0.8221   -3.8376 H         1 <0>         0.1339
     53 H18        -1.1103   -5.2774   -3.4139 H         1 <0>         0.0940
     54 H19         0.4362   -5.8924   -2.7827 H         1 <0>         0.0767
     55 H20        -0.4126   -4.5788   -1.9329 H         1 <0>         0.1100
@<TRIPOS>BOND
     1    1    2 1
     2    1   37 1
     3    1   38 1
     4    1   39 1
     5    2    3 1
     6    2   40 1
     7    2   41 1
     8    3    4 1
     9    4    5 2
    10    4    6 1
    11    6   27 1
    12    6    7 2
    13    7    8 1
    14    7   36 1
    15    8    9 2
    16    9   26 1
    17    9   10 1
    18   10   11 am
    19   10   27 1
    20   11   12 2
    21   11   13 1
    22   13   14 2
    23   13   26 1
    24   14   15 1
    25   14   42 1
    26   15   20 ar
    27   15   16 ar
    28   16   17 ar
    29   16   43 1
    30   17   18 ar
    31   17   44 1
    32   18   19 ar
    33   18   21 1
    34   19   20 ar
    35   19   45 1
    36   20   46 1
    37   21   22 1
    38   22   23 1
    39   22   47 1
    40   22   48 1
    41   23   24 2
    42   23   25 1
    43   27   28 1
    44   27   29 1
    45   29   34 ar
    46   29   30 ar
    47   30   31 ar
    48   30   49 1
    49   31   32 ar
    50   31   50 1
    51   32   33 ar
    52   32   35 1
    53   33   34 ar
    54   33   51 1
    55   34   52 1
    56   36   53 1
    57   36   54 1
    58   36   55 1
@<TRIPOS>MOLECULE
ZINC02049560
   59    62     0     0     0
SMALL
USER_CHARGES
2-[4-[[4-ethoxycarbonyl-3-methyl-5-(4-methylsulfanylphenyl)-7-oxo-9-thia-2,6-diazabicyclo[4.3.0]nona-1,3-dien-8-ylidene]methyl]phenoxy]acetic acid
@<TRIPOS>ATOM
      1 C1          0.1272   -5.7197   -4.1856 C.3       1 <0>        -0.1528
      2 C2          0.3089   -5.0508   -5.5496 C.3       1 <0>         0.0633
      3 O1          1.3645   -4.0906   -5.4724 O.3       1 <0>        -0.3485
      4 C3          1.6547   -3.4063   -6.6003 C.2       1 <0>         0.5316
      5 O2          1.0265   -3.6210   -7.6216 O.2       1 <0>        -0.5135
      6 C4          2.6808   -2.4473   -6.5954 C.2       1 <0>        -0.2949
      7 C5          2.9894   -1.7438   -7.7251 C.2       1 <0>         0.2560
      8 N1          3.9605   -0.8395   -7.7123 N.2       1 <0>        -0.5239
      9 C6          4.6890   -0.5403   -6.6664 C.2       1 <0>         0.3884
     10 N2          4.5424   -1.1291   -5.4316 N.am      1 <0>        -0.5775
     11 C7          5.3469   -0.7393   -4.4343 C.2       1 <0>         0.5572
     12 O3          5.2539   -1.2315   -3.3249 O.2       1 <0>        -0.4659
     13 C8          6.3449    0.3008   -4.7195 C.2       1 <0>        -0.2681
     14 C9          7.2659    0.8629   -3.8945 C.2       1 <0>         0.1174
     15 C10         8.2812    1.7726   -4.4393 C.ar      1 <0>        -0.1680
     16 C11         8.4220    1.9199   -5.8250 C.ar      1 <0>        -0.0303
     17 C12         9.3716    2.7791   -6.3301 C.ar      1 <0>        -0.2171
     18 C13        10.1982    3.4903   -5.4679 C.ar      1 <0>         0.1830
     19 C14        10.0667    3.3437   -4.0917 C.ar      1 <0>        -0.1638
     20 C15         9.1165    2.4920   -3.5753 C.ar      1 <0>        -0.0276
     21 O4         11.1371    4.3316   -5.9716 O.3       1 <0>        -0.2751
     22 C16        11.2188    4.4353   -7.3945 C.3       1 <0>         0.0115
     23 C17        12.3089    5.4074   -7.7656 C.2       1 <0>         0.4690
     24 O5         12.9501    5.9552   -6.9003 O.co2     1 <0>        -0.6121
     25 S1          6.0186    0.6256   -6.4451 S.3       1 <0>         0.1358
     26 C18         3.4739   -2.1636   -5.3406 C.3       1 <0>         0.2452
     27 H1          3.9370   -3.0964   -5.0186 H         1 <0>         0.0968
     28 C19         2.5061   -1.7371   -4.2671 C.ar      1 <0>        -0.1001
     29 C20         2.0357   -2.6638   -3.3545 C.ar      1 <0>        -0.0481
     30 C21         1.1485   -2.2768   -2.3698 C.ar      1 <0>        -0.1005
     31 C22         0.7286   -0.9540   -2.2961 C.ar      1 <0>        -0.0750
     32 C23         1.1992   -0.0267   -3.2180 C.ar      1 <0>        -0.1332
     33 C24         2.0907   -0.4198   -4.1965 C.ar      1 <0>        -0.0821
     34 S2         -0.4034   -0.4555   -1.0413 S.3       1 <0>        -0.1213
     35 C25        -0.6450    1.3162   -1.3469 C.3       1 <0>        -0.1433
     36 C26         2.2215   -1.9974   -8.9967 C.3       1 <0>        -0.1003
     37 H2          1.0528   -6.2195   -3.8999 H         1 <0>         0.0655
     38 H3         -0.1227   -4.9642   -3.4408 H         1 <0>         0.0668
     39 H4         -0.6780   -6.4521   -4.2445 H         1 <0>         0.0773
     40 H5         -0.6167   -4.5510   -5.8353 H         1 <0>         0.0649
     41 H6          0.5587   -5.8063   -6.2944 H         1 <0>         0.0652
     42 H7          7.2514    0.6405   -2.8378 H         1 <0>         0.1622
     43 H8          7.7836    1.3642   -6.4958 H         1 <0>         0.1242
     44 H9          9.4778    2.8971   -7.3984 H         1 <0>         0.1422
     45 H10        10.7111    3.8992   -3.4264 H         1 <0>         0.1428
     46 H11         9.0155    2.3786   -2.5060 H         1 <0>         0.1399
     47 H12        11.4452    3.4567   -7.8177 H         1 <0>         0.0732
     48 H13        10.2663    4.7899   -7.7883 H         1 <0>         0.0733
     49 H14         2.3625   -3.6916   -3.4124 H         1 <0>         0.1333
     50 H15         0.7811   -3.0011   -1.6580 H         1 <0>         0.1288
     51 H16         0.8716    1.0011   -3.1665 H         1 <0>         0.1225
     52 H17         2.4604    0.3012   -4.9106 H         1 <0>         0.1111
     53 H18         0.3114    1.8326   -1.2659 H         1 <0>         0.0842
     54 H19        -1.0520    1.4601   -2.3479 H         1 <0>         0.0834
     55 H20        -1.3397    1.7205   -0.6107 H         1 <0>         0.1094
     56 H21         2.6034   -1.3509   -9.7869 H         1 <0>         0.0761
     57 H22         2.3404   -3.0401   -9.2912 H         1 <0>         0.0962
     58 H23         1.1652   -1.7846   -8.8319 H         1 <0>         0.0952
     59 O6         12.5676    5.6647   -9.0573 O.co2     1 <0>        -0.7498
@<TRIPOS>BOND
     1    1    2 1
     2    1   37 1
     3    1   38 1
     4    1   39 1
     5    2    3 1
     6    2   40 1
     7    2   41 1
     8    3    4 1
     9    4    5 2
    10    4    6 1
    11    6   26 1
    12    6    7 2
    13    7    8 1
    14    7   36 1
    15    8    9 2
    16    9   25 1
    17    9   10 1
    18   10   11 am
    19   10   26 1
    20   11   12 2
    21   11   13 1
    22   13   14 2
    23   13   25 1
    24   14   15 1
    25   14   42 1
    26   15   20 ar
    27   15   16 ar
    28   16   17 ar
    29   16   43 1
    30   17   18 ar
    31   17   44 1
    32   18   19 ar
    33   18   21 1
    34   19   20 ar
    35   19   45 1
    36   20   46 1
    37   21   22 1
    38   22   23 1
    39   22   47 1
    40   22   48 1
    41   23   24 2
    42   23   59 1
    43   26   27 1
    44   26   28 1
    45   28   33 ar
    46   28   29 ar
    47   29   30 ar
    48   29   49 1
    49   30   31 ar
    50   30   50 1
    51   31   32 ar
    52   31   34 1
    53   32   33 ar
    54   32   51 1
    55   33   52 1
    56   34   35 1
    57   35   53 1
    58   35   54 1
    59   35   55 1
    60   36   56 1
    61   36   57 1
    62   36   58 1
@<TRIPOS>MOLECULE
ZINC02049562
   59    62     0     0     0
SMALL
USER_CHARGES
2-[4-[[4-ethoxycarbonyl-3-methyl-5-(4-methylsulfanylphenyl)-7-oxo-9-thia-2,6-diazabicyclo[4.3.0]nona-1,3-dien-8-ylidene]methyl]phenoxy]acetic acid
@<TRIPOS>ATOM
      1 C1          1.8951   -1.9423    2.7356 C.3       1 <0>        -0.1517
      2 C2          2.0106   -0.5158    3.2766 C.3       1 <0>         0.0638
      3 O1          2.0942    0.4023    2.1848 O.3       1 <0>        -0.3500
      4 C3          2.2016    1.7132    2.4927 C.2       1 <0>         0.5330
      5 O2          2.2234    2.0651    3.6587 O.2       1 <0>        -0.5129
      6 C4          2.2881    2.6703    1.4686 C.2       1 <0>        -0.2951
      7 C5          2.5173    3.9871    1.7543 C.2       1 <0>         0.2569
      8 N1          2.5971    4.8849    0.7804 N.2       1 <0>        -0.5233
      9 C6          2.4708    4.6171   -0.4949 C.2       1 <0>         0.3935
     10 N2          2.2365    3.3581   -0.9980 N.am      1 <0>        -0.5776
     11 C7          2.1259    3.2065   -2.3241 C.2       1 <0>         0.5572
     12 O3          1.9184    2.1121   -2.8148 O.2       1 <0>        -0.4666
     13 C8          2.2621    4.4011   -3.1688 C.2       1 <0>        -0.2685
     14 C9          2.1916    4.5153   -4.5204 C.2       1 <0>         0.1200
     15 C10         2.1897    5.8435   -5.1457 C.ar      1 <0>        -0.1690
     16 C11         1.9181    6.9821   -4.3767 C.ar      1 <0>        -0.0371
     17 C12         1.9239    8.2256   -4.9671 C.ar      1 <0>        -0.2171
     18 C13         2.1864    8.3513   -6.3265 C.ar      1 <0>         0.1818
     19 C14         2.4510    7.2240   -7.0959 C.ar      1 <0>        -0.1641
     20 C15         2.4540    5.9761   -6.5148 C.ar      1 <0>        -0.0288
     21 O4          2.1847    9.5796   -6.9048 O.3       1 <0>        -0.2758
     22 C16         1.9054   10.6955   -6.0570 C.3       1 <0>         0.0118
     23 C17         1.9467   11.9651   -6.8677 C.2       1 <0>         0.4690
     24 O5          2.1905   11.9191   -8.0502 O.co2     1 <0>        -0.6122
     25 S1          2.5446    5.6624   -1.9364 S.3       1 <0>         0.1372
     26 C18         2.1298    2.2741    0.0187 C.3       1 <0>         0.2460
     27 H1          2.8888    1.5257   -0.2091 H         1 <0>         0.0967
     28 C19         0.7803    1.6221   -0.1390 C.ar      1 <0>        -0.1014
     29 C20        -0.3556    2.4041   -0.2438 C.ar      1 <0>        -0.0826
     30 C21        -1.5937    1.8102   -0.3888 C.ar      1 <0>        -0.0989
     31 C22        -1.6976    0.4250   -0.4294 C.ar      1 <0>        -0.0747
     32 C23        -0.5540   -0.3576   -0.3237 C.ar      1 <0>        -0.1339
     33 C24         0.6808    0.2433   -0.1789 C.ar      1 <0>        -0.0493
     34 S2         -3.2754   -0.3373   -0.6137 S.3       1 <0>        -0.1198
     35 C25        -2.9074   -2.1136   -0.6123 C.3       1 <0>        -0.1432
     36 C26         2.6814    4.4230    3.1875 C.3       1 <0>        -0.1009
     37 H2          1.8313   -2.6427    3.5684 H         1 <0>         0.0774
     38 H3          0.9990   -2.0263    2.1208 H         1 <0>         0.0644
     39 H4          2.7728   -2.1743    2.1323 H         1 <0>         0.0655
     40 H5          2.9067   -0.4318    3.8914 H         1 <0>         0.0656
     41 H6          1.1330   -0.2839    3.8799 H         1 <0>         0.0650
     42 H7          2.1369    3.6289   -5.1351 H         1 <0>         0.1617
     43 H8          1.7091    6.8851   -3.3215 H         1 <0>         0.1292
     44 H9          1.7193    9.1048   -4.3741 H         1 <0>         0.1415
     45 H10         2.6542    7.3275   -8.1515 H         1 <0>         0.1420
     46 H11         2.6600    5.1011   -7.1134 H         1 <0>         0.1390
     47 H12         0.9154   10.5780   -5.6161 H         1 <0>         0.0728
     48 H13         2.6523   10.7458   -5.2647 H         1 <0>         0.0732
     49 H14        -0.2741    3.4806   -0.2126 H         1 <0>         0.1143
     50 H15        -2.4798    2.4216   -0.4751 H         1 <0>         0.1283
     51 H16        -0.6310   -1.4344   -0.3545 H         1 <0>         0.1240
     52 H17         1.5699   -0.3642   -0.0964 H         1 <0>         0.1297
     53 H18        -2.2393   -2.3469   -1.4413 H         1 <0>         0.0843
     54 H19        -2.4278   -2.3846    0.3283 H         1 <0>         0.0833
     55 H20        -3.8341   -2.6767   -0.7230 H         1 <0>         0.1089
     56 H21         3.5010    3.8685    3.6444 H         1 <0>         0.0938
     57 H22         2.9020    5.4900    3.2198 H         1 <0>         0.0768
     58 H23         1.7597    4.2259    3.7350 H         1 <0>         0.0974
     59 O6          1.7128   13.1471   -6.2761 O.co2     1 <0>        -0.7501
@<TRIPOS>BOND
     1    1    2 1
     2    1   37 1
     3    1   38 1
     4    1   39 1
     5    2    3 1
     6    2   40 1
     7    2   41 1
     8    3    4 1
     9    4    5 2
    10    4    6 1
    11    6   26 1
    12    6    7 2
    13    7    8 1
    14    7   36 1
    15    8    9 2
    16    9   25 1
    17    9   10 1
    18   10   11 am
    19   10   26 1
    20   11   12 2
    21   11   13 1
    22   13   14 2
    23   13   25 1
    24   14   15 1
    25   14   42 1
    26   15   20 ar
    27   15   16 ar
    28   16   17 ar
    29   16   43 1
    30   17   18 ar
    31   17   44 1
    32   18   19 ar
    33   18   21 1
    34   19   20 ar
    35   19   45 1
    36   20   46 1
    37   21   22 1
    38   22   23 1
    39   22   47 1
    40   22   48 1
    41   23   24 2
    42   23   59 1
    43   26   27 1
    44   26   28 1
    45   28   33 ar
    46   28   29 ar
    47   29   30 ar
    48   29   49 1
    49   30   31 ar
    50   30   50 1
    51   31   32 ar
    52   31   34 1
    53   32   33 ar
    54   32   51 1
    55   33   52 1
    56   34   35 1
    57   35   53 1
    58   35   54 1
    59   35   55 1
    60   36   56 1
    61   36   57 1
    62   36   58 1
@<TRIPOS>MOLECULE
ZINC19853794
   46    49     0     0     0
SMALL
USER_CHARGES
4-[5-[(E)-(2-amino-3,7-dicyano-4,6-dimethyl-cyclopenta[e]pyridin-5-ylidene)methyl]-2-furyl]-2-chloro-benzoic acid
@<TRIPOS>ATOM
      1 C1          4.5608    2.1715    0.1861 C.3       1 <0>        -0.1367
      2 C2          3.7875    0.9016    0.4317 C.ar      1 <0>         0.0876
      3 C3          4.4271   -0.3423    0.4219 C.ar      1 <0>        -0.1743
      4 C4          3.6676   -1.5057    0.6565 C.ar      1 <0>         0.4795
      5 N1          2.3693   -1.4364    0.8835 N.ar      1 <0>        -0.5380
      6 C5          1.7228   -0.2726    0.9017 C.ar      1 <0>         0.2690
      7 C6          2.4196    0.9347    0.6746 C.ar      1 <0>        -0.1911
      8 C7          1.4322    2.0276    0.7601 C.2       1 <0>        -0.0692
      9 C8          1.6954    3.3842    0.5985 C.2       1 <0>         0.0430
     10 C9          0.6853    4.3283    0.8382 C.2       1 <0>        -0.0495
     11 C10         0.8115    5.4800    1.6048 C.2       1 <0>        -0.1340
     12 C11        -0.4254    6.1206    1.5751 C.2       1 <0>        -0.2037
     13 C12        -1.2630    5.3469    0.7975 C.2       1 <0>         0.0751
     14 O1         -0.5758    4.2777    0.3592 O.3       1 <0>        -0.1416
     15 C13        -2.6741    5.6466    0.4925 C.ar      1 <0>        -0.0390
     16 C14        -3.2729    6.7990    1.0132 C.ar      1 <0>        -0.1009
     17 C15        -4.5778    7.0821    0.7288 C.ar      1 <0>        -0.0671
     18 C16        -5.3253    6.2160   -0.0753 C.ar      1 <0>        -0.0861
     19 C17        -4.7343    5.0589   -0.5950 C.ar      1 <0>        -0.0092
     20 C18        -3.4155    4.7761   -0.3123 C.ar      1 <0>        -0.1057
     21 Cl1        -5.6601    3.9825   -1.5939 Cl        1 <0>        -0.0370
     22 C19        -6.7368    6.5224   -0.3762 C.2       1 <0>         0.4813
     23 O2         -7.3861    5.7701   -1.0752 O.co2     1 <0>        -0.5995
     24 O3         -7.3059    7.6366    0.1243 O.co2     1 <0>        -0.7497
     25 C20         0.1764    1.4535    1.0344 C.2       1 <0>         0.0518
     26 C21         0.3119    0.0797    1.1258 C.2       1 <0>        -0.0665
     27 C22        -0.7466   -0.8468    1.3939 C.1       1 <0>         0.2747
     28 N2         -1.5863   -1.5817    1.6066 N.1       1 <0>        -0.4118
     29 C23        -1.1138    2.2152    1.1966 C.3       1 <0>        -0.1380
     30 N3          4.2932   -2.7413    0.6490 N.pl3     1 <0>        -0.8585
     31 C24         5.8350   -0.4323    0.1761 C.1       1 <0>         0.2687
     32 N4          6.9519   -0.5037   -0.0188 N.1       1 <0>        -0.4272
     33 H1          5.6201    1.9287    0.0162 H         1 <0>         0.0726
     34 H2          4.4716    2.8304    1.0624 H         1 <0>         0.0926
     35 H3          4.1551    2.6823   -0.6996 H         1 <0>         0.0919
     36 H4          2.6953    3.7167    0.2828 H         1 <0>         0.1674
     37 H5          1.6977    5.8143    2.1238 H         1 <0>         0.1589
     38 H6         -0.6804    7.0477    2.0671 H         1 <0>         0.1583
     39 H7         -2.7002    7.4683    1.6380 H         1 <0>         0.1305
     40 H8         -5.0351    7.9747    1.1293 H         1 <0>         0.1470
     41 H9         -2.9555    3.8843   -0.7117 H         1 <0>         0.1325
     42 H10        -1.9321    1.5102    1.4046 H         1 <0>         0.0767
     43 H11        -1.3322    2.7677    0.2709 H         1 <0>         0.1194
     44 H12        -1.0187    2.9236    2.0327 H         1 <0>         0.0903
     45 H13         3.7084   -3.6550    0.8312 H         1 <0>         0.4346
     46 H14         5.3749   -2.8090    0.4609 H         1 <0>         0.4309
@<TRIPOS>BOND
     1    1    2 1
     2    1   33 1
     3    1   34 1
     4    1   35 1
     5    2    7 ar
     6    2    3 ar
     7    3    4 ar
     8    3   31 1
     9    4    5 ar
    10    4   30 1
    11    5    6 ar
    12    6   26 1
    13    6    7 ar
    14    7    8 1
    15    8    9 2
    16    8   25 1
    17    9   10 1
    18    9   36 1
    19   10   14 1
    20   10   11 2
    21   11   12 1
    22   11   37 1
    23   12   13 2
    24   12   38 1
    25   13   14 1
    26   13   15 1
    27   15   20 ar
    28   15   16 ar
    29   16   17 ar
    30   16   39 1
    31   17   18 ar
    32   17   40 1
    33   18   19 ar
    34   18   22 1
    35   19   20 ar
    36   19   21 1
    37   20   41 1
    38   22   23 2
    39   22   24 1
    40   25   26 2
    41   25   29 1
    42   26   27 1
    43   27   28 3
    44   29   42 1
    45   29   43 1
    46   29   44 1
    47   30   45 1
    48   30   46 1
    49   31   32 3
@<TRIPOS>MOLECULE
ZINC14952759
   56    58     0     0     0
SMALL
USER_CHARGES

@<TRIPOS>ATOM
      1 C1         -0.4758    1.4574   -1.6124 C.3       1 <0>         0.0993
      2 N1         -0.4488   -0.0074   -1.6164 N.am      1 <0>        -0.7322
      3 C2          0.5695   -0.6641   -1.0263 C.2       1 <0>         0.5424
      4 O1          1.4634   -0.0426   -0.4920 O.2       1 <0>        -0.5311
      5 C3          0.5974   -2.1709   -1.0303 C.3       1 <0>         0.1258
      6 H1         -0.4170   -2.5586   -0.9369 H         1 <0>         0.0965
      7 C4          1.4525   -2.6752    0.1310 C.3       1 <0>        -0.0719
      8 C5          1.7567   -4.1422   -0.0245 C.ar      1 <0>        -0.1031
      9 C6          2.1395   -4.8437    1.1135 C.ar      1 <0>        -0.0942
     10 C7          2.4424   -6.1858    1.0435 C.ar      1 <0>        -0.1531
     11 C8          2.3662   -6.8471   -0.1761 C.ar      1 <0>         0.1949
     12 C9          1.9808   -6.1485   -1.3098 C.ar      1 <0>        -0.1443
     13 C10         1.6719   -4.7984   -1.2326 C.ar      1 <0>        -0.0848
     14 C11         1.2346   -4.1048   -2.4985 C.3       1 <0>         0.1524
     15 N2          1.2021   -2.6545   -2.2825 N.am      1 <0>        -0.6044
     16 C12         1.7067   -1.7989   -3.1935 C.2       1 <0>         0.5157
     17 O2          1.7576   -0.6123   -2.9479 O.2       1 <0>        -0.5114
     18 C13         2.2076   -2.3166   -4.5172 C.3       1 <0>        -0.1339
     19 C14         2.7238   -1.1482   -5.3594 C.3       1 <0>        -0.0554
     20 C15         3.2247   -1.6659   -6.6831 C.ar      1 <0>        -0.0731
     21 C16         4.5457   -2.0526   -6.8184 C.ar      1 <0>        -0.1469
     22 C17         5.0095   -2.5278   -8.0312 C.ar      1 <0>        -0.0955
     23 C18         4.1541   -2.6181   -9.1120 C.ar      1 <0>        -0.1631
     24 C19         2.8269   -2.2311   -8.9795 C.ar      1 <0>         0.1920
     25 C20         2.3629   -1.7590   -7.7579 C.ar      1 <0>        -0.1469
     26 N3          1.9592   -2.3211  -10.0703 N.pl3     1 <0>        -1.0870
     27 S1          1.9521   -3.6830  -11.0124 S.o2      1 <0>         2.7741
     28 O3          1.0440   -3.4262  -12.1194 O.2       1 <0>        -1.0817
     29 O4          3.3184   -3.8892  -11.4672 O.2       1 <0>        -1.0777
     30 O5          1.4886   -4.7758  -10.1716 O.3       1 <0>        -1.0754
     31 N4          2.6762   -8.2064   -0.2594 N.pl3     1 <0>        -1.0858
     32 S2          2.0863   -9.2612    0.8727 S.o2      1 <0>         2.7750
     33 O6          2.6750  -10.5603    0.5870 O.2       1 <0>        -1.0795
     34 O7          2.4930   -8.7547    2.1743 O.2       1 <0>        -1.0784
     35 O8          0.6394   -9.2755    0.7232 O.3       1 <0>        -1.0775
     36 H2         -0.4910    1.8177   -0.5838 H         1 <0>         0.0516
     37 H3          0.4115    1.8385   -2.1179 H         1 <0>         0.0603
     38 H4         -1.3681    1.8057   -2.1326 H         1 <0>         0.0663
     39 H5         -1.1637   -0.5045   -2.0437 H         1 <0>         0.3954
     40 H6          2.3878   -2.1160    0.1567 H         1 <0>         0.0918
     41 H7          0.9156   -2.5176    1.0664 H         1 <0>         0.0828
     42 H8          2.2003   -4.3310    2.0620 H         1 <0>         0.1221
     43 H9          2.7376   -6.7220    1.9333 H         1 <0>         0.1589
     44 H10         1.9211   -6.6588   -2.2598 H         1 <0>         0.1266
     45 H11         1.9359   -4.3368   -3.3000 H         1 <0>         0.1019
     46 H12         0.2393   -4.4515   -2.7768 H         1 <0>         0.0871
     47 H13         3.0165   -3.0270   -4.3469 H         1 <0>         0.0992
     48 H14         1.3931   -2.8129   -5.0449 H         1 <0>         0.1007
     49 H15         1.9148   -0.4378   -5.5297 H         1 <0>         0.0754
     50 H16         3.5382   -0.6519   -4.8317 H         1 <0>         0.0769
     51 H17         5.2165   -1.9830   -5.9749 H         1 <0>         0.1161
     52 H18         6.0417   -2.8282   -8.1336 H         1 <0>         0.1207
     53 H19         4.5171   -2.9890  -10.0591 H         1 <0>         0.1564
     54 H20         1.3304   -1.4610   -7.6504 H         1 <0>         0.1195
     55 H21         1.3609   -1.5859  -10.2761 H         1 <0>         0.4038
     56 H22         3.2371   -8.5326   -0.9805 H         1 <0>         0.4065
@<TRIPOS>BOND
     1    1    2 1
     2    1   36 1
     3    1   37 1
     4    1   38 1
     5    2    3 am
     6    2   39 1
     7    3    4 2
     8    3    5 1
     9    5    6 1
    10    5   15 1
    11    5    7 1
    12    7    8 1
    13    7   40 1
    14    7   41 1
    15    8   13 ar
    16    8    9 ar
    17    9   10 ar
    18    9   42 1
    19   10   11 ar
    20   10   43 1
    21   11   12 ar
    22   11   31 1
    23   12   13 ar
    24   12   44 1
    25   13   14 1
    26   14   15 1
    27   14   45 1
    28   14   46 1
    29   15   16 am
    30   16   17 2
    31   16   18 1
    32   18   19 1
    33   18   47 1
    34   18   48 1
    35   19   20 1
    36   19   49 1
    37   19   50 1
    38   20   25 ar
    39   20   21 ar
    40   21   22 ar
    41   21   51 1
    42   22   23 ar
    43   22   52 1
    44   23   24 ar
    45   23   53 1
    46   24   25 ar
    47   24   26 1
    48   25   54 1
    49   26   27 1
    50   26   55 1
    51   27   28 2
    52   27   29 2
    53   27   30 1
    54   31   32 1
    55   31   56 1
    56   32   33 2
    57   32   34 2
    58   32   35 1
@<TRIPOS>MOLECULE
ZINC01642928
   35    37     0     0     0
SMALL
USER_CHARGES

@<TRIPOS>ATOM
      1 C1         -0.0167    1.3827    0.0096 C.ar      1 <0>        -0.1586
      2 C2          1.1766    2.0854    0.0020 C.ar      1 <0>        -0.0540
      3 C3          2.3708    1.3579   -0.0141 C.ar      1 <0>        -0.0755
      4 C4          2.3035   -0.0486   -0.0244 C.ar      1 <0>         0.0629
      5 N1          1.1372   -0.6719   -0.0141 N.ar      1 <0>        -0.4432
      6 C5          0.0021   -0.0041    0.0020 C.ar      1 <0>         0.0795
      7 C6          3.5802   -0.8075   -0.0506 C.2       1 <0>         0.4631
      8 O1          3.6593   -1.9560    0.3349 O.2       1 <0>        -0.4147
      9 C7          4.7668   -0.0579   -0.5869 C.2       1 <0>         0.2011
     10 N2          5.7005   -0.6523   -1.2796 N.2       1 <0>        -0.5409
     11 C8          6.8407    0.1171   -1.7837 C.3       1 <0>         0.0470
     12 C9          8.1241   -0.3723   -1.1098 C.3       1 <0>        -0.0735
     13 C10         9.2971    0.4192   -1.6283 C.ar      1 <0>        -0.0658
     14 C11         9.9847   -0.0178   -2.7453 C.ar      1 <0>        -0.0592
     15 C12        11.0613    0.7059   -3.2228 C.ar      1 <0>        -0.1127
     16 C13        11.4514    1.8725   -2.5803 C.ar      1 <0>         0.1513
     17 C14        10.7590    2.3091   -1.4596 C.ar      1 <0>        -0.1105
     18 C15         9.6800    1.5841   -0.9895 C.ar      1 <0>        -0.0560
     19 Br1        11.2867    3.8981   -0.5806 Br        1 <0>        -0.0277
     20 O2         12.5099    2.5860   -3.0474 O.3       1 <0>        -0.4755
     21 Br2        12.0020    0.1067   -4.7499 Br        1 <0>        -0.0318
     22 C16         4.8197    1.3829   -0.2896 C.2       1 <0>        -0.4539
     23 C17         3.6705    2.0463   -0.0191 C.2       1 <0>         0.3018
     24 O3          3.7189    3.3731    0.2520 O.3       1 <0>        -0.6915
     25 H1         -0.9579    1.9122    0.0260 H         1 <0>         0.1361
     26 H2          1.1847    3.1654    0.0080 H         1 <0>         0.1472
     27 H3         -0.9317   -0.5466    0.0095 H         1 <0>         0.1579
     28 H4          6.9222   -0.0184   -2.8622 H         1 <0>         0.0723
     29 H5          6.6932    1.1738   -1.5604 H         1 <0>         0.0617
     30 H6          8.0426   -0.2367   -0.0313 H         1 <0>         0.0782
     31 H7          8.2716   -1.4289   -1.3331 H         1 <0>         0.0837
     32 H8          9.6807   -0.9258   -3.2449 H         1 <0>         0.1445
     33 H9          9.1383    1.9255   -0.1198 H         1 <0>         0.1463
     34 H10        12.2733    3.2590   -3.7002 H         1 <0>         0.3951
     35 H11         5.7650    1.9053   -0.2868 H         1 <0>         0.1154
@<TRIPOS>BOND
     1    1    6 ar
     2    1    2 ar
     3    1   25 1
     4    2    3 ar
     5    2   26 1
     6    3   23 1
     7    3    4 ar
     8    4    5 ar
     9    4    7 1
    10    5    6 ar
    11    6   27 1
    12    7    8 2
    13    7    9 1
    14    9   10 2
    15    9   22 1
    16   10   11 1
    17   11   12 1
    18   11   28 1
    19   11   29 1
    20   12   13 1
    21   12   30 1
    22   12   31 1
    23   13   18 ar
    24   13   14 ar
    25   14   15 ar
    26   14   32 1
    27   15   16 ar
    28   15   21 1
    29   16   17 ar
    30   16   20 1
    31   17   18 ar
    32   17   19 1
    33   18   33 1
    34   20   34 1
    35   22   23 2
    36   22   35 1
    37   23   24 1
@<TRIPOS>MOLECULE
ZINC01642928
   35    37     0     0     0
SMALL
USER_CHARGES

@<TRIPOS>ATOM
      1 C1         -0.0522    0.8971    0.5348 C.ar      1 <0>        -0.1546
      2 C2          1.0527    1.7045    0.3165 C.ar      1 <0>        -0.0269
      3 C3          2.3081    1.0944    0.2233 C.ar      1 <0>        -0.1731
      4 C4          2.3970   -0.3034    0.3632 C.ar      1 <0>         0.1113
      5 N1          1.3075   -1.0282    0.5639 N.ar      1 <0>        -0.4401
      6 C5          0.1156   -0.4742    0.6511 C.ar      1 <0>         0.1227
      7 C6          3.7308   -0.9584    0.2948 C.2       1 <0>         0.4532
      8 O1          3.8842   -2.1215    0.6071 O.2       1 <0>        -0.3774
      9 C7          4.8731   -0.1177   -0.1768 C.2       1 <0>         0.0992
     10 N2          5.8027   -0.5931   -0.9343 N.2       1 <0>        -0.4200
     11 C8          6.9808    0.2199   -1.2462 C.3       1 <0>         0.0204
     12 C9          6.9920    0.5493   -2.7403 C.3       1 <0>        -0.0392
     13 C10         8.2039    1.3856   -3.0612 C.ar      1 <0>        -0.2346
     14 C11         8.1299    2.7643   -2.9878 C.ar      1 <0>        -0.0195
     15 C12         9.2399    3.5339   -3.2820 C.ar      1 <0>        -0.2200
     16 C13        10.4293    2.9215   -3.6509 C.ar      1 <0>         0.3082
     17 C14        10.5008    1.5375   -3.7233 C.ar      1 <0>        -0.2204
     18 C15         9.3892    0.7726   -3.4229 C.ar      1 <0>        -0.0171
     19 Br1        12.1194    0.6984   -4.2254 Br        1 <0>        -0.0890
     20 O2         11.5222    3.6759   -3.9412 O.3       1 <0>        -0.6649
     21 Br2         9.1374    5.4195   -3.1826 Br        1 <0>        -0.0891
     22 C16         4.8761    1.3289    0.2867 C.3       1 <0>        -0.1753
     23 C17         3.5119    1.9067   -0.0216 C.2       1 <0>         0.4116
     24 O3          3.4107    3.0296   -0.4671 O.2       1 <0>        -0.4237
     25 H1         -1.0365    1.3334    0.6184 H         1 <0>         0.1512
     26 H2          0.9474    2.7750    0.2205 H         1 <0>         0.1549
     27 H3         -0.7483   -1.1008    0.8168 H         1 <0>         0.1718
     28 H4          6.9467    1.1448   -0.6705 H         1 <0>         0.0636
     29 H5          7.8833   -0.3348   -0.9896 H         1 <0>         0.1090
     30 H6          7.0260   -0.3756   -3.3160 H         1 <0>         0.0724
     31 H7          6.0895    1.1040   -2.9968 H         1 <0>         0.0593
     32 H8          7.2040    3.2403   -2.7006 H         1 <0>         0.1052
     33 H9          9.4454   -0.3047   -3.4752 H         1 <0>         0.1077
     34 H10         5.0635    1.3737    1.3596 H         1 <0>         0.1335
     35 H11         5.6444    1.8875   -0.2479 H         1 <0>         0.1298
@<TRIPOS>BOND
     1    1    6 ar
     2    1    2 ar
     3    1   25 1
     4    2    3 ar
     5    2   26 1
     6    3   23 1
     7    3    4 ar
     8    4    5 ar
     9    4    7 1
    10    5    6 ar
    11    6   27 1
    12    7    8 2
    13    7    9 1
    14    9   10 2
    15    9   22 1
    16   10   11 1
    17   11   12 1
    18   11   28 1
    19   11   29 1
    20   12   13 1
    21   12   30 1
    22   12   31 1
    23   13   18 ar
    24   13   14 ar
    25   14   15 ar
    26   14   32 1
    27   15   16 ar
    28   15   21 1
    29   16   17 ar
    30   16   20 1
    31   17   18 ar
    32   17   19 1
    33   18   33 1
    34   22   23 1
    35   22   34 1
    36   22   35 1
    37   23   24 2
@<TRIPOS>MOLECULE
ZINC01642928
   36    38     0     0     0
SMALL
USER_CHARGES

@<TRIPOS>ATOM
      1 C1          2.8621   -5.0362   -4.1390 C.ar      1 <0>        -0.1508
      2 C2          4.0460   -4.3682   -4.4082 C.ar      1 <0>        -0.0245
      3 C3          4.3637   -3.2489   -3.6317 C.ar      1 <0>        -0.1791
      4 C4          3.4694   -2.8453   -2.6224 C.ar      1 <0>         0.1099
      5 N1          2.3546   -3.5247   -2.4030 N.ar      1 <0>        -0.4383
      6 C5          2.0383   -4.5834   -3.1200 C.ar      1 <0>         0.1281
      7 C6          3.7841   -1.6391   -1.8107 C.2       1 <0>         0.4498
      8 O1          2.9606   -1.1366   -1.0737 O.2       1 <0>        -0.3689
      9 C7          5.1618   -1.0750   -1.9446 C.2       1 <0>         0.1193
     10 N2          5.8027   -0.5931   -0.9343 N.2       1 <0>        -0.4288
     11 C8          7.0840    0.0876   -1.1365 C.3       1 <0>         0.0214
     12 C9          8.2026   -0.7261   -0.4826 C.3       1 <0>        -0.0740
     13 C10         9.5207   -0.0258   -0.6906 C.ar      1 <0>        -0.0839
     14 C11        10.2806   -0.3044   -1.8115 C.ar      1 <0>        -0.0580
     15 C12        11.4904    0.3361   -2.0047 C.ar      1 <0>        -0.1139
     16 C13        11.9416    1.2598   -1.0725 C.ar      1 <0>         0.1637
     17 C14        11.1765    1.5378    0.0514 C.ar      1 <0>        -0.1140
     18 C15         9.9651    0.8982    0.2369 C.ar      1 <0>        -0.0546
     19 Br1        11.7872    2.7958    1.3245 Br        1 <0>        -0.0186
     20 O2         13.1310    1.8908   -1.2598 O.3       1 <0>        -0.4729
     21 Br2        12.5296   -0.0465   -3.5375 Br        1 <0>        -0.0187
     22 C16         5.7640   -1.1024   -3.3390 C.3       1 <0>        -0.1766
     23 C17         5.6167   -2.5121   -3.8690 C.2       1 <0>         0.4133
     24 O3          6.5233   -3.0313   -4.4839 O.2       1 <0>        -0.4247
     25 H1          2.5810   -5.9009   -4.7218 H         1 <0>         0.1543
     26 H2          4.7053   -4.7028   -5.1955 H         1 <0>         0.1560
     27 H3          1.1185   -5.1091   -2.9101 H         1 <0>         0.1750
     28 H4          7.2805    0.1825   -2.2045 H         1 <0>         0.0666
     29 H5          7.0441    1.0789   -0.6850 H         1 <0>         0.1113
     30 H6          8.0062   -0.8209    0.5854 H         1 <0>         0.0959
     31 H7          8.2425   -1.7173   -0.9341 H         1 <0>         0.0824
     32 H8          9.9290   -1.0234   -2.5367 H         1 <0>         0.1441
     33 H9          9.3674    1.1171    1.1094 H         1 <0>         0.1467
     34 H10        13.0633    2.7190   -1.7543 H         1 <0>         0.3998
     35 H11         5.2312   -0.4058   -3.9863 H         1 <0>         0.1380
     36 H12         6.8191   -0.8327   -3.2921 H         1 <0>         0.1247
@<TRIPOS>BOND
     1    1    6 ar
     2    1    2 ar
     3    1   25 1
     4    2    3 ar
     5    2   26 1
     6    3   23 1
     7    3    4 ar
     8    4    5 ar
     9    4    7 1
    10    5    6 ar
    11    6   27 1
    12    7    8 2
    13    7    9 1
    14    9   10 2
    15    9   22 1
    16   10   11 1
    17   11   12 1
    18   11   28 1
    19   11   29 1
    20   12   13 1
    21   12   30 1
    22   12   31 1
    23   13   18 ar
    24   13   14 ar
    25   14   15 ar
    26   14   32 1
    27   15   16 ar
    28   15   21 1
    29   16   17 ar
    30   16   20 1
    31   17   18 ar
    32   17   19 1
    33   18   33 1
    34   20   34 1
    35   22   23 1
    36   22   35 1
    37   22   36 1
    38   23   24 2
@<TRIPOS>MOLECULE
ZINC01642928
   36    38     0     0     0
SMALL
USER_CHARGES

@<TRIPOS>ATOM
      1 C1          9.8274   -1.5522    3.7083 C.ar      1 <0>        -0.1491
      2 C2          8.8779   -0.5582    3.5333 C.ar      1 <0>        -0.0258
      3 C3          8.2588   -0.4492    2.2836 C.ar      1 <0>        -0.1765
      4 C4          8.6302   -1.3418    1.2605 C.ar      1 <0>         0.0993
      5 N1          9.5390   -2.2781    1.4843 N.ar      1 <0>        -0.4392
      6 C5         10.1313   -2.4003    2.6546 C.ar      1 <0>         0.1247
      7 C6          7.9989   -1.2154   -0.0804 C.2       1 <0>         0.4006
      8 O1          8.4245   -1.8211   -1.0427 O.2       1 <0>        -0.3830
      9 C7          6.8159   -0.3082   -0.1876 C.2       1 <0>         0.1228
     10 C8          6.8752    0.9694    0.6322 C.3       1 <0>        -0.1120
     11 C9          7.2334    0.5819    2.0505 C.2       1 <0>         0.4091
     12 O2          6.6800    1.1158    2.9877 O.2       1 <0>        -0.4209
     13 N2          5.8030   -0.5935   -0.9336 N.2       1 <0>        -0.4246
     14 C10         5.7231   -1.8997   -1.5921 C.3       1 <0>         0.0177
     15 C11         5.8068   -1.7124   -3.1083 C.3       1 <0>        -0.0661
     16 C12         5.7246   -3.0560   -3.7857 C.ar      1 <0>        -0.0833
     17 C13         6.8793   -3.7737   -4.0372 C.ar      1 <0>        -0.0521
     18 C14         6.8069   -5.0063   -4.6589 C.ar      1 <0>        -0.1143
     19 C15         5.5737   -5.5234   -5.0301 C.ar      1 <0>         0.1625
     20 C16         4.4163   -4.8010   -4.7760 C.ar      1 <0>        -0.1154
     21 C17         4.4942   -3.5713   -4.1494 C.ar      1 <0>        -0.0562
     22 Br1         2.7337   -5.5015   -5.2800 Br        1 <0>        -0.0208
     23 O3          5.4996   -6.7350   -5.6420 O.3       1 <0>        -0.4732
     24 Br2         8.3867   -5.9866   -5.0036 Br        1 <0>        -0.0199
     25 H1         10.3305   -1.6625    4.6575 H         1 <0>         0.1541
     26 H2          8.6226    0.1135    4.3395 H         1 <0>         0.1569
     27 H3         10.8686   -3.1767    2.7959 H         1 <0>         0.1736
     28 H4          7.6372    1.6348    0.2264 H         1 <0>         0.1370
     29 H5          5.9042    1.4643    0.6174 H         1 <0>         0.1332
     30 H6          6.5495   -2.5265   -1.2572 H         1 <0>         0.0675
     31 H7          4.7775   -2.3780   -1.3368 H         1 <0>         0.1042
     32 H8          4.9804   -1.0855   -3.4431 H         1 <0>         0.0927
     33 H9          6.7524   -1.2340   -3.3636 H         1 <0>         0.0849
     34 H10         7.8387   -3.3708   -3.7481 H         1 <0>         0.1465
     35 H11         3.5936   -3.0105   -3.9477 H         1 <0>         0.1457
     36 H12         5.4060   -7.4789   -5.0313 H         1 <0>         0.3990
@<TRIPOS>BOND
     1    1    6 ar
     2    1    2 ar
     3    1   25 1
     4    2    3 ar
     5    2   26 1
     6    3   11 1
     7    3    4 ar
     8    4    5 ar
     9    4    7 1
    10    5    6 ar
    11    6   27 1
    12    7    8 2
    13    7    9 1
    14    9   13 2
    15    9   10 1
    16   10   11 1
    17   10   28 1
    18   10   29 1
    19   11   12 2
    20   13   14 1
    21   14   15 1
    22   14   30 1
    23   14   31 1
    24   15   16 1
    25   15   32 1
    26   15   33 1
    27   16   21 ar
    28   16   17 ar
    29   17   18 ar
    30   17   34 1
    31   18   19 ar
    32   18   24 1
    33   19   20 ar
    34   19   23 1
    35   20   21 ar
    36   20   22 1
    37   21   35 1
    38   23   36 1
@<TRIPOS>MOLECULE
ZINC01642928
   36    38     0     0     0
SMALL
USER_CHARGES

@<TRIPOS>ATOM
      1 C1         -0.0167    1.3798    0.0096 C.ar      1 <0>        -0.1459
      2 C2          1.1842    2.0792    0.0019 C.ar      1 <0>        -0.0284
      3 C3          2.3670    1.3466   -0.0130 C.ar      1 <0>        -0.1656
      4 C4          2.3062   -0.0567   -0.0196 C.ar      1 <0>         0.0984
      5 N1          1.1372   -0.6750   -0.0125 N.ar      1 <0>        -0.4361
      6 C5          0.0021   -0.0041    0.0020 C.ar      1 <0>         0.1162
      7 C6          3.5771   -0.8241   -0.0342 C.2       1 <0>         0.4362
      8 O1          3.5759   -2.0118   -0.2836 O.2       1 <0>        -0.3884
      9 C7          4.8501   -0.1176    0.2602 C.2       1 <0>         0.1856
     10 N2          5.9906   -0.8417    0.5297 N.pl3     1 <0>        -0.7016
     11 C8          7.2475   -0.1474    0.8204 C.3       1 <0>         0.1173
     12 C9          8.3494   -1.1760    1.0823 C.3       1 <0>        -0.0913
     13 C10         9.6424   -0.4619    1.3813 C.ar      1 <0>        -0.0833
     14 C11        10.5043   -0.1349    0.3509 C.ar      1 <0>        -0.0549
     15 C12        11.6912    0.5198    0.6223 C.ar      1 <0>        -0.1145
     16 C13        12.0170    0.8492    1.9305 C.ar      1 <0>         0.1653
     17 C14        11.1497    0.5202    2.9627 C.ar      1 <0>        -0.1146
     18 C15         9.9618   -0.1299    2.6849 C.ar      1 <0>        -0.0550
     19 Br1        11.5893    0.9670    4.7468 Br        1 <0>        -0.0184
     20 O2         13.1836    1.4926    2.2003 O.3       1 <0>        -0.4732
     21 Br2        12.8700    0.9655   -0.7875 Br        1 <0>        -0.0181
     22 C16         4.8936    1.2371    0.2640 C.2       1 <0>        -0.3043
     23 C17         3.6873    2.0173   -0.0216 C.2       1 <0>         0.4404
     24 O3          3.7694    3.2062   -0.2643 O.2       1 <0>        -0.4448
     25 H1         -0.9565    1.9116    0.0259 H         1 <0>         0.1533
     26 H2          1.1989    3.1591    0.0070 H         1 <0>         0.1564
     27 H3         -0.9323   -0.5457    0.0078 H         1 <0>         0.1732
     28 H4          7.5250    0.4735   -0.0314 H         1 <0>         0.0791
     29 H5          7.1200    0.4809    1.7019 H         1 <0>         0.0792
     30 H6          8.0719   -1.7969    1.9341 H         1 <0>         0.0910
     31 H7          8.4769   -1.8044    0.2008 H         1 <0>         0.0913
     32 H8         10.2502   -0.3915   -0.6669 H         1 <0>         0.1456
     33 H9          9.2846   -0.3826    3.4874 H         1 <0>         0.1456
     34 H10        13.1139    2.4570    2.1838 H         1 <0>         0.4006
     35 H11         5.8226    1.7440    0.4795 H         1 <0>         0.1511
     36 H12         5.9614   -1.8112    0.5271 H         1 <0>         0.4127
@<TRIPOS>BOND
     1    1    6 ar
     2    1    2 ar
     3    1   25 1
     4    2    3 ar
     5    2   26 1
     6    3   23 1
     7    3    4 ar
     8    4    5 ar
     9    4    7 1
    10    5    6 ar
    11    6   27 1
    12    7    8 2
    13    7    9 1
    14    9   10 1
    15    9   22 2
    16   10   11 1
    17   10   36 1
    18   11   12 1
    19   11   28 1
    20   11   29 1
    21   12   13 1
    22   12   30 1
    23   12   31 1
    24   13   18 ar
    25   13   14 ar
    26   14   15 ar
    27   14   32 1
    28   15   16 ar
    29   15   21 1
    30   16   17 ar
    31   16   20 1
    32   17   18 ar
    33   17   19 1
    34   18   33 1
    35   20   34 1
    36   22   23 1
    37   22   35 1
    38   23   24 2
@<TRIPOS>MOLECULE
ZINC49739406
   38    40     0     0     0
SMALL
USER_CHARGES

@<TRIPOS>ATOM
      1 C1         -0.0167    1.3821    0.0096 C.ar      1 <0>        -0.1484
      2 C2          1.1794    2.0817    0.0020 C.ar      1 <0>        -0.0198
      3 C3          2.3718    1.3504   -0.0155 C.ar      1 <0>        -0.1764
      4 C4          2.3071   -0.0556   -0.0335 C.ar      1 <0>         0.1071
      5 N1          1.1364   -0.6735   -0.0182 N.ar      1 <0>        -0.4368
      6 C5          0.0021   -0.0041    0.0020 C.ar      1 <0>         0.1293
      7 C6          3.5689   -0.8418   -0.0816 C.2       1 <0>         0.4012
      8 O1          3.5656   -2.0358   -0.3012 O.2       1 <0>        -0.3675
      9 C7          4.8411   -0.0929    0.1525 C.2       1 <0>         0.1080
     10 C8          4.9154    1.3032   -0.4418 C.3       1 <0>        -0.0039
     11 C9          3.6697    2.0464   -0.0107 C.2       1 <0>         0.4104
     12 O2          3.7397    3.2059    0.3364 O.2       1 <0>        -0.3963
     13 Cl1         4.9760    1.2008   -2.2409 Cl        1 <0>        -0.0949
     14 N2          5.8194   -0.6026    0.8210 N.2       1 <0>        -0.4016
     15 C10         5.7022   -1.9532    1.3761 C.3       1 <0>         0.0070
     16 C11         6.7187   -2.8736    0.6975 C.3       1 <0>         0.0728
     17 N3          6.6012   -4.2279    1.2542 N.3       1 <0>        -0.5348
     18 C12         7.0050   -4.2535    2.6675 C.3       1 <0>         0.0118
     19 C13         6.8109   -5.6670    3.2227 C.3       1 <0>         0.0633
     20 O3          7.5587   -6.5923    2.4291 O.3       1 <0>        -0.3843
     21 C14         7.1907   -6.5942    1.0470 C.3       1 <0>         0.0633
     22 C15         7.3888   -5.1901    0.4699 C.3       1 <0>         0.0196
     23 H1         -0.9571    1.9131    0.0259 H         1 <0>         0.1567
     24 H2          1.1908    3.1616    0.0089 H         1 <0>         0.1589
     25 H3         -0.9320   -0.5460    0.0132 H         1 <0>         0.1762
     26 H4          5.8012    1.8176   -0.0692 H         1 <0>         0.1628
     27 H5          5.8977   -1.9237    2.4481 H         1 <0>         0.1036
     28 H6          4.6953   -2.3320    1.2007 H         1 <0>         0.0864
     29 H7          6.5233   -2.9031   -0.3744 H         1 <0>         0.0825
     30 H8          7.7256   -2.4948    0.8729 H         1 <0>         0.0503
     31 H9          8.0543   -3.9705    2.7514 H         1 <0>         0.0476
     32 H10         6.3919   -3.5526    3.2340 H         1 <0>         0.0862
     33 H11         7.1625   -5.7046    4.2537 H         1 <0>         0.1001
     34 H12         5.7535   -5.9295    3.1883 H         1 <0>         0.0612
     35 H13         7.8171   -7.3024    0.5046 H         1 <0>         0.1010
     36 H14         6.1444   -6.8836    0.9494 H         1 <0>         0.0620
     37 H15         7.0558   -5.1729   -0.5679 H         1 <0>         0.0891
     38 H16         8.4442   -4.9221    0.5186 H         1 <0>         0.0464
@<TRIPOS>BOND
     1    1    6 ar
     2    1    2 ar
     3    1   23 1
     4    2    3 ar
     5    2   24 1
     6    3   11 1
     7    3    4 ar
     8    4    5 ar
     9    4    7 1
    10    5    6 ar
    11    6   25 1
    12    7    8 2
    13    7    9 1
    14    9   14 2
    15    9   10 1
    16   10   11 1
    17   10   13 1
    18   10   26 1
    19   11   12 2
    20   14   15 1
    21   15   16 1
    22   15   27 1
    23   15   28 1
    24   16   17 1
    25   16   29 1
    26   16   30 1
    27   17   22 1
    28   17   18 1
    29   18   19 1
    30   18   31 1
    31   18   32 1
    32   19   20 1
    33   19   33 1
    34   19   34 1
    35   20   21 1
    36   21   22 1
    37   21   35 1
    38   21   36 1
    39   22   37 1
    40   22   38 1
@<TRIPOS>MOLECULE
ZINC49739406
   38    40     0     0     0
SMALL
USER_CHARGES

@<TRIPOS>ATOM
      1 C1         -0.0858    1.3073    0.4490 C.ar      1 <0>        -0.1492
      2 C2          1.0934    2.0345    0.4803 C.ar      1 <0>        -0.0190
      3 C3          2.3002    1.3417    0.3368 C.ar      1 <0>        -0.1779
      4 C4          2.2660   -0.0542    0.1588 C.ar      1 <0>         0.1150
      5 N1          1.1107   -0.7004    0.1437 N.ar      1 <0>        -0.4356
      6 C5         -0.0366   -0.0679    0.2808 C.ar      1 <0>         0.1318
      7 C6          3.5422   -0.7961   -0.0239 C.2       1 <0>         0.4530
      8 O1          3.5571   -1.9568   -0.3795 O.2       1 <0>        -0.3603
      9 C7          4.8055   -0.0457    0.2504 C.2       1 <0>         0.1106
     10 C8          4.8263    1.4107   -0.1809 C.3       1 <0>        -0.0694
     11 C9          3.5816    2.0666    0.3764 C.2       1 <0>         0.4132
     12 O2          3.6389    3.1801    0.8523 O.2       1 <0>        -0.3996
     13 Cl1         4.8210    1.5167   -1.9808 Cl        1 <0>        -0.0940
     14 N2          5.8194   -0.6026    0.8210 N.2       1 <0>        -0.4016
     15 C10         7.0871    0.1232    0.9324 C.3       1 <0>         0.0149
     16 C11         7.3861    0.4042    2.4064 C.3       1 <0>         0.0601
     17 N3          8.6572    1.1319    2.5182 N.3       1 <0>        -0.5367
     18 C12         9.7853    0.2901    2.0937 C.3       1 <0>         0.0107
     19 C13        11.0795    1.1046    2.1690 C.3       1 <0>         0.0632
     20 O3         11.2463    1.6031    3.4991 O.3       1 <0>        -0.3837
     21 C14        10.1660    2.4275    3.9447 C.3       1 <0>         0.0634
     22 C15         8.8626    1.6264    3.8873 C.3       1 <0>         0.0180
     23 H1         -1.0364    1.8079    0.5594 H         1 <0>         0.1568
     24 H2          1.0811    3.1064    0.6114 H         1 <0>         0.1581
     25 H3         -0.9574   -0.6320    0.2621 H         1 <0>         0.1773
     26 H4          5.7139    1.9023    0.2173 H         1 <0>         0.1565
     27 H5          7.8896   -0.4798    0.5075 H         1 <0>         0.1156
     28 H6          7.0149    1.0660    0.3902 H         1 <0>         0.0728
     29 H7          6.5836    1.0072    2.8313 H         1 <0>         0.0799
     30 H8          7.4583   -0.5386    2.9486 H         1 <0>         0.0557
     31 H9          9.8612   -0.5756    2.7516 H         1 <0>         0.0492
     32 H10         9.6246   -0.0439    1.0686 H         1 <0>         0.0888
     33 H11        11.9256    0.4682    1.9100 H         1 <0>         0.1010
     34 H12        11.0247    1.9403    1.4713 H         1 <0>         0.0617
     35 H13        10.3515    2.7478    4.9699 H         1 <0>         0.1013
     36 H14        10.0847    3.3016    3.2986 H         1 <0>         0.0620
     37 H15         8.0284    2.2678    4.1716 H         1 <0>         0.0887
     38 H16         8.9238    0.7821    4.5739 H         1 <0>         0.0477
@<TRIPOS>BOND
     1    1    6 ar
     2    1    2 ar
     3    1   23 1
     4    2    3 ar
     5    2   24 1
     6    3   11 1
     7    3    4 ar
     8    4    5 ar
     9    4    7 1
    10    5    6 ar
    11    6   25 1
    12    7    8 2
    13    7    9 1
    14    9   14 2
    15    9   10 1
    16   10   11 1
    17   10   13 1
    18   10   26 1
    19   11   12 2
    20   14   15 1
    21   15   16 1
    22   15   27 1
    23   15   28 1
    24   16   17 1
    25   16   29 1
    26   16   30 1
    27   17   22 1
    28   17   18 1
    29   18   19 1
    30   18   31 1
    31   18   32 1
    32   19   20 1
    33   19   33 1
    34   19   34 1
    35   20   21 1
    36   21   22 1
    37   21   35 1
    38   21   36 1
    39   22   37 1
    40   22   38 1
@<TRIPOS>MOLECULE
ZINC00244550
   32    33     0     0     0
SMALL
USER_CHARGES
2-[4-(2,5-dimethylpyrrol-1-yl)phenyl]sulfanylacetic acid
@<TRIPOS>ATOM
      1 C1         -1.2491    2.2280    0.0203 C.3       1 <0>        -0.0844
      2 C2         -0.0164    1.3611    0.0095 C.2       1 <0>         0.0197
      3 C3          1.2590    1.7998   -0.0003 C.2       1 <0>        -0.1985
      4 C4          2.0959    0.6662   -0.0144 C.2       1 <0>        -0.1985
      5 C5          1.3012   -0.4236   -0.0126 C.2       1 <0>         0.0191
      6 N1          0.0021   -0.0041    0.0020 N.pl3     1 <0>        -0.3924
      7 C6         -1.1271   -0.8379    0.0087 C.ar      1 <0>         0.0857
      8 C7         -1.9732   -0.8513    1.1095 C.ar      1 <0>        -0.0844
      9 C8         -3.0864   -1.6674    1.1147 C.ar      1 <0>        -0.1305
     10 C9         -3.3541   -2.4838    0.0226 C.ar      1 <0>        -0.0804
     11 C10        -2.5040   -2.4738   -1.0766 C.ar      1 <0>        -0.0972
     12 C11        -1.3943   -1.6530   -1.0829 C.ar      1 <0>        -0.0881
     13 S1         -4.7706   -3.5317    0.0317 S.3       1 <0>        -0.0470
     14 C12        -5.5496   -3.2027    1.6366 C.3       1 <0>        -0.1522
     15 C13        -6.7903   -4.0467    1.7752 C.2       1 <0>         0.4809
     16 O1         -7.1157   -4.7935    0.8829 O.co2     1 <0>        -0.6142
     17 C14         1.7668   -1.8568   -0.0252 C.3       1 <0>        -0.0840
     18 H1         -1.5411    2.4314    1.0506 H         1 <0>         0.0688
     19 H2         -1.0368    3.1677   -0.4894 H         1 <0>         0.0774
     20 H3         -2.0608    1.7118   -0.4923 H         1 <0>         0.0640
     21 H4          1.5800    2.8310    0.0022 H         1 <0>         0.1345
     22 H5          3.1759    0.6695   -0.0247 H         1 <0>         0.1345
     23 H6         -1.7624   -0.2202    1.9602 H         1 <0>         0.1263
     24 H7         -3.7467   -1.6747    1.9693 H         1 <0>         0.1331
     25 H8         -2.7117   -3.1079   -1.9259 H         1 <0>         0.1356
     26 H9         -0.7335   -1.6451   -1.9371 H         1 <0>         0.1280
     27 H10        -4.8514   -3.4489    2.4366 H         1 <0>         0.0918
     28 H11        -5.8184   -2.1483    1.7006 H         1 <0>         0.0919
     29 H12         1.8694   -2.1965   -1.0559 H         1 <0>         0.0687
     30 H13         2.7303   -1.9302    0.4791 H         1 <0>         0.0771
     31 H14         1.0376   -2.4803    0.4919 H         1 <0>         0.0641
     32 O2         -7.5340   -3.9687    2.8899 O.co2     1 <0>        -0.7496
@<TRIPOS>BOND
     1    1    2 1
     2    1   18 1
     3    1   19 1
     4    1   20 1
     5    2    6 1
     6    2    3 2
     7    3    4 1
     8    3   21 1
     9    4    5 2
    10    4   22 1
    11    5    6 1
    12    5   17 1
    13    6    7 1
    14    7   12 ar
    15    7    8 ar
    16    8    9 ar
    17    8   23 1
    18    9   10 ar
    19    9   24 1
    20   10   11 ar
    21   10   13 1
    22   11   12 ar
    23   11   25 1
    24   12   26 1
    25   13   14 1
    26   14   15 1
    27   14   27 1
    28   14   28 1
    29   15   16 2
    30   15   32 1
    31   17   29 1
    32   17   30 1
    33   17   31 1
@<TRIPOS>MOLECULE
ZINC15723528
   51    55     0     0     0
SMALL
USER_CHARGES
(E)-N-[4-(1,3-benzoxazol-2-yl)phenyl]-3-[5-(2-nitrophenyl)-2-furyl]prop-2-enamide
@<TRIPOS>ATOM
      1 C1         -1.2327    8.8521    0.9462 C.ar      1 <0>        -0.0644
      2 C2         -2.1266    8.9245   -0.1080 C.ar      1 <0>        -0.1075
      3 C3         -2.1837    7.9092   -1.0462 C.ar      1 <0>        -0.0523
      4 C4         -1.3447    6.8194   -0.9398 C.ar      1 <0>        -0.0330
      5 C5         -0.4441    6.7369    0.1246 C.ar      1 <0>         0.0428
      6 C6         -0.3920    7.7659    1.0683 C.ar      1 <0>        -0.0928
      7 C7          0.4526    5.5709    0.2486 C.2       1 <0>         0.0240
      8 C8          1.8047    5.6233    0.4388 C.2       1 <0>        -0.1706
      9 C9          2.2631    4.3049    0.5004 C.2       1 <0>        -0.1572
     10 C10         1.1568    3.4907    0.3432 C.2       1 <0>         0.0131
     11 O1          0.0746    4.2820    0.1868 O.3       1 <0>        -0.1295
     12 C11         1.1595    2.0770    0.3406 C.2       1 <0>         0.0272
     13 C12        -0.0039    1.3960    0.1757 C.2       1 <0>        -0.2123
     14 C13        -0.0013   -0.0180    0.1731 C.2       1 <0>         0.5545
     15 O2          1.0445   -0.6253    0.3188 O.2       1 <0>        -0.5202
     16 N1         -1.1558   -0.6938    0.0094 N.am      1 <0>        -0.6704
     17 C14        -1.1403   -2.0841   -0.1035 C.ar      1 <0>         0.1787
     18 C15        -0.0719   -2.7176   -0.7298 C.ar      1 <0>        -0.1250
     19 C16        -0.0508   -4.0905   -0.8378 C.ar      1 <0>        -0.0391
     20 C17        -1.1091   -4.8461   -0.3275 C.ar      1 <0>        -0.0536
     21 C18        -2.1833   -4.2064    0.2958 C.ar      1 <0>        -0.0579
     22 C19        -2.1959   -2.8336    0.4053 C.ar      1 <0>        -0.1502
     23 C20        -1.0922   -6.3179   -0.4461 C.2       1 <0>         0.3008
     24 N2         -0.1374   -7.0149   -1.0097 N.2       1 <0>        -0.4721
     25 C21        -0.4571   -8.3326   -0.9359 C.ar      1 <0>         0.0267
     26 C22         0.1749   -9.5037   -1.3611 C.ar      1 <0>        -0.0622
     27 C23        -0.4212  -10.7233   -1.1314 C.ar      1 <0>        -0.1179
     28 C24        -1.6443  -10.7960   -0.4810 C.ar      1 <0>        -0.0934
     29 C25        -2.2802   -9.6479   -0.0555 C.ar      1 <0>        -0.0922
     30 C26        -1.6952   -8.4111   -0.2779 C.ar      1 <0>         0.0074
     31 O3         -2.0535   -7.1408    0.0144 O.3       1 <0>        -0.2096
     32 N3         -1.4026    5.7373   -1.9481 N.pl3     1 <0>         0.0245
     33 O4         -2.1885    5.8107   -2.8757 O.2       1 <0>        -0.1590
     34 O5         -0.6644    4.7735   -1.8501 O.3       1 <0>        -0.1371
     35 H1         -1.1933    9.6484    1.6747 H         1 <0>         0.1522
     36 H2         -2.7830    9.7774   -0.1985 H         1 <0>         0.1534
     37 H3         -2.8839    7.9720   -1.8660 H         1 <0>         0.1595
     38 H4          0.3048    7.7105    1.8916 H         1 <0>         0.1546
     39 H5          2.4061    6.5161    0.5255 H         1 <0>         0.1587
     40 H6          3.2843    3.9838    0.6436 H         1 <0>         0.1643
     41 H7          2.0867    1.5385    0.4698 H         1 <0>         0.1660
     42 H8         -0.9305    1.9345    0.0420 H         1 <0>         0.1352
     43 H9         -1.9976   -0.2134   -0.0299 H         1 <0>         0.4159
     44 H10         0.7439   -2.1326   -1.1281 H         1 <0>         0.1465
     45 H11         0.7811   -4.5821   -1.3202 H         1 <0>         0.1445
     46 H12        -3.0032   -4.7878    0.6911 H         1 <0>         0.1375
     47 H13        -3.0260   -2.3385    0.8871 H         1 <0>         0.1366
     48 H14         1.1274   -9.4526   -1.8676 H         1 <0>         0.1376
     49 H15         0.0667  -11.6293   -1.4594 H         1 <0>         0.1390
     50 H16        -2.1023  -11.7584   -0.3068 H         1 <0>         0.1419
     51 H17        -3.2321   -9.7128    0.4505 H         1 <0>         0.1363
@<TRIPOS>BOND
     1    1    6 ar
     2    1    2 ar
     3    1   35 1
     4    2    3 ar
     5    2   36 1
     6    3    4 ar
     7    3   37 1
     8    4    5 ar
     9    4   32 1
    10    5    6 ar
    11    5    7 1
    12    6   38 1
    13    7   11 1
    14    7    8 2
    15    8    9 1
    16    8   39 1
    17    9   10 2
    18    9   40 1
    19   10   11 1
    20   10   12 1
    21   12   13 2
    22   12   41 1
    23   13   14 1
    24   13   42 1
    25   14   15 2
    26   14   16 am
    27   16   17 1
    28   16   43 1
    29   17   22 ar
    30   17   18 ar
    31   18   19 ar
    32   18   44 1
    33   19   20 ar
    34   19   45 1
    35   20   21 ar
    36   20   23 1
    37   21   22 ar
    38   21   46 1
    39   22   47 1
    40   23   31 1
    41   23   24 2
    42   24   25 1
    43   25   30 ar
    44   25   26 ar
    45   26   27 ar
    46   26   48 1
    47   27   28 ar
    48   27   49 1
    49   28   29 ar
    50   28   50 1
    51   29   30 ar
    52   29   51 1
    53   30   31 1
    54   32   33 2
    55   32   34 1
@<TRIPOS>MOLECULE
ZINC49670025
   65    69     0     0     0
SMALL
USER_CHARGES

@<TRIPOS>ATOM
      1 C1         -0.0167    1.3786    0.0096 C.ar      1 <0>        -0.1199
      2 C2          1.1696    2.0892    0.0021 C.ar      1 <0>        -0.0967
      3 C3          2.3774    1.4195   -0.0135 C.ar      1 <0>        -0.1113
      4 C4          2.3996    0.0309   -0.0212 C.ar      1 <0>         0.1415
      5 C5          1.2065   -0.6797   -0.0132 C.ar      1 <0>        -0.1334
      6 C6          0.0021   -0.0041    0.0020 C.ar      1 <0>        -0.0894
      7 N1          3.6227   -0.6513   -0.0375 N.pl3     1 <0>        -0.2987
      8 C7          3.7640   -1.9904   -0.0515 C.2       1 <0>         0.1104
      9 C8          5.1174   -2.2722   -0.0658 C.2       1 <0>        -0.2198
     10 C9          5.8091   -0.9776   -0.0594 C.2       1 <0>         0.1507
     11 N2          4.8823   -0.0457   -0.0477 N.2       1 <0>        -0.2575
     12 C10         7.2754   -0.7619   -0.0698 C.ar      1 <0>         0.0356
     13 C11         8.1178   -1.6471    0.6015 C.ar      1 <0>        -0.1154
     14 C12         9.4822   -1.4412    0.5882 C.ar      1 <0>        -0.0143
     15 C13        10.0146   -0.3589   -0.0894 C.ar      1 <0>        -0.6674
     16 C14         9.1837    0.5228   -0.7572 C.ar      1 <0>        -0.0182
     17 C15         7.8182    0.3238   -0.7558 C.ar      1 <0>        -0.1054
     18 S1         11.7577   -0.1022   -0.1013 S.o2      1 <0>         2.6894
     19 O1         11.9626    1.2824   -0.3466 O.2       1 <0>        -0.9535
     20 O2         12.2724   -0.7561    1.0505 O.2       1 <0>        -0.9500
     21 N3         12.3626   -0.9100   -1.4142 N.pl3     1 <0>        -0.9947
     22 C16        12.7877   -2.3118   -1.3000 C.3       1 <0>         0.1182
     23 C17        12.0705   -3.1337   -2.3756 C.3       1 <0>        -0.1388
     24 C18        12.3302   -2.5080   -3.7478 C.3       1 <0>        -0.1179
     25 C19        11.7707   -1.0838   -3.7751 C.3       1 <0>        -0.1375
     26 C20        12.4788   -0.2405   -2.7169 C.3       1 <0>         0.1196
     27 C21         5.7387   -3.6008   -0.0835 C.2       1 <0>         0.1168
     28 C22         4.9605   -4.7146   -0.0875 C.2       1 <0>        -0.2404
     29 C23         5.3535   -6.1353   -0.0981 C.2       1 <0>         0.5419
     30 O3          6.5227   -6.4747   -0.1044 O.2       1 <0>        -0.4465
     31 N4          4.3732   -7.0228   -0.0999 N.am      1 <0>        -0.5105
     32 C24         3.0792   -6.6426   -0.0925 C.2       1 <0>         0.2845
     33 S2          1.6805   -7.6298   -0.0934 S.2       1 <0>        -0.3147
     34 S3          3.1789   -4.8599   -0.0736 S.3       1 <0>         0.0119
     35 C25         4.7001   -8.4508   -0.1108 C.3       1 <0>         0.1095
     36 C26         4.8198   -8.9576    1.3279 C.3       1 <0>        -0.6924
     37 S4          5.2245  -10.7258    1.3144 S.o2      1 <0>         2.6423
     38 O4          5.3435  -11.2302    2.6736 O.2       1 <0>        -1.0551
     39 O5          4.1566  -11.4192    0.6109 O.2       1 <0>        -1.0509
     40 O6          6.4842  -10.8865    0.6048 O.3       1 <0>        -1.0567
     41 H1         -0.9598    1.9047    0.0260 H         1 <0>         0.1323
     42 H2          1.1517    3.1690    0.0081 H         1 <0>         0.1350
     43 H3          3.3035    1.9750   -0.0201 H         1 <0>         0.1397
     44 H4          1.2205   -1.7596   -0.0195 H         1 <0>         0.1335
     45 H5         -0.9261   -0.5562    0.0079 H         1 <0>         0.1388
     46 H6          2.9630   -2.7148   -0.0511 H         1 <0>         0.1913
     47 H7          7.7033   -2.4922    1.1311 H         1 <0>         0.1418
     48 H8         10.1357   -2.1260    1.1081 H         1 <0>         0.1490
     49 H9          9.6050    1.3661   -1.2842 H         1 <0>         0.1453
     50 H10         7.1708    1.0103   -1.2813 H         1 <0>         0.1396
     51 H11        13.8657   -2.3798   -1.4464 H         1 <0>         0.0775
     52 H12        12.5261   -2.6937   -0.3132 H         1 <0>         0.0924
     53 H13        12.4485   -4.1561   -2.3645 H         1 <0>         0.0792
     54 H14        10.9991   -3.1392   -2.1751 H         1 <0>         0.0691
     55 H15        13.4033   -2.4802   -3.9371 H         1 <0>         0.0650
     56 H16        11.8413   -3.1050   -4.5176 H         1 <0>         0.0660
     57 H17        11.9352   -0.6471   -4.7601 H         1 <0>         0.0760
     58 H18        10.7021   -1.1086   -3.5615 H         1 <0>         0.0674
     59 H19        12.0134    0.7438   -2.6646 H         1 <0>         0.0897
     60 H20        13.5310   -0.1358   -2.9814 H         1 <0>         0.0764
     61 H21         6.8146   -3.6938   -0.0932 H         1 <0>         0.1666
     62 H22         3.9114   -9.0001   -0.6250 H         1 <0>         0.1246
     63 H23         5.6465   -8.6030   -0.6296 H         1 <0>         0.1173
     64 H24         5.6084   -8.4082    1.8421 H         1 <0>         0.1081
     65 H25         3.8734   -8.8054    1.8466 H         1 <0>         0.1127
@<TRIPOS>BOND
     1    1    6 ar
     2    1    2 ar
     3    1   41 1
     4    2    3 ar
     5    2   42 1
     6    3    4 ar
     7    3   43 1
     8    4    5 ar
     9    4    7 1
    10    5    6 ar
    11    5   44 1
    12    6   45 1
    13    7   11 1
    14    7    8 1
    15    8    9 2
    16    8   46 1
    17    9   10 1
    18    9   27 1
    19   10   11 2
    20   10   12 1
    21   12   17 ar
    22   12   13 ar
    23   13   14 ar
    24   13   47 1
    25   14   15 ar
    26   14   48 1
    27   15   16 ar
    28   15   18 1
    29   16   17 ar
    30   16   49 1
    31   17   50 1
    32   18   19 2
    33   18   20 2
    34   18   21 1
    35   21   26 1
    36   21   22 1
    37   22   23 1
    38   22   51 1
    39   22   52 1
    40   23   24 1
    41   23   53 1
    42   23   54 1
    43   24   25 1
    44   24   55 1
    45   24   56 1
    46   25   26 1
    47   25   57 1
    48   25   58 1
    49   26   59 1
    50   26   60 1
    51   27   28 2
    52   27   61 1
    53   28   34 1
    54   28   29 1
    55   29   30 2
    56   29   31 am
    57   31   32 1
    58   31   35 1
    59   32   33 2
    60   32   34 1
    61   35   36 1
    62   35   62 1
    63   35   63 1
    64   36   37 1
    65   36   64 1
    66   36   65 1
    67   37   38 2
    68   37   39 2
    69   37   40 1
@<TRIPOS>MOLECULE
ZINC26688210
   50    53     0     0     0
SMALL
USER_CHARGES
2-[(5Z)-4-oxo-5-[[1-phenyl-3-(p-tolyl)pyrazol-4-yl]methylene]-2-thioxo-thiazolidin-3-yl]ethanesulfonic acid
@<TRIPOS>ATOM
      1 C1          3.0358   -5.8921   -0.0577 C.3       1 <0>        -0.1217
      2 C2          2.5681   -4.4596   -0.0460 C.ar      1 <0>        -0.0683
      3 C3          1.4268   -4.1133    0.6549 C.ar      1 <0>        -0.1213
      4 C4          0.9938   -2.8031    0.6697 C.ar      1 <0>        -0.0785
      5 C5          1.7092   -1.8276   -0.0236 C.ar      1 <0>        -0.0338
      6 C6          2.8558   -2.1836   -0.7326 C.ar      1 <0>        -0.0884
      7 C7          3.2819   -3.4961   -0.7357 C.ar      1 <0>        -0.1176
      8 C8          1.2492   -0.4187   -0.0121 C.2       1 <0>         0.1699
      9 C9          2.1002    0.7772   -0.0138 C.2       1 <0>        -0.2262
     10 C10         1.2450    1.8634    0.0002 C.2       1 <0>         0.1101
     11 N1         -0.0169    1.3934    0.0097 N.pl3     1 <0>        -0.3030
     12 N2          0.0021   -0.0041    0.0020 N.2       1 <0>        -0.2689
     13 C11        -1.1726    2.1846    0.0197 C.ar      1 <0>         0.1453
     14 C12        -1.0678    3.5693    0.0320 C.ar      1 <0>        -0.1355
     15 C13        -2.2093    4.3468    0.0370 C.ar      1 <0>        -0.0894
     16 C14        -3.4556    3.7476    0.0404 C.ar      1 <0>        -0.1223
     17 C15        -3.5633    2.3690    0.0335 C.ar      1 <0>        -0.0969
     18 C16        -2.4257    1.5860    0.0232 C.ar      1 <0>        -0.1127
     19 C17         3.5665    0.8128   -0.0284 C.2       1 <0>         0.1230
     20 C18         4.2171    2.0056   -0.0281 C.2       1 <0>        -0.2482
     21 C19         5.6641    2.2866   -0.0350 C.2       1 <0>         0.5428
     22 O1          6.4888    1.3910   -0.0422 O.2       1 <0>        -0.4491
     23 N3          6.0220    3.5596   -0.0377 N.am      1 <0>        -0.5097
     24 C20         5.1053    4.5488   -0.0222 C.2       1 <0>         0.2851
     25 S1          5.3662    6.2407   -0.0145 S.2       1 <0>        -0.3222
     26 S2          3.5535    3.6654   -0.0113 S.3       1 <0>         0.0148
     27 C21         7.4461    3.9031   -0.0505 C.3       1 <0>         0.0976
     28 C22         7.9571    4.0135    1.3874 C.3       1 <0>        -0.6900
     29 S3          9.7204    4.4389    1.3715 S.o2      1 <0>         2.6412
     30 O2         10.4803    3.3566    0.8513 O.2       1 <0>        -1.0461
     31 O3          9.9015    5.7570    0.8726 O.2       1 <0>        -1.0403
     32 O4         10.1162    4.5212    2.8389 O.3       1 <0>        -1.0766
     33 H1          2.3475   -6.5074    0.5404 H         1 <0>         0.0668
     34 H2          4.0471   -5.9511    0.3710 H         1 <0>         0.0747
     35 H3          3.0541   -6.2634   -1.0930 H         1 <0>         0.0729
     36 H4          0.8733   -4.8698    1.1913 H         1 <0>         0.1279
     37 H5          0.1029   -2.5337    1.2174 H         1 <0>         0.1283
     38 H6          3.4114   -1.4330   -1.2751 H         1 <0>         0.1305
     39 H7          4.1720   -3.7724   -1.2814 H         1 <0>         0.1315
     40 H8          1.5368    2.9033    0.0027 H         1 <0>         0.1890
     41 H9         -0.0947    4.0378    0.0335 H         1 <0>         0.1330
     42 H10        -2.1285    5.4237    0.0421 H         1 <0>         0.1380
     43 H11        -4.3468    4.3577    0.0489 H         1 <0>         0.1314
     44 H12        -4.5381    1.9041    0.0366 H         1 <0>         0.1341
     45 H13        -2.5105    0.5094    0.0181 H         1 <0>         0.1394
     46 H14         4.1394   -0.1262   -0.0396 H         1 <0>         0.1713
     47 H15         8.0076    3.1193   -0.5800 H         1 <0>         0.1146
     48 H16         7.5866    4.8655   -0.5644 H         1 <0>         0.1220
     49 H17         7.3956    4.7973    1.9169 H         1 <0>         0.1180
     50 H18         7.8167    3.0511    1.9014 H         1 <0>         0.1134
@<TRIPOS>BOND
     1    1    2 1
     2    1   33 1
     3    1   34 1
     4    1   35 1
     5    2    7 ar
     6    2    3 ar
     7    3    4 ar
     8    3   36 1
     9    4    5 ar
    10    4   37 1
    11    5    6 ar
    12    5    8 1
    13    6    7 ar
    14    6   38 1
    15    7   39 1
    16    8   12 2
    17    8    9 1
    18    9   10 2
    19    9   19 1
    20   10   11 1
    21   10   40 1
    22   11   12 1
    23   11   13 1
    24   13   18 ar
    25   13   14 ar
    26   14   15 ar
    27   14   41 1
    28   15   16 ar
    29   15   42 1
    30   16   17 ar
    31   16   43 1
    32   17   18 ar
    33   17   44 1
    34   18   45 1
    35   19   20 2
    36   19   46 1
    37   20   26 1
    38   20   21 1
    39   21   22 2
    40   21   23 am
    41   23   24 1
    42   23   27 1
    43   24   25 2
    44   24   26 1
    45   27   28 1
    46   27   47 1
    47   27   48 1
    48   28   29 1
    49   28   49 1
    50   28   50 1
    51   29   30 2
    52   29   31 2
    53   29   32 1
@<TRIPOS>MOLECULE
ZINC02878869
   35    37     0     0     0
SMALL
USER_CHARGES
5-[(5-iodo-2-furyl)methylene]-1-(4-methoxyphenyl)-2-thioxo-hexahydropyrimidine-4,6-dione
@<TRIPOS>ATOM
      1 C1          6.8046   -0.3665   -1.5622 C.3       1 <0>         0.0236
      2 O1          6.0177   -0.6338   -0.3998 O.3       1 <0>        -0.3117
      3 C2          4.8176   -0.0015   -0.3080 C.ar      1 <0>         0.1536
      4 C3          4.0033   -0.2161    0.7945 C.ar      1 <0>        -0.1393
      5 C4          2.7845    0.4262    0.8884 C.ar      1 <0>        -0.0387
      6 C5          2.3739    1.2864   -0.1210 C.ar      1 <0>         0.0736
      7 C6          3.1865    1.4960   -1.2271 C.ar      1 <0>        -0.0369
      8 C7          4.4080    0.8583   -1.3168 C.ar      1 <0>        -0.1969
      9 N1          1.1361    1.9390   -0.0262 N.am      1 <0>        -0.4668
     10 C8          0.0370    1.3444   -0.5339 C.2       1 <0>         0.5606
     11 O2          0.1078    0.2546   -1.0709 O.2       1 <0>        -0.4504
     12 C9         -1.2502    2.0522   -0.4265 C.2       1 <0>        -0.2786
     13 C10        -2.4242    1.5040   -0.9318 C.2       1 <0>         0.1585
     14 C11        -3.5946    2.2768   -0.9823 C.2       1 <0>        -0.0406
     15 C12        -4.8867    1.8204   -0.7656 C.2       1 <0>        -0.1103
     16 C13        -5.7287    2.9264   -0.9141 C.2       1 <0>        -0.1751
     17 C14        -4.9453    3.9915   -1.2165 C.2       1 <0>         0.0113
     18 O3         -3.6663    3.5977   -1.2565 O.3       1 <0>        -0.1081
     19 I1         -5.6276    5.9414   -1.5649 I         1 <0>         0.0915
     20 C15        -1.2408    3.3642    0.2437 C.2       1 <0>         0.5511
     21 O4         -2.2660    4.0066    0.3742 O.2       1 <0>        -0.4489
     22 N2         -0.0641    3.8367    0.7040 N.am      1 <0>        -0.6153
     23 C16         1.0724    3.1392    0.5674 C.2       1 <0>         0.5290
     24 S1          2.5189    3.8173    1.1829 S.2       1 <0>        -0.4794
     25 H1          7.0303    0.6988   -1.6111 H         1 <0>         0.0597
     26 H2          7.7344   -0.9328   -1.5096 H         1 <0>         0.1039
     27 H3          6.2494   -0.6614   -2.4526 H         1 <0>         0.0585
     28 H4          4.3228   -0.8853    1.5796 H         1 <0>         0.1430
     29 H5          2.1510    0.2596    1.7470 H         1 <0>         0.1330
     30 H6          2.8656    2.1616   -2.0147 H         1 <0>         0.1283
     31 H7          5.0424    1.0252   -2.1746 H         1 <0>         0.1392
     32 H8         -2.4352    0.4836   -1.2854 H         1 <0>         0.1882
     33 H9         -5.1835    0.8098   -0.5268 H         1 <0>         0.1731
     34 H10        -6.8038    2.9311   -0.8108 H         1 <0>         0.1687
     35 H11        -0.0399    4.7007    1.1442 H         1 <0>         0.4486
@<TRIPOS>BOND
     1    1    2 1
     2    1   25 1
     3    1   26 1
     4    1   27 1
     5    2    3 1
     6    3    8 ar
     7    3    4 ar
     8    4    5 ar
     9    4   28 1
    10    5    6 ar
    11    5   29 1
    12    6    7 ar
    13    6    9 1
    14    7    8 ar
    15    7   30 1
    16    8   31 1
    17    9   23 1
    18    9   10 am
    19   10   11 2
    20   10   12 1
    21   12   13 2
    22   12   20 1
    23   13   14 1
    24   13   32 1
    25   14   18 1
    26   14   15 2
    27   15   16 1
    28   15   33 1
    29   16   17 2
    30   16   34 1
    31   17   18 1
    32   17   19 1
    33   20   21 2
    34   20   22 am
    35   22   23 1
    36   22   35 1
    37   23   24 2
@<TRIPOS>MOLECULE
ZINC49670134
   61    65     0     0     0
SMALL
USER_CHARGES

@<TRIPOS>ATOM
      1 C1         -0.0167    1.3786    0.0096 C.ar      1 <0>        -0.1226
      2 C2          1.1696    2.0892    0.0021 C.ar      1 <0>        -0.0970
      3 C3          2.3774    1.4195   -0.0134 C.ar      1 <0>        -0.1129
      4 C4          2.3996    0.0310   -0.0211 C.ar      1 <0>         0.1459
      5 C5          1.2065   -0.6797   -0.0130 C.ar      1 <0>        -0.1357
      6 C6          0.0021   -0.0041    0.0020 C.ar      1 <0>        -0.0893
      7 N1          3.6227   -0.6513   -0.0373 N.pl3     1 <0>        -0.3031
      8 C7          3.7638   -1.9902   -0.0512 C.2       1 <0>         0.1105
      9 C8          5.1174   -2.2722   -0.0646 C.2       1 <0>        -0.2275
     10 C9          5.8092   -0.9775   -0.0577 C.2       1 <0>         0.1746
     11 N2          4.8822   -0.0456   -0.0475 N.2       1 <0>        -0.2714
     12 C10         7.2752   -0.7618   -0.0668 C.ar      1 <0>        -0.0650
     13 C11         8.1161   -1.6479    0.6061 C.ar      1 <0>        -0.0516
     14 C12         9.4798   -1.4442    0.5957 C.ar      1 <0>        -0.1451
     15 C13        10.0160   -0.3585   -0.0837 C.ar      1 <0>         0.1471
     16 C14         9.1816    0.5258   -0.7542 C.ar      1 <0>        -0.2104
     17 C15         7.8175    0.3245   -0.7530 C.ar      1 <0>        -0.0400
     18 O1         11.3602   -0.1607   -0.0920 O.3       1 <0>        -0.3043
     19 C16        11.8443    0.9758   -0.8103 C.3       1 <0>         0.0995
     20 C17        13.3468    1.0317   -0.7086 C.ar      1 <0>        -0.0938
     21 C18        13.9439    1.7181    0.3323 C.ar      1 <0>        -0.0811
     22 C19        15.3219    1.7697    0.4260 C.ar      1 <0>        -0.1138
     23 C20        16.1037    1.1342   -0.5221 C.ar      1 <0>        -0.0243
     24 C21        15.5057    0.4474   -1.5636 C.ar      1 <0>        -0.1131
     25 C22        14.1275    0.3918   -1.6532 C.ar      1 <0>        -0.0803
     26 Cl1        17.8346    1.1990   -0.4053 Cl        1 <0>        -0.0661
     27 C23         5.7385   -3.6007   -0.0818 C.2       1 <0>         0.1240
     28 C24         4.9602   -4.7145   -0.0864 C.2       1 <0>        -0.2466
     29 C25         5.3531   -6.1350   -0.0967 C.2       1 <0>         0.5419
     30 O2          6.5223   -6.4745   -0.1026 O.2       1 <0>        -0.4479
     31 N3          4.3728   -7.0226   -0.0987 N.am      1 <0>        -0.5105
     32 C26         3.0788   -6.6424   -0.0921 C.2       1 <0>         0.2857
     33 S1          1.6801   -7.6296   -0.0934 S.2       1 <0>        -0.3220
     34 S2          3.1785   -4.8597   -0.0736 S.3       1 <0>         0.0132
     35 C27         4.6997   -8.4506   -0.1088 C.3       1 <0>         0.1077
     36 C28         4.8186   -8.9568    1.3302 C.3       1 <0>        -0.6916
     37 S3          5.2234  -10.7250    1.3177 S.o2      1 <0>         2.6424
     38 O3          5.3320  -11.1867    2.6928 O.2       1 <0>        -1.0578
     39 O4          4.1610  -11.4402    0.6278 O.2       1 <0>        -1.0502
     40 O5          6.4883  -10.9075    0.6228 O.3       1 <0>        -1.0560
     41 H1         -0.9598    1.9047    0.0260 H         1 <0>         0.1312
     42 H2          1.1517    3.1691    0.0080 H         1 <0>         0.1338
     43 H3          3.3035    1.9750   -0.0200 H         1 <0>         0.1393
     44 H4          1.2205   -1.7596   -0.0193 H         1 <0>         0.1331
     45 H5         -0.9261   -0.5562    0.0079 H         1 <0>         0.1378
     46 H6          2.9628   -2.7146   -0.0515 H         1 <0>         0.1888
     47 H7          7.6996   -2.4924    1.1350 H         1 <0>         0.1383
     48 H8         10.1315   -2.1298    1.1168 H         1 <0>         0.1414
     49 H9          9.6018    1.3697   -1.2811 H         1 <0>         0.1338
     50 H10         7.1694    1.0098   -1.2791 H         1 <0>         0.1321
     51 H11        11.5538    0.8944   -1.8577 H         1 <0>         0.0768
     52 H12        11.4173    1.8837   -0.3843 H         1 <0>         0.0762
     53 H13        13.3334    2.2144    1.0721 H         1 <0>         0.1353
     54 H14        15.7882    2.3062    1.2391 H         1 <0>         0.1372
     55 H15        16.1155   -0.0486   -2.3042 H         1 <0>         0.1378
     56 H16        13.6605   -0.1483   -2.4635 H         1 <0>         0.1362
     57 H17         6.8145   -3.6937   -0.0909 H         1 <0>         0.1668
     58 H18         3.9114   -9.0002   -0.6232 H         1 <0>         0.1238
     59 H19         5.6465   -8.6030   -0.6270 H         1 <0>         0.1165
     60 H20         5.6070   -8.4072    1.8446 H         1 <0>         0.1090
     61 H21         3.8719   -8.8044    1.8484 H         1 <0>         0.1136
@<TRIPOS>BOND
     1    1    6 ar
     2    1    2 ar
     3    1   41 1
     4    2    3 ar
     5    2   42 1
     6    3    4 ar
     7    3   43 1
     8    4    5 ar
     9    4    7 1
    10    5    6 ar
    11    5   44 1
    12    6   45 1
    13    7   11 1
    14    7    8 1
    15    8    9 2
    16    8   46 1
    17    9   10 1
    18    9   27 1
    19   10   11 2
    20   10   12 1
    21   12   17 ar
    22   12   13 ar
    23   13   14 ar
    24   13   47 1
    25   14   15 ar
    26   14   48 1
    27   15   16 ar
    28   15   18 1
    29   16   17 ar
    30   16   49 1
    31   17   50 1
    32   18   19 1
    33   19   20 1
    34   19   51 1
    35   19   52 1
    36   20   25 ar
    37   20   21 ar
    38   21   22 ar
    39   21   53 1
    40   22   23 ar
    41   22   54 1
    42   23   24 ar
    43   23   26 1
    44   24   25 ar
    45   24   55 1
    46   25   56 1
    47   27   28 2
    48   27   57 1
    49   28   34 1
    50   28   29 1
    51   29   30 2
    52   29   31 am
    53   31   32 1
    54   31   35 1
    55   32   33 2
    56   32   34 1
    57   35   36 1
    58   35   58 1
    59   35   59 1
    60   36   37 1
    61   36   60 1
    62   36   61 1
    63   37   38 2
    64   37   39 2
    65   37   40 1
@<TRIPOS>MOLECULE
ZINC16713007
   30    32     0     0     0
SMALL
USER_CHARGES
(5Z)-5-[[5-(4-nitrophenyl)-2-furyl]methylene]-4-thioxo-thiazolidin-2-one
@<TRIPOS>ATOM
      1 C1         -3.7025    1.9835    0.0308 C.ar      1 <0>        -0.0956
      2 C2         -2.4959    1.3212    0.0211 C.ar      1 <0>        -0.0441
      3 C3         -1.3076    2.0354    0.0193 C.ar      1 <0>         0.0038
      4 C4         -1.3208    3.4217    0.0326 C.ar      1 <0>        -0.0447
      5 C5         -2.5167    4.1033    0.0363 C.ar      1 <0>        -0.0898
      6 C6         -3.7271    3.3888    0.0386 C.ar      1 <0>         0.0243
      7 C7         -5.0045    4.1033    0.0495 C.2       1 <0>         0.0626
      8 C8         -5.1517    5.5050    0.0579 C.2       1 <0>        -0.1716
      9 C9         -6.4846    5.7786    0.0668 C.2       1 <0>        -0.0865
     10 C10        -7.1706    4.4814    0.0635 C.2       1 <0>        -0.0532
     11 O1         -6.2160    3.5239    0.0472 O.3       1 <0>        -0.1218
     12 C11        -8.5379    4.2765    0.0706 C.2       1 <0>         0.1339
     13 C12        -9.0541    2.9646    0.0662 C.2       1 <0>        -0.2248
     14 C13       -10.4652    2.5133    0.0783 C.2       1 <0>         0.3322
     15 S1        -11.7674    3.6245    0.1016 S.2       1 <0>        -0.4272
     16 N1        -10.6652    1.2049    0.0656 N.am      1 <0>        -0.6245
     17 C14        -9.6151    0.3593    0.0550 C.2       1 <0>         0.5212
     18 O2         -9.6269   -0.8559    0.0483 O.2       1 <0>        -0.4012
     19 S2         -8.2043    1.4508    0.0531 S.3       1 <0>         0.0203
     20 N2         -0.0158    1.3128    0.0093 N.pl3     1 <0>        -0.0254
     21 O3          0.0021   -0.0041    0.0020 O.2       1 <0>        -0.1603
     22 O4          1.1157    1.9867    0.0021 O.3       1 <0>        -0.1601
     23 H1         -4.6271    1.4253    0.0322 H         1 <0>         0.1577
     24 H2         -2.4748    0.2414    0.0151 H         1 <0>         0.1645
     25 H3         -0.3896    3.9688    0.0356 H         1 <0>         0.1662
     26 H4         -2.5249    5.1832    0.0421 H         1 <0>         0.1597
     27 H5         -4.3516    6.2305    0.0574 H         1 <0>         0.1736
     28 H6         -6.9456    6.7553    0.0749 H         1 <0>         0.1803
     29 H7         -9.2105    5.1215    0.0795 H         1 <0>         0.1967
     30 H8        -11.5694    0.8536    0.0690 H         1 <0>         0.4338
@<TRIPOS>BOND
     1    1    6 ar
     2    1    2 ar
     3    1   23 1
     4    2    3 ar
     5    2   24 1
     6    3    4 ar
     7    3   20 1
     8    4    5 ar
     9    4   25 1
    10    5    6 ar
    11    5   26 1
    12    6    7 1
    13    7   11 1
    14    7    8 2
    15    8    9 1
    16    8   27 1
    17    9   10 2
    18    9   28 1
    19   10   11 1
    20   10   12 1
    21   12   13 2
    22   12   29 1
    23   13   19 1
    24   13   14 1
    25   14   15 2
    26   14   16 1
    27   16   17 am
    28   16   30 1
    29   17   18 2
    30   17   19 1
    31   20   21 2
    32   20   22 1
@<TRIPOS>MOLECULE
ZINC49670037
   61    65     0     0     0
SMALL
USER_CHARGES

@<TRIPOS>ATOM
      1 C1         -0.0167    1.3781    0.0096 C.ar      1 <0>        -0.1090
      2 C2          1.1709    2.0855    0.0021 C.ar      1 <0>        -0.1229
      3 C3          2.3773    1.4107   -0.0130 C.ar      1 <0>        -0.0941
      4 C4          2.3960    0.0285   -0.0201 C.ar      1 <0>        -0.0987
      5 C5          1.2084   -0.6789   -0.0117 C.ar      1 <0>        -0.0949
      6 C6          0.0021   -0.0041    0.0020 C.ar      1 <0>        -0.1237
      7 C7          3.7112   -0.7071   -0.0376 C.3       1 <0>         0.1004
      8 O1          4.1410   -0.9464    1.3041 O.3       1 <0>        -0.3043
      9 C8          5.3183   -1.6048    1.4665 C.ar      1 <0>         0.1480
     10 C9          6.0465   -2.0064    0.3546 C.ar      1 <0>        -0.2110
     11 C10         7.2419   -2.6744    0.5158 C.ar      1 <0>        -0.0397
     12 C11         7.7194   -2.9465    1.7976 C.ar      1 <0>        -0.0666
     13 C12         6.9855   -2.5417    2.9124 C.ar      1 <0>        -0.0514
     14 C13         5.7935   -1.8695    2.7440 C.ar      1 <0>        -0.1461
     15 C14         9.0034   -3.6646    1.9748 C.2       1 <0>         0.1755
     16 C15         9.9846   -3.4473    3.0448 C.2       1 <0>        -0.2276
     17 C16        11.0186   -4.3350    2.8108 C.2       1 <0>         0.1104
     18 N1         10.7144   -5.0382    1.7036 N.pl3     1 <0>        -0.3034
     19 N2          9.4766   -4.6206    1.2067 N.2       1 <0>        -0.2717
     20 C17        11.5142   -6.0396    1.1387 C.ar      1 <0>         0.1462
     21 C18        12.7248   -6.3787    1.7287 C.ar      1 <0>        -0.1358
     22 C19        13.5113   -7.3666    1.1693 C.ar      1 <0>        -0.0894
     23 C20        13.0944   -8.0178    0.0228 C.ar      1 <0>        -0.1228
     24 C21        11.8895   -7.6825   -0.5671 C.ar      1 <0>        -0.0970
     25 C22        11.0957   -6.6995   -0.0093 C.ar      1 <0>        -0.1129
     26 C23         9.8874   -2.4808    4.1436 C.2       1 <0>         0.1244
     27 C24        10.8834   -2.3962    5.0641 C.2       1 <0>        -0.2470
     28 C25        11.0017   -1.5185    6.2422 C.2       1 <0>         0.5414
     29 O2         10.1359   -0.7113    6.5271 O.2       1 <0>        -0.4461
     30 N3         12.0946   -1.6515    6.9748 N.am      1 <0>        -0.5104
     31 C26        13.0514   -2.5469    6.6558 C.2       1 <0>         0.2868
     32 S1         14.5236   -2.8658    7.4694 S.2       1 <0>        -0.3261
     33 S2         12.4066   -3.3242    5.1833 S.3       1 <0>         0.0137
     34 C27        12.2701   -0.8070    8.1590 C.3       1 <0>         0.1095
     35 C28        11.6688   -1.5078    9.3788 C.3       1 <0>        -0.6916
     36 S3         11.8861   -0.4622   10.8451 S.o2      1 <0>         2.6426
     37 O3         11.3210   -1.1094   12.0189 O.2       1 <0>        -1.0556
     38 O4         13.2958   -0.1738   11.0590 O.2       1 <0>        -1.0484
     39 O5         11.1603    0.7623   10.5453 O.3       1 <0>        -1.0598
     40 H1         -0.9591    1.9053    0.0259 H         1 <0>         0.1244
     41 H2          1.1563    3.1654    0.0076 H         1 <0>         0.1260
     42 H3          3.3051    1.9634   -0.0196 H         1 <0>         0.1253
     43 H4          1.2231   -1.7588   -0.0176 H         1 <0>         0.1244
     44 H5         -0.9258   -0.5567    0.0082 H         1 <0>         0.1254
     45 H6          3.5884   -1.6586   -0.5549 H         1 <0>         0.0734
     46 H7          4.4573   -0.1052   -0.5563 H         1 <0>         0.0740
     47 H8          5.6760   -1.7957   -0.6377 H         1 <0>         0.1336
     48 H9          7.8076   -2.9868   -0.3495 H         1 <0>         0.1318
     49 H10         7.3525   -2.7509    3.9063 H         1 <0>         0.1381
     50 H11         5.2269   -1.5518    3.6068 H         1 <0>         0.1411
     51 H12        11.9109   -4.4447    3.4092 H         1 <0>         0.1887
     52 H13        13.0511   -5.8702    2.6239 H         1 <0>         0.1331
     53 H14        14.4530   -7.6305    1.6274 H         1 <0>         0.1377
     54 H15        13.7114   -8.7897   -0.4130 H         1 <0>         0.1311
     55 H16        11.5667   -8.1930   -1.4625 H         1 <0>         0.1338
     56 H17        10.1526   -6.4414   -0.4678 H         1 <0>         0.1393
     57 H18         9.0242   -1.8364    4.2212 H         1 <0>         0.1669
     58 H19        13.3329   -0.6332    8.3270 H         1 <0>         0.1224
     59 H20        11.7662    0.1469    8.0029 H         1 <0>         0.1188
     60 H21        10.6059   -1.6816    9.2108 H         1 <0>         0.1105
     61 H22        12.1726   -2.4617    9.5349 H         1 <0>         0.1098
@<TRIPOS>BOND
     1    1    6 ar
     2    1    2 ar
     3    1   40 1
     4    2    3 ar
     5    2   41 1
     6    3    4 ar
     7    3   42 1
     8    4    5 ar
     9    4    7 1
    10    5    6 ar
    11    5   43 1
    12    6   44 1
    13    7    8 1
    14    7   45 1
    15    7   46 1
    16    8    9 1
    17    9   14 ar
    18    9   10 ar
    19   10   11 ar
    20   10   47 1
    21   11   12 ar
    22   11   48 1
    23   12   13 ar
    24   12   15 1
    25   13   14 ar
    26   13   49 1
    27   14   50 1
    28   15   19 2
    29   15   16 1
    30   16   17 2
    31   16   26 1
    32   17   18 1
    33   17   51 1
    34   18   19 1
    35   18   20 1
    36   20   25 ar
    37   20   21 ar
    38   21   22 ar
    39   21   52 1
    40   22   23 ar
    41   22   53 1
    42   23   24 ar
    43   23   54 1
    44   24   25 ar
    45   24   55 1
    46   25   56 1
    47   26   27 2
    48   26   57 1
    49   27   33 1
    50   27   28 1
    51   28   29 2
    52   28   30 am
    53   30   31 1
    54   30   34 1
    55   31   32 2
    56   31   33 1
    57   34   35 1
    58   34   58 1
    59   34   59 1
    60   35   36 1
    61   35   60 1
    62   35   61 1
    63   36   37 2
    64   36   38 2
    65   36   39 1
@<TRIPOS>MOLECULE
ZINC15659379
   31    33     0     0     0
SMALL
USER_CHARGES
1-(3-chlorophenyl)-5-(1H-pyrrol-2-ylmethylene)-2-thioxo-hexahydropyrimidine-4,6-dione
@<TRIPOS>ATOM
      1 C1         -5.4419    1.3672    0.2988 C.ar      1 <0>        -0.0980
      2 C2         -4.0659    1.2528    0.3416 C.ar      1 <0>        -0.0771
      3 C3         -3.2775    2.0611   -0.4663 C.ar      1 <0>         0.1748
      4 C4         -3.8746    2.9869   -1.3115 C.ar      1 <0>        -0.0905
      5 C5         -5.2520    3.0931   -1.3544 C.ar      1 <0>        -0.0241
      6 C6         -6.0348    2.2859   -0.5472 C.ar      1 <0>        -0.1082
      7 Cl1        -6.0005    4.2451   -2.4157 Cl        1 <0>        -0.0758
      8 N1         -1.8818    1.9468   -0.4246 N.am      1 <0>        -0.5065
      9 C7         -1.1707    2.8228    0.3147 C.2       1 <0>         0.5594
     10 O1         -1.7254    3.7053    0.9426 O.2       1 <0>        -0.5214
     11 C8          0.2954    2.6821    0.3419 C.2       1 <0>        -0.3660
     12 C9          1.0934    3.5471    1.0814 C.2       1 <0>         0.1429
     13 C10         0.6936    4.8802    1.2740 C.2       1 <0>        -0.0386
     14 C11         1.3001    5.8094    2.1113 C.2       1 <0>        -0.1152
     15 C12         0.5790    6.9959    1.9897 C.2       1 <0>        -0.2300
     16 C13        -0.4350    6.7819    1.1115 C.2       1 <0>         0.0554
     17 N2         -0.3775    5.5079    0.6716 N.pl3     1 <0>        -0.5091
     18 H1         -1.0116    4.9549   -0.0370 H         1 <0>         0.4457
     19 C14         0.8790    1.5840   -0.4486 C.2       1 <0>         0.5387
     20 O2          2.0822    1.4042   -0.4752 O.3       1 <0>        -0.5242
     21 N3          0.0435    0.7832   -1.1416 N.2       1 <0>        -0.6177
     22 C15        -1.2833    0.9732   -1.1251 C.2       1 <0>         0.5376
     23 S1         -2.2658   -0.0880   -2.0413 S.2       1 <0>        -0.6853
     24 H2         -6.0552    0.7385    0.9272 H         1 <0>         0.1356
     25 H3         -3.6037    0.5353    1.0034 H         1 <0>         0.1270
     26 H4         -3.2637    3.6203   -1.9375 H         1 <0>         0.1267
     27 H5         -7.1107    2.3737   -0.5785 H         1 <0>         0.1331
     28 H6          2.0380    3.1880    1.5159 H         1 <0>         0.1619
     29 H7          2.1660    5.6442    2.7351 H         1 <0>         0.1440
     30 H8          0.7871    7.9212    2.5062 H         1 <0>         0.1398
     31 H9         -1.1698    7.5149    0.8128 H         1 <0>         0.1651
@<TRIPOS>BOND
     1    1    6 ar
     2    1    2 ar
     3    1   24 1
     4    2    3 ar
     5    2   25 1
     6    3    4 ar
     7    3    8 1
     8    4    5 ar
     9    4   26 1
    10    5    6 ar
    11    5    7 1
    12    6   27 1
    13    8   22 1
    14    8    9 am
    15    9   10 2
    16    9   11 1
    17   11   12 2
    18   11   19 1
    19   12   13 1
    20   12   28 1
    21   13   17 1
    22   13   14 2
    23   14   15 1
    24   14   29 1
    25   15   16 2
    26   15   30 1
    27   16   17 1
    28   16   31 1
    29   17   18 1
    30   19   20 1
    31   19   21 2
    32   21   22 1
    33   22   23 2
@<TRIPOS>MOLECULE
ZINC05060466
   43    47     0     0     0
SMALL
USER_CHARGES
3-dibenzofuran-3-yl-1-(1-naphthyl)thiourea
@<TRIPOS>ATOM
      1 C1          9.2763    4.9145   -1.6545 C.ar      1 <0>        -0.1231
      2 C2          8.0675    5.6079   -1.6512 C.ar      1 <0>        -0.1028
      3 C3          6.9583    5.0790   -1.0649 C.ar      1 <0>        -0.1220
      4 C4          7.0289    3.8155   -0.4575 C.ar      1 <0>        -0.0366
      5 C5          8.2584    3.1116   -0.4564 C.ar      1 <0>        -0.0520
      6 C6          9.3826    3.6891   -1.0719 C.ar      1 <0>        -0.0933
      7 C7          8.3316    1.8484    0.1547 C.ar      1 <0>        -0.0908
      8 C8          7.2267    1.3130    0.7436 C.ar      1 <0>        -0.1104
      9 C9          6.0149    1.9969    0.7532 C.ar      1 <0>        -0.0467
     10 C10         5.9016    3.2385    0.1651 C.ar      1 <0>         0.1071
     11 N1          4.6817    3.9160    0.1802 N.pl3     1 <0>        -0.6187
     12 C11         3.5543    3.2826   -0.1995 C.2       1 <0>         0.5468
     13 S1          3.5958    1.6130   -0.5757 S.2       1 <0>        -0.5815
     14 N2          2.3943    3.9636   -0.2831 N.pl3     1 <0>        -0.6240
     15 C12         1.2083    3.2895   -0.5905 C.ar      1 <0>         0.1484
     16 C13         0.0564    3.5445    0.1489 C.ar      1 <0>        -0.1325
     17 C14        -1.1151    2.8835   -0.1484 C.ar      1 <0>        -0.0592
     18 C15        -1.1426    1.9564   -1.1859 C.ar      1 <0>        -0.1110
     19 C16        -2.1939    1.0970   -1.7633 C.ar      1 <0>        -0.1240
     20 C17        -3.5388    0.8895   -1.4756 C.ar      1 <0>        -0.0614
     21 C18        -4.2663   -0.0142   -2.2213 C.ar      1 <0>        -0.1387
     22 C19        -3.6599   -0.7124   -3.2534 C.ar      1 <0>        -0.0811
     23 C20        -2.3268   -0.5148   -3.5465 C.ar      1 <0>        -0.1152
     24 C21        -1.5777    0.3920   -2.8064 C.ar      1 <0>         0.0868
     25 O1         -0.2832    0.7734   -2.8766 O.3       1 <0>        -0.1943
     26 C22         0.0128    1.6990   -1.9376 C.ar      1 <0>         0.0926
     27 C23         1.1875    2.3719   -1.6282 C.ar      1 <0>        -0.0609
     28 H1         10.1415    5.3560   -2.1267 H         1 <0>         0.1254
     29 H2          8.0096    6.5787   -2.1208 H         1 <0>         0.1238
     30 H3          6.0279    5.6274   -1.0701 H         1 <0>         0.1166
     31 H4         10.3257    3.1630   -1.0827 H         1 <0>         0.1313
     32 H5          9.2634    1.3024    0.1569 H         1 <0>         0.1319
     33 H6          7.2919    0.3414    1.2107 H         1 <0>         0.1322
     34 H7          5.1534    1.5501    1.2272 H         1 <0>         0.1451
     35 H8          4.6452    4.8428    0.4641 H         1 <0>         0.4081
     36 H9          2.3821    4.9214   -0.1301 H         1 <0>         0.4120
     37 H10         0.0811    4.2617    0.9560 H         1 <0>         0.1357
     38 H11        -2.0087    3.0809    0.4251 H         1 <0>         0.1369
     39 H12        -4.0116    1.4342   -0.6717 H         1 <0>         0.1301
     40 H13        -5.3108   -0.1779   -2.0007 H         1 <0>         0.1338
     41 H14        -4.2363   -1.4182   -3.8331 H         1 <0>         0.1389
     42 H15        -1.8648   -1.0646   -4.3532 H         1 <0>         0.1363
     43 H16         2.0855    2.1795   -2.1966 H         1 <0>         0.1602
@<TRIPOS>BOND
     1    1    6 ar
     2    1    2 ar
     3    1   28 1
     4    2    3 ar
     5    2   29 1
     6    3    4 ar
     7    3   30 1
     8    4   10 ar
     9    4    5 ar
    10    5    6 ar
    11    5    7 ar
    12    6   31 1
    13    7    8 ar
    14    7   32 1
    15    8    9 ar
    16    8   33 1
    17    9   10 ar
    18    9   34 1
    19   10   11 1
    20   11   12 1
    21   11   35 1
    22   12   13 2
    23   12   14 1
    24   14   15 1
    25   14   36 1
    26   15   27 ar
    27   15   16 ar
    28   16   17 ar
    29   16   37 1
    30   17   18 ar
    31   17   38 1
    32   18   26 ar
    33   18   19 1
    34   19   24 ar
    35   19   20 ar
    36   20   21 ar
    37   20   39 1
    38   21   22 ar
    39   21   40 1
    40   22   23 ar
    41   22   41 1
    42   23   24 ar
    43   23   42 1
    44   24   25 1
    45   25   26 1
    46   26   27 ar
    47   27   43 1
@<TRIPOS>MOLECULE
ZINC49694485
   61    65     0     0     0
SMALL
USER_CHARGES

@<TRIPOS>ATOM
      1 C1         -0.0167    1.3786    0.0096 C.ar      1 <0>        -0.1226
      2 C2          1.1696    2.0892    0.0021 C.ar      1 <0>        -0.0970
      3 C3          2.3774    1.4195   -0.0134 C.ar      1 <0>        -0.1128
      4 C4          2.3996    0.0310   -0.0211 C.ar      1 <0>         0.1459
      5 C5          1.2065   -0.6797   -0.0130 C.ar      1 <0>        -0.1357
      6 C6          0.0021   -0.0041    0.0020 C.ar      1 <0>        -0.0894
      7 N1          3.6227   -0.6513   -0.0373 N.pl3     1 <0>        -0.3030
      8 C7          3.7638   -1.9902   -0.0512 C.2       1 <0>         0.1104
      9 C8          5.1174   -2.2722   -0.0646 C.2       1 <0>        -0.2274
     10 C9          5.8092   -0.9775   -0.0577 C.2       1 <0>         0.1744
     11 N2          4.8822   -0.0456   -0.0475 N.2       1 <0>        -0.2710
     12 C10         7.2752   -0.7618   -0.0668 C.ar      1 <0>        -0.0640
     13 C11         8.1161   -1.6479    0.6061 C.ar      1 <0>        -0.0519
     14 C12         9.4798   -1.4442    0.5957 C.ar      1 <0>        -0.1442
     15 C13        10.0160   -0.3585   -0.0837 C.ar      1 <0>         0.1480
     16 C14         9.1816    0.5258   -0.7542 C.ar      1 <0>        -0.2087
     17 C15         7.8175    0.3245   -0.7530 C.ar      1 <0>        -0.0396
     18 O1         11.3602   -0.1607   -0.0920 O.3       1 <0>        -0.3067
     19 C16        11.8443    0.9758   -0.8103 C.3       1 <0>         0.1007
     20 C17        13.3468    1.0317   -0.7086 C.ar      1 <0>        -0.0842
     21 C18        14.0284    0.0600   -0.0000 C.ar      1 <0>        -0.0848
     22 C19        15.4065    0.1110    0.0933 C.ar      1 <0>        -0.1124
     23 C20        16.1042    1.1339   -0.5220 C.ar      1 <0>        -0.1054
     24 C21        15.4239    2.1059   -1.2307 C.ar      1 <0>        -0.1086
     25 C22        14.0447    2.0521   -1.3292 C.ar      1 <0>        -0.0307
     26 Cl1        13.1900    3.2691   -2.2249 Cl        1 <0>        -0.0668
     27 C23         5.7385   -3.6007   -0.0818 C.2       1 <0>         0.1241
     28 C24         4.9602   -4.7145   -0.0864 C.2       1 <0>        -0.2467
     29 C25         5.3531   -6.1350   -0.0967 C.2       1 <0>         0.5415
     30 O2          6.5223   -6.4745   -0.1026 O.2       1 <0>        -0.4463
     31 N3          4.3728   -7.0226   -0.0987 N.am      1 <0>        -0.5104
     32 C26         3.0788   -6.6424   -0.0921 C.2       1 <0>         0.2866
     33 S1          1.6801   -7.6296   -0.0934 S.2       1 <0>        -0.3255
     34 S2          3.1785   -4.8597   -0.0736 S.3       1 <0>         0.0135
     35 C27         4.6997   -8.4506   -0.1088 C.3       1 <0>         0.1096
     36 C28         4.8186   -8.9568    1.3302 C.3       1 <0>        -0.6917
     37 S3          5.2234  -10.7250    1.3177 S.o2      1 <0>         2.6427
     38 O3          5.3927  -11.2169    2.6761 O.2       1 <0>        -1.0556
     39 O4          4.1836  -11.4793    0.6351 O.2       1 <0>        -1.0483
     40 O5          6.4776  -10.8190    0.5868 O.3       1 <0>        -1.0599
     41 H1         -0.9598    1.9047    0.0260 H         1 <0>         0.1312
     42 H2          1.1517    3.1691    0.0080 H         1 <0>         0.1338
     43 H3          3.3035    1.9750   -0.0200 H         1 <0>         0.1394
     44 H4          1.2205   -1.7596   -0.0193 H         1 <0>         0.1331
     45 H5         -0.9261   -0.5562    0.0079 H         1 <0>         0.1378
     46 H6          2.9628   -2.7146   -0.0515 H         1 <0>         0.1888
     47 H7          7.6996   -2.4924    1.1350 H         1 <0>         0.1388
     48 H8         10.1315   -2.1298    1.1168 H         1 <0>         0.1419
     49 H9          9.6018    1.3697   -1.2811 H         1 <0>         0.1340
     50 H10         7.1694    1.0098   -1.2791 H         1 <0>         0.1325
     51 H11        11.5538    0.8944   -1.8577 H         1 <0>         0.0837
     52 H12        11.4173    1.8837   -0.3843 H         1 <0>         0.0832
     53 H13        13.4839   -0.7391    0.4811 H         1 <0>         0.1437
     54 H14        15.9385   -0.6482    0.6474 H         1 <0>         0.1332
     55 H15        17.1809    1.1735   -0.4484 H         1 <0>         0.1341
     56 H16        15.9690    2.9051   -1.7110 H         1 <0>         0.1364
     57 H17         6.8145   -3.6937   -0.0909 H         1 <0>         0.1669
     58 H18         3.9114   -9.0002   -0.6232 H         1 <0>         0.1218
     59 H19         5.6465   -8.6030   -0.6270 H         1 <0>         0.1195
     60 H20         5.6070   -8.4072    1.8446 H         1 <0>         0.1104
     61 H21         3.8719   -8.8044    1.8484 H         1 <0>         0.1098
@<TRIPOS>BOND
     1    1    6 ar
     2    1    2 ar
     3    1   41 1
     4    2    3 ar
     5    2   42 1
     6    3    4 ar
     7    3   43 1
     8    4    5 ar
     9    4    7 1
    10    5    6 ar
    11    5   44 1
    12    6   45 1
    13    7   11 1
    14    7    8 1
    15    8    9 2
    16    8   46 1
    17    9   10 1
    18    9   27 1
    19   10   11 2
    20   10   12 1
    21   12   17 ar
    22   12   13 ar
    23   13   14 ar
    24   13   47 1
    25   14   15 ar
    26   14   48 1
    27   15   16 ar
    28   15   18 1
    29   16   17 ar
    30   16   49 1
    31   17   50 1
    32   18   19 1
    33   19   20 1
    34   19   51 1
    35   19   52 1
    36   20   25 ar
    37   20   21 ar
    38   21   22 ar
    39   21   53 1
    40   22   23 ar
    41   22   54 1
    42   23   24 ar
    43   23   55 1
    44   24   25 ar
    45   24   56 1
    46   25   26 1
    47   27   28 2
    48   27   57 1
    49   28   34 1
    50   28   29 1
    51   29   30 2
    52   29   31 am
    53   31   32 1
    54   31   35 1
    55   32   33 2
    56   32   34 1
    57   35   36 1
    58   35   58 1
    59   35   59 1
    60   36   37 1
    61   36   60 1
    62   36   61 1
    63   37   38 2
    64   37   39 2
    65   37   40 1
@<TRIPOS>MOLECULE
ZINC12274914
   51    54     0     0     0
SMALL
USER_CHARGES
2-[(5Z)-5-[[3-(4-methoxyphenyl)-1-phenyl-pyrazol-4-yl]methylene]-4-oxo-2-thioxo-thiazolidin-3-yl]ethanesulfonic acid
@<TRIPOS>ATOM
      1 C1          4.1762   -6.0417   -0.7998 C.3       1 <0>         0.0235
      2 O1          2.9905   -5.7525   -0.0565 O.3       1 <0>        -0.3148
      3 C2          2.5687   -4.4609   -0.0460 C.ar      1 <0>         0.1454
      4 C3          1.4233   -4.1120    0.6571 C.ar      1 <0>        -0.1522
      5 C4          0.9928   -2.8022    0.6703 C.ar      1 <0>        -0.0417
      6 C5          1.7092   -1.8273   -0.0236 C.ar      1 <0>        -0.0669
      7 C6          2.8563   -2.1821   -0.7332 C.ar      1 <0>        -0.0504
      8 C7          3.2843   -3.4929   -0.7378 C.ar      1 <0>        -0.2053
      9 C8          1.2493   -0.4188   -0.0121 C.2       1 <0>         0.1758
     10 C9          2.1003    0.7773   -0.0138 C.2       1 <0>        -0.2289
     11 C10         1.2448    1.8635    0.0002 C.2       1 <0>         0.1111
     12 N1         -0.0169    1.3934    0.0097 N.pl3     1 <0>        -0.3029
     13 N2          0.0021   -0.0041    0.0020 N.2       1 <0>        -0.2708
     14 C11        -1.1726    2.1845    0.0197 C.ar      1 <0>         0.1455
     15 C12        -1.0679    3.5692    0.0319 C.ar      1 <0>        -0.1357
     16 C13        -2.2094    4.3466    0.0364 C.ar      1 <0>        -0.0895
     17 C14        -3.4557    3.7474    0.0398 C.ar      1 <0>        -0.1225
     18 C15        -3.5634    2.3687    0.0330 C.ar      1 <0>        -0.0969
     19 C16        -2.4257    1.5858    0.0232 C.ar      1 <0>        -0.1125
     20 C17         3.5664    0.8131   -0.0272 C.2       1 <0>         0.1267
     21 C18         4.2169    2.0061   -0.0271 C.2       1 <0>        -0.2488
     22 C19         5.6637    2.2872   -0.0329 C.2       1 <0>         0.5428
     23 O2          6.4885    1.3916   -0.0395 O.2       1 <0>        -0.4497
     24 N3          6.0216    3.5602   -0.0353 N.am      1 <0>        -0.5103
     25 C20         5.1048    4.5493   -0.0213 C.2       1 <0>         0.2845
     26 S1          5.3656    6.2414   -0.0139 S.2       1 <0>        -0.3216
     27 S2          3.5531    3.6659   -0.0118 S.3       1 <0>         0.0165
     28 C21         7.4457    3.9038   -0.0466 C.3       1 <0>         0.1009
     29 C22         7.9550    4.0148    1.3919 C.3       1 <0>        -0.6895
     30 S3          9.7184    4.4402    1.3779 S.o2      1 <0>         2.6411
     31 O3         10.4789    3.3578    0.8590 O.2       1 <0>        -1.0460
     32 O4          9.8999    5.7582    0.8786 O.2       1 <0>        -1.0399
     33 H1          4.0237   -5.7748   -1.8455 H         1 <0>         0.0582
     34 H2          5.0082   -5.4652   -0.3953 H         1 <0>         0.0606
     35 H3          4.4013   -7.1056   -0.7254 H         1 <0>         0.1022
     36 H4          0.8688   -4.8675    1.1939 H         1 <0>         0.1375
     37 H5          0.1021   -2.5314    1.2176 H         1 <0>         0.1363
     38 H6          3.4109   -1.4304   -1.2752 H         1 <0>         0.1334
     39 H7          4.1748   -3.7676   -1.2837 H         1 <0>         0.1376
     40 H8          1.5365    2.9034    0.0030 H         1 <0>         0.1886
     41 H9         -0.0948    4.0378    0.0338 H         1 <0>         0.1329
     42 H10        -2.1287    5.4235    0.0418 H         1 <0>         0.1378
     43 H11        -4.3469    4.3574    0.0482 H         1 <0>         0.1313
     44 H12        -4.5381    1.9037    0.0357 H         1 <0>         0.1341
     45 H13        -2.5104    0.5092    0.0185 H         1 <0>         0.1398
     46 H14         4.1290   -0.1087   -0.0372 H         1 <0>         0.1660
     47 H15         8.0027    3.1269   -0.5703 H         1 <0>         0.1129
     48 H16         7.5854    4.8572   -0.5561 H         1 <0>         0.1203
     49 H17         7.3980    4.7917    1.9156 H         1 <0>         0.1173
     50 H18         7.8153    3.0614    1.9014 H         1 <0>         0.1126
     51 O5         10.1124    4.5232    2.8456 O.3       1 <0>        -1.0762
@<TRIPOS>BOND
     1    1    2 1
     2    1   33 1
     3    1   34 1
     4    1   35 1
     5    2    3 1
     6    3    8 ar
     7    3    4 ar
     8    4    5 ar
     9    4   36 1
    10    5    6 ar
    11    5   37 1
    12    6    7 ar
    13    6    9 1
    14    7    8 ar
    15    7   38 1
    16    8   39 1
    17    9   13 2
    18    9   10 1
    19   10   11 2
    20   10   20 1
    21   11   12 1
    22   11   40 1
    23   12   13 1
    24   12   14 1
    25   14   19 ar
    26   14   15 ar
    27   15   16 ar
    28   15   41 1
    29   16   17 ar
    30   16   42 1
    31   17   18 ar
    32   17   43 1
    33   18   19 ar
    34   18   44 1
    35   19   45 1
    36   20   21 2
    37   20   46 1
    38   21   27 1
    39   21   22 1
    40   22   23 2
    41   22   24 am
    42   24   25 1
    43   24   28 1
    44   25   26 2
    45   25   27 1
    46   28   29 1
    47   28   47 1
    48   28   48 1
    49   29   30 1
    50   29   49 1
    51   29   50 1
    52   30   31 2
    53   30   32 2
    54   30   51 1
@<TRIPOS>MOLECULE
ZINC04213833
   61    64     0     0     0
SMALL
USER_CHARGES

@<TRIPOS>ATOM
      1 C1         -0.0390    1.5017   -0.0190 C.3       1 <0>        -0.1185
      2 C2         -0.0056   -0.0049   -0.0121 C.ar      1 <0>         0.0085
      3 C3          0.0606   -0.7148   -1.2110 C.ar      1 <0>        -0.1144
      4 C4          0.0900   -2.1179   -1.1529 C.ar      1 <0>         0.2740
      5 C5          0.0521   -2.7470    0.1012 C.ar      1 <0>         0.0969
      6 N1         -0.0105   -2.0327    1.2125 N.ar      1 <0>        -0.3689
      7 C6         -0.0345   -0.7054    1.1929 C.ar      1 <0>         0.0060
      8 C7         -0.0989    0.0404    2.4671 C.2       1 <0>         0.5335
      9 O1         -0.0220    1.2527    2.4658 O.2       1 <0>        -0.5075
     10 O2         -0.2428   -0.6242    3.6301 O.3       1 <0>        -0.3310
     11 C8         -0.2976    0.1604    4.8232 C.3       1 <0>         0.0332
     12 C9          0.0819   -4.2261    0.1809 C.ar      1 <0>         0.1480
     13 C10         0.6167   -4.8442    1.3168 C.ar      1 <0>        -0.1068
     14 C11         0.6443   -6.2219    1.3950 C.ar      1 <0>        -0.0550
     15 C12         0.1295   -6.9592    0.3196 C.ar      1 <0>        -0.0395
     16 C13        -0.3897   -6.2645   -0.7924 C.ar      1 <0>         0.0449
     17 N2         -0.4032   -4.9432   -0.8221 N.ar      1 <0>        -0.4421
     18 C14        -0.9227   -7.0608   -1.9268 C.2       1 <0>         0.4198
     19 O3         -1.7289   -6.6082   -2.7139 O.2       1 <0>        -0.4235
     20 C15        -0.3968   -8.4641   -2.0352 C.2       1 <0>         0.2305
     21 N3         -0.1959   -9.0365   -3.1904 N.2       1 <0>        -0.6538
     22 C16        -0.1194   -9.1593   -0.7628 C.2       1 <0>        -0.1456
     23 C17         0.1309   -8.4265    0.3515 C.2       1 <0>         0.2164
     24 O4          0.3879   -9.0648    1.5220 O.3       1 <0>        -0.6947
     25 O5         -0.1147  -10.5186   -0.7081 O.3       1 <0>        -0.3174
     26 C18         0.1624  -11.1159    0.5602 C.3       1 <0>         0.0720
     27 N4          0.1552   -2.8697   -2.3160 N.pl3     1 <0>        -0.8219
     28 C19         0.0982   -0.0070   -2.5125 C.ar      1 <0>        -0.0890
     29 C20         1.3215    0.3496   -3.0791 C.ar      1 <0>        -0.0493
     30 C21         1.3558    1.0088   -4.2901 C.ar      1 <0>        -0.2058
     31 C22         0.1748    1.3197   -4.9502 C.ar      1 <0>         0.1305
     32 C23        -1.0499    0.9685   -4.3937 C.ar      1 <0>         0.0352
     33 C24        -1.0923    0.2999   -3.1781 C.ar      1 <0>         0.1515
     34 O6         -2.2877   -0.0504   -2.6338 O.3       1 <0>        -0.4767
     35 O7         -2.2060    1.2755   -5.0429 O.3       1 <0>        -0.3188
     36 C25        -2.7127    0.3039   -5.9601 C.3       1 <0>         0.0368
     37 O8          0.2159    1.9696   -6.1437 O.3       1 <0>        -0.3039
     38 C26         1.5074    2.3010   -6.6578 C.3       1 <0>         0.0234
     39 H1          0.9676    1.8882    0.1407 H         1 <0>         0.0827
     40 H2         -0.4146    1.8524   -0.9803 H         1 <0>         0.0599
     41 H3         -0.6942    1.8543    0.7776 H         1 <0>         0.0984
     42 H4         -0.4147   -0.4966    5.6850 H         1 <0>         0.1019
     43 H5          0.6249    0.7321    4.9248 H         1 <0>         0.0592
     44 H6         -1.1448    0.8441    4.7698 H         1 <0>         0.0588
     45 H7          1.0062   -4.2464    2.1276 H         1 <0>         0.1465
     46 H8          1.0523   -6.7193    2.2625 H         1 <0>         0.1542
     47 H9         -0.3871   -8.5546   -4.0102 H         1 <0>         0.3254
     48 H10         0.1353  -12.2013    0.4644 H         1 <0>         0.0400
     49 H11         1.1506  -10.8056    0.8998 H         1 <0>         0.0513
     50 H12        -0.5874  -10.7962    1.2839 H         1 <0>         0.0510
     51 H13         0.2476   -2.4278   -3.1746 H         1 <0>         0.3962
     52 H14         0.1083   -3.8375   -2.2713 H         1 <0>         0.4206
     53 H15         2.2427    0.1097   -2.5690 H         1 <0>         0.1362
     54 H16         2.3047    1.2843   -4.7261 H         1 <0>         0.1389
     55 H17        -2.6691    0.6239   -2.0551 H         1 <0>         0.3956
     56 H18        -3.6357    0.6730   -6.4073 H         1 <0>         0.0932
     57 H19        -1.9760    0.1244   -6.7431 H         1 <0>         0.0445
     58 H20        -2.9131   -0.6269   -5.4294 H         1 <0>         0.0503
     59 H21         2.0234    2.9518   -5.9520 H         1 <0>         0.0584
     60 H22         2.0865    1.3887   -6.8010 H         1 <0>         0.0576
     61 H23         1.3974    2.8152   -7.6126 H         1 <0>         0.1022
@<TRIPOS>BOND
     1    1    2 1
     2    1   39 1
     3    1   40 1
     4    1   41 1
     5    2    7 ar
     6    2    3 ar
     7    3    4 ar
     8    3   28 1
     9    4    5 ar
    10    4   27 1
    11    5    6 ar
    12    5   12 1
    13    6    7 ar
    14    7    8 1
    15    8    9 2
    16    8   10 1
    17   10   11 1
    18   11   42 1
    19   11   43 1
    20   11   44 1
    21   12   17 ar
    22   12   13 ar
    23   13   14 ar
    24   13   45 1
    25   14   15 ar
    26   14   46 1
    27   15   23 1
    28   15   16 ar
    29   16   17 ar
    30   16   18 1
    31   18   19 2
    32   18   20 1
    33   20   21 2
    34   20   22 1
    35   21   47 1
    36   22   23 2
    37   22   25 1
    38   23   24 1
    39   25   26 1
    40   26   48 1
    41   26   49 1
    42   26   50 1
    43   27   51 1
    44   27   52 1
    45   28   33 ar
    46   28   29 ar
    47   29   30 ar
    48   29   53 1
    49   30   31 ar
    50   30   54 1
    51   31   32 ar
    52   31   37 1
    53   32   33 ar
    54   32   35 1
    55   33   34 1
    56   34   55 1
    57   35   36 1
    58   36   56 1
    59   36   57 1
    60   36   58 1
    61   37   38 1
    62   38   59 1
    63   38   60 1
    64   38   61 1
@<TRIPOS>MOLECULE
ZINC04016162
   32    34     0     0     0
SMALL
USER_CHARGES

@<TRIPOS>ATOM
      1 C1         -0.0173    1.4248    0.0099 C.3       1 <0>         0.0211
      2 O1          0.0021   -0.0041    0.0020 O.3       1 <0>        -0.2910
      3 C2          0.6045   -0.6058   -1.0534 C.ar      1 <0>         0.1445
      4 C3          1.1761    0.1641   -2.0679 C.ar      1 <0>        -0.1451
      5 C4          1.7911   -0.4375   -3.1417 C.ar      1 <0>        -0.1451
      6 C5          1.8547   -1.8290   -3.2356 C.ar      1 <0>         0.1446
      7 C6          1.2892   -2.6130   -2.2338 C.ar      1 <0>        -0.1260
      8 C7          0.6614   -1.9947   -1.1284 C.ar      1 <0>        -0.1258
      9 C8          0.0714   -2.8478   -0.0758 C.2       1 <0>         0.4404
     10 O2         -0.8329   -2.4428    0.6287 O.2       1 <0>        -0.4077
     11 C9          0.6204   -4.2152    0.0908 C.ar      1 <0>        -0.1194
     12 C10         0.5222   -4.8914    1.2991 C.ar      1 <0>        -0.0692
     13 C11         1.0476   -6.1676    1.4141 C.ar      1 <0>        -0.1007
     14 C12         1.6681   -6.7725    0.3357 C.ar      1 <0>        -0.1000
     15 C13         1.7739   -6.1112   -0.8768 C.ar      1 <0>        -0.0698
     16 C14         1.2522   -4.8315   -1.0083 C.ar      1 <0>        -0.1183
     17 C15         1.3327   -4.0888   -2.2939 C.2       1 <0>         0.4404
     18 O3          1.4427   -4.6720   -3.3550 O.2       1 <0>        -0.4073
     19 O4          2.4636   -2.4136   -4.2969 O.3       1 <0>        -0.2910
     20 C16         3.0203   -1.5445   -5.2852 C.3       1 <0>         0.0211
     21 H1          1.0053    1.8021    0.0021 H         1 <0>         0.0589
     22 H2         -0.5445    1.7859   -0.8732 H         1 <0>         0.0596
     23 H3         -0.5275    1.7763    0.9067 H         1 <0>         0.1073
     24 H4          1.1350    1.2417   -2.0095 H         1 <0>         0.1470
     25 H5          2.2281    0.1720   -3.9188 H         1 <0>         0.1471
     26 H6          0.0390   -4.4247    2.1448 H         1 <0>         0.1417
     27 H7          0.9727   -6.6949    2.3537 H         1 <0>         0.1377
     28 H8          2.0735   -7.7680    0.4401 H         1 <0>         0.1378
     29 H9          2.2597   -6.5883   -1.7150 H         1 <0>         0.1416
     30 H10         2.2317   -0.9213   -5.7067 H         1 <0>         0.0596
     31 H11         3.7782   -0.9101   -4.8257 H         1 <0>         0.0589
     32 H12         3.4758   -2.1393   -6.0770 H         1 <0>         0.1073
@<TRIPOS>BOND
     1    1    2 1
     2    1   21 1
     3    1   22 1
     4    1   23 1
     5    2    3 1
     6    3    8 ar
     7    3    4 ar
     8    4    5 ar
     9    4   24 1
    10    5    6 ar
    11    5   25 1
    12    6    7 ar
    13    6   19 1
    14    7   17 1
    15    7    8 ar
    16    8    9 1
    17    9   10 2
    18    9   11 1
    19   11   16 ar
    20   11   12 ar
    21   12   13 ar
    22   12   26 1
    23   13   14 ar
    24   13   27 1
    25   14   15 ar
    26   14   28 1
    27   15   16 ar
    28   15   29 1
    29   16   17 1
    30   17   18 2
    31   19   20 1
    32   20   30 1
    33   20   31 1
    34   20   32 1
@<TRIPOS>MOLECULE
ZINC18085270
   32    34     0     0     0
SMALL
USER_CHARGES

@<TRIPOS>ATOM
      1 C1         -0.0187    1.5258    0.0104 C.3       1 <0>        -0.1542
      2 C2          0.0021   -0.0041    0.0020 C.3       1 <0>         0.0619
      3 O1         -1.3386   -0.4987    0.0122 O.3       1 <0>        -0.3505
      4 C3         -1.4970   -1.8370    0.0065 C.2       1 <0>         0.5296
      5 O2         -0.5237   -2.5639   -0.0067 O.2       1 <0>        -0.4459
      6 C4         -2.8522   -2.4193    0.0163 C.2       1 <0>         0.0979
      7 C5         -3.1772   -3.7635    0.0178 C.2       1 <0>        -0.1990
      8 C6         -4.6011   -3.8040    0.0285 C.2       1 <0>        -0.0174
      9 N1         -5.0219   -2.5628    0.0329 N.2       1 <0>        -0.1514
     10 N2         -4.0352   -1.7388    0.0317 N.pl3     1 <0>        -0.3354
     11 H1         -4.1193   -0.7725    0.0384 H         1 <0>         0.4719
     12 C7         -4.9528   -5.2380    0.0301 C.2       1 <0>         0.6289
     13 O3         -6.0806   -5.6895    0.0379 O.2       1 <0>        -0.4268
     14 N3         -3.8198   -5.9620    0.0210 N.am      1 <0>        -0.5077
     15 C8         -2.7343   -5.1674    0.0130 C.2       1 <0>         0.6087
     16 O4         -1.5800   -5.5456    0.0034 O.2       1 <0>        -0.4196
     17 C9         -3.7754   -7.3630    0.0199 C.ar      1 <0>         0.1429
     18 C10        -2.5523   -8.0200    0.0164 C.ar      1 <0>        -0.1294
     19 C11        -2.5113   -9.4005    0.0154 C.ar      1 <0>        -0.0673
     20 C12        -3.6878  -10.1287    0.0174 C.ar      1 <0>        -0.0972
     21 C13        -4.9080   -9.4764    0.0209 C.ar      1 <0>        -0.0674
     22 C14        -4.9544   -8.0961    0.0282 C.ar      1 <0>        -0.1306
     23 Br1        -3.6279  -12.0188    0.0146 Br        1 <0>        -0.0414
     24 H2          1.0039    1.9031    0.0027 H         1 <0>         0.0865
     25 H3         -0.5459    1.8868   -0.8726 H         1 <0>         0.0692
     26 H4         -0.5289    1.8773    0.9072 H         1 <0>         0.0692
     27 H5          0.5123   -0.3556   -0.8948 H         1 <0>         0.0768
     28 H6          0.5293   -0.3651    0.8851 H         1 <0>         0.0768
     29 H7         -1.6337   -7.4520    0.0142 H         1 <0>         0.1659
     30 H8         -1.5602   -9.9120    0.0127 H         1 <0>         0.1446
     31 H9         -5.8249  -10.0471    0.0224 H         1 <0>         0.1448
     32 H10        -5.9071   -7.5874    0.0358 H         1 <0>         0.1658
@<TRIPOS>BOND
     1    1    2 1
     2    1   24 1
     3    1   25 1
     4    1   26 1
     5    2    3 1
     6    2   27 1
     7    2   28 1
     8    3    4 1
     9    4    5 2
    10    4    6 1
    11    6   10 1
    12    6    7 2
    13    7   15 1
    14    7    8 1
    15    8    9 2
    16    8   12 1
    17    9   10 1
    18   10   11 1
    19   12   13 2
    20   12   14 am
    21   14   15 am
    22   14   17 1
    23   15   16 2
    24   17   22 ar
    25   17   18 ar
    26   18   19 ar
    27   18   29 1
    28   19   20 ar
    29   19   30 1
    30   20   21 ar
    31   20   23 1
    32   21   22 ar
    33   21   31 1
    34   22   32 1
@<TRIPOS>MOLECULE
ZINC18085270
   31    33     0     0     0
SMALL
USER_CHARGES

@<TRIPOS>ATOM
      1 C1         -0.0187    1.5258    0.0104 C.3       1 <0>        -0.1489
      2 C2          0.0021   -0.0041    0.0020 C.3       1 <0>         0.0589
      3 O1          0.6709   -0.4649   -1.1737 O.3       1 <0>        -0.3395
      4 C3          0.7758   -1.7983   -1.3347 C.2       1 <0>         0.5479
      5 O2          0.3122   -2.5492   -0.5000 O.2       1 <0>        -0.5060
      6 C4          1.4546   -2.3472   -2.5263 C.2       1 <0>        -0.0001
      7 C5          1.6355   -3.7125   -2.8328 C.2       1 <0>        -0.2749
      8 C6          2.3236   -3.7267   -4.0458 C.2       1 <0>        -0.1150
      9 N1          2.5136   -2.4313   -4.3924 N.2       1 <0>        -0.2353
     10 N2          2.0009   -1.6520   -3.5074 N.2       1 <0>        -0.2573
     11 C7          2.5220   -5.1474   -4.3826 C.2       1 <0>         0.6265
     12 O3          3.0862   -5.5679   -5.3726 O.2       1 <0>        -0.4763
     13 N3          1.9752   -5.9018   -3.4118 N.am      1 <0>        -0.5276
     14 C8          1.4304   -5.1228   -2.4586 C.2       1 <0>         0.6056
     15 O4          0.8651   -5.5162   -1.4585 O.2       1 <0>        -0.4689
     16 C9          1.9734   -7.3035   -3.3951 C.ar      1 <0>         0.1674
     17 C10         1.3739   -7.9856   -2.3450 C.ar      1 <0>        -0.1407
     18 C11         1.3736   -9.3667   -2.3309 C.ar      1 <0>        -0.0688
     19 C12         1.9703  -10.0704   -3.3619 C.ar      1 <0>        -0.1116
     20 C13         2.5688   -9.3930   -4.4094 C.ar      1 <0>        -0.0690
     21 C14         2.5661   -8.0120   -4.4315 C.ar      1 <0>        -0.1420
     22 Br1         1.9685  -11.9613   -3.3390 Br        1 <0>        -0.0604
     23 H1          1.0039    1.9031    0.0027 H         1 <0>         0.0657
     24 H2         -0.5459    1.8868   -0.8726 H         1 <0>         0.0657
     25 H3         -0.5289    1.8773    0.9072 H         1 <0>         0.0734
     26 H4          0.5293   -0.3651    0.8851 H         1 <0>         0.0628
     27 H5         -1.0205   -0.3814    0.0098 H         1 <0>         0.0628
     28 H6          0.9086   -7.4368   -1.5396 H         1 <0>         0.1653
     29 H7          0.9074   -9.8978   -1.5142 H         1 <0>         0.1374
     30 H8          3.0343   -9.9446   -5.2128 H         1 <0>         0.1376
     31 H9          3.0292   -7.4837   -5.2518 H         1 <0>         0.1653
@<TRIPOS>BOND
     1    1    2 1
     2    1   23 1
     3    1   24 1
     4    1   25 1
     5    2    3 1
     6    2   26 1
     7    2   27 1
     8    3    4 1
     9    4    5 2
    10    4    6 1
    11    6   10 2
    12    6    7 1
    13    7   14 1
    14    7    8 2
    15    8    9 1
    16    8   11 1
    17    9   10 1
    18   11   12 2
    19   11   13 am
    20   13   14 am
    21   13   16 1
    22   14   15 2
    23   16   21 ar
    24   16   17 ar
    25   17   18 ar
    26   17   28 1
    27   18   19 ar
    28   18   29 1
    29   19   20 ar
    30   19   22 1
    31   20   21 ar
    32   20   30 1
    33   21   31 1
@<TRIPOS>MOLECULE
ZINC18085270
   32    34     0     0     0
SMALL
USER_CHARGES

@<TRIPOS>ATOM
      1 C1         -0.0187    1.5258    0.0104 C.3       1 <0>        -0.1527
      2 C2          0.0021   -0.0041    0.0020 C.3       1 <0>         0.0594
      3 O1         -1.3386   -0.4987    0.0122 O.3       1 <0>        -0.3339
      4 C3         -1.4969   -1.8365    0.0065 C.2       1 <0>         0.5460
      5 O2         -0.5237   -2.5633   -0.0067 O.2       1 <0>        -0.4629
      6 C4         -2.8540   -2.4196    0.0163 C.2       1 <0>         0.0913
      7 C5         -3.1756   -3.7934    0.0120 C.2       1 <0>        -0.1817
      8 C6         -4.5693   -3.8426    0.0259 C.2       1 <0>        -0.0301
      9 N1         -4.9968   -2.5575    0.0373 N.pl3     1 <0>        -0.2887
     10 N2         -3.9939   -1.7528    0.0366 N.2       1 <0>        -0.1836
     11 H1         -5.9271   -2.2832    0.0483 H         1 <0>         0.4671
     12 C7         -4.9245   -5.2726    0.0216 C.2       1 <0>         0.6219
     13 O3         -6.0530   -5.7216    0.0303 O.2       1 <0>        -0.4324
     14 N3         -3.7918   -5.9988    0.0061 N.am      1 <0>        -0.5109
     15 C8         -2.7138   -5.1925   -0.0004 C.2       1 <0>         0.6024
     16 O4         -1.5556   -5.5570   -0.0150 O.2       1 <0>        -0.4110
     17 C9         -3.7413   -7.3997   -0.0017 C.ar      1 <0>         0.1425
     18 C10        -2.5154   -8.0513   -0.0116 C.ar      1 <0>        -0.1281
     19 C11        -2.4684   -9.4316   -0.0193 C.ar      1 <0>        -0.0662
     20 C12        -3.6417  -10.1650   -0.0177 C.ar      1 <0>        -0.0971
     21 C13        -4.8647   -9.5180   -0.0083 C.ar      1 <0>        -0.0673
     22 C14        -4.9171   -8.1379    0.0061 C.ar      1 <0>        -0.1313
     23 Br1        -3.5736  -12.0547   -0.0289 Br        1 <0>        -0.0400
     24 H2          1.0039    1.9031    0.0027 H         1 <0>         0.0835
     25 H3         -0.5459    1.8868   -0.8726 H         1 <0>         0.0686
     26 H4         -0.5289    1.8773    0.9072 H         1 <0>         0.0686
     27 H5          0.5123   -0.3556   -0.8948 H         1 <0>         0.0738
     28 H6          0.5293   -0.3651    0.8851 H         1 <0>         0.0738
     29 H7         -1.5993   -7.4793   -0.0135 H         1 <0>         0.1654
     30 H8         -1.5151   -9.9390   -0.0269 H         1 <0>         0.1454
     31 H9         -5.7790  -10.0927   -0.0075 H         1 <0>         0.1447
     32 H10        -5.8719   -7.6334    0.0183 H         1 <0>         0.1636
@<TRIPOS>BOND
     1    1    2 1
     2    1   24 1
     3    1   25 1
     4    1   26 1
     5    2    3 1
     6    2   27 1
     7    2   28 1
     8    3    4 1
     9    4    5 2
    10    4    6 1
    11    6    7 1
    12    6   10 2
    13    7   15 1
    14    7    8 2
    15    8   12 1
    16    8    9 1
    17    9   11 1
    18    9   10 1
    19   12   13 2
    20   12   14 am
    21   14   15 am
    22   14   17 1
    23   15   16 2
    24   17   22 ar
    25   17   18 ar
    26   18   19 ar
    27   18   29 1
    28   19   20 ar
    29   19   30 1
    30   20   21 ar
    31   20   23 1
    32   21   22 ar
    33   21   31 1
    34   22   32 1
@<TRIPOS>MOLECULE
ZINC49723001
   61    65     0     0     0
SMALL
USER_CHARGES

@<TRIPOS>ATOM
      1 C1         -0.0167    1.3786    0.0096 C.ar      1 <0>        -0.1226
      2 C2          1.1696    2.0892    0.0021 C.ar      1 <0>        -0.0970
      3 C3          2.3774    1.4195   -0.0134 C.ar      1 <0>        -0.1128
      4 C4          2.3996    0.0310   -0.0211 C.ar      1 <0>         0.1458
      5 C5          1.2065   -0.6797   -0.0130 C.ar      1 <0>        -0.1356
      6 C6          0.0021   -0.0041    0.0020 C.ar      1 <0>        -0.0894
      7 N1          3.6227   -0.6513   -0.0373 N.pl3     1 <0>        -0.3030
      8 C7          3.7638   -1.9902   -0.0512 C.2       1 <0>         0.1104
      9 C8          5.1174   -2.2722   -0.0646 C.2       1 <0>        -0.2274
     10 C9          5.8092   -0.9775   -0.0577 C.2       1 <0>         0.1743
     11 N2          4.8822   -0.0456   -0.0475 N.2       1 <0>        -0.2710
     12 C10         7.2752   -0.7618   -0.0668 C.ar      1 <0>        -0.0638
     13 C11         8.1161   -1.6479    0.6061 C.ar      1 <0>        -0.0520
     14 C12         9.4798   -1.4442    0.5957 C.ar      1 <0>        -0.1439
     15 C13        10.0160   -0.3585   -0.0837 C.ar      1 <0>         0.1475
     16 C14         9.1816    0.5258   -0.7542 C.ar      1 <0>        -0.2089
     17 C15         7.8175    0.3245   -0.7530 C.ar      1 <0>        -0.0397
     18 O1         11.3602   -0.1607   -0.0920 O.3       1 <0>        -0.3059
     19 C16        11.8443    0.9758   -0.8103 C.3       1 <0>         0.1044
     20 C17        13.3468    1.0317   -0.7086 C.ar      1 <0>        -0.1275
     21 C18        14.0284    0.0601   -0.0001 C.ar      1 <0>        -0.0687
     22 C19        15.4066    0.1111    0.0933 C.ar      1 <0>        -0.1275
     23 C20        16.1049    1.1338   -0.5218 C.ar      1 <0>        -0.0888
     24 C21        15.4257    2.1058   -1.2310 C.ar      1 <0>        -0.1521
     25 C22        14.0454    2.0529   -1.3297 C.ar      1 <0>         0.1043
     26 F1         13.3806    3.0002   -2.0267 F         1 <0>        -0.1373
     27 C23         5.7385   -3.6007   -0.0818 C.2       1 <0>         0.1241
     28 C24         4.9602   -4.7145   -0.0864 C.2       1 <0>        -0.2466
     29 C25         5.3531   -6.1350   -0.0967 C.2       1 <0>         0.5415
     30 O2          6.5223   -6.4745   -0.1026 O.2       1 <0>        -0.4462
     31 N3          4.3728   -7.0226   -0.0987 N.am      1 <0>        -0.5104
     32 C26         3.0788   -6.6424   -0.0921 C.2       1 <0>         0.2866
     33 S1          1.6801   -7.6296   -0.0934 S.2       1 <0>        -0.3254
     34 S2          3.1785   -4.8597   -0.0736 S.3       1 <0>         0.0136
     35 C27         4.6997   -8.4506   -0.1088 C.3       1 <0>         0.1095
     36 C28         4.8186   -8.9568    1.3302 C.3       1 <0>        -0.6916
     37 S3          5.2234  -10.7250    1.3177 S.o2      1 <0>         2.6427
     38 O3          5.3672  -11.2228    2.6769 O.2       1 <0>        -1.0556
     39 O4          4.1965  -11.4762    0.6125 O.2       1 <0>        -1.0484
     40 O5          6.4910  -10.8161    0.6100 O.3       1 <0>        -1.0599
     41 H1         -0.9598    1.9047    0.0260 H         1 <0>         0.1312
     42 H2          1.1517    3.1691    0.0080 H         1 <0>         0.1339
     43 H3          3.3035    1.9750   -0.0200 H         1 <0>         0.1394
     44 H4          1.2205   -1.7596   -0.0193 H         1 <0>         0.1331
     45 H5         -0.9261   -0.5562    0.0079 H         1 <0>         0.1378
     46 H6          2.9628   -2.7146   -0.0515 H         1 <0>         0.1888
     47 H7          7.6996   -2.4924    1.1350 H         1 <0>         0.1389
     48 H8         10.1315   -2.1298    1.1168 H         1 <0>         0.1421
     49 H9          9.6018    1.3697   -1.2811 H         1 <0>         0.1340
     50 H10         7.1694    1.0098   -1.2791 H         1 <0>         0.1326
     51 H11        11.5538    0.8944   -1.8577 H         1 <0>         0.0820
     52 H12        11.4173    1.8837   -0.3843 H         1 <0>         0.0814
     53 H13        13.4840   -0.7389    0.4810 H         1 <0>         0.1441
     54 H14        15.9383   -0.6483    0.6474 H         1 <0>         0.1337
     55 H15        17.1816    1.1730   -0.4475 H         1 <0>         0.1347
     56 H16        15.9713    2.9047   -1.7111 H         1 <0>         0.1384
     57 H17         6.8145   -3.6937   -0.0909 H         1 <0>         0.1669
     58 H18         3.9114   -9.0002   -0.6232 H         1 <0>         0.1221
     59 H19         5.6465   -8.6030   -0.6270 H         1 <0>         0.1191
     60 H20         5.6070   -8.4072    1.8446 H         1 <0>         0.1105
     61 H21         3.8719   -8.8044    1.8484 H         1 <0>         0.1098
@<TRIPOS>BOND
     1    1    6 ar
     2    1    2 ar
     3    1   41 1
     4    2    3 ar
     5    2   42 1
     6    3    4 ar
     7    3   43 1
     8    4    5 ar
     9    4    7 1
    10    5    6 ar
    11    5   44 1
    12    6   45 1
    13    7   11 1
    14    7    8 1
    15    8    9 2
    16    8   46 1
    17    9   10 1
    18    9   27 1
    19   10   11 2
    20   10   12 1
    21   12   17 ar
    22   12   13 ar
    23   13   14 ar
    24   13   47 1
    25   14   15 ar
    26   14   48 1
    27   15   16 ar
    28   15   18 1
    29   16   17 ar
    30   16   49 1
    31   17   50 1
    32   18   19 1
    33   19   20 1
    34   19   51 1
    35   19   52 1
    36   20   25 ar
    37   20   21 ar
    38   21   22 ar
    39   21   53 1
    40   22   23 ar
    41   22   54 1
    42   23   24 ar
    43   23   55 1
    44   24   25 ar
    45   24   56 1
    46   25   26 1
    47   27   28 2
    48   27   57 1
    49   28   34 1
    50   28   29 1
    51   29   30 2
    52   29   31 am
    53   31   32 1
    54   31   35 1
    55   32   33 2
    56   32   34 1
    57   35   36 1
    58   35   58 1
    59   35   59 1
    60   36   37 1
    61   36   60 1
    62   36   61 1
    63   37   38 2
    64   37   39 2
    65   37   40 1
@<TRIPOS>MOLECULE
ZINC49745270
   63    67     0     0     0
SMALL
USER_CHARGES

@<TRIPOS>ATOM
      1 C1         -0.0167    1.3786    0.0096 C.ar      1 <0>        -0.1195
      2 C2          1.1696    2.0892    0.0021 C.ar      1 <0>        -0.0967
      3 C3          2.3774    1.4195   -0.0135 C.ar      1 <0>        -0.1112
      4 C4          2.3996    0.0309   -0.0212 C.ar      1 <0>         0.1410
      5 C5          1.2065   -0.6797   -0.0132 C.ar      1 <0>        -0.1331
      6 C6          0.0021   -0.0041    0.0020 C.ar      1 <0>        -0.0893
      7 N1          3.6227   -0.6513   -0.0375 N.pl3     1 <0>        -0.2982
      8 C7          3.7640   -1.9904   -0.0515 C.2       1 <0>         0.1106
      9 C8          5.1174   -2.2722   -0.0658 C.2       1 <0>        -0.2194
     10 C9          5.8091   -0.9776   -0.0594 C.2       1 <0>         0.1492
     11 N2          4.8823   -0.0457   -0.0477 N.2       1 <0>        -0.2568
     12 C10         7.2754   -0.7619   -0.0698 C.ar      1 <0>         0.0376
     13 C11         8.1178   -1.6471    0.6015 C.ar      1 <0>        -0.1150
     14 C12         9.4822   -1.4412    0.5882 C.ar      1 <0>        -0.0148
     15 C13        10.0146   -0.3589   -0.0894 C.ar      1 <0>        -0.6703
     16 C14         9.1837    0.5228   -0.7572 C.ar      1 <0>        -0.0187
     17 C15         7.8182    0.3238   -0.7558 C.ar      1 <0>        -0.1050
     18 S1         11.7577   -0.1022   -0.1013 S.o2      1 <0>         2.6907
     19 O1         11.9626    1.2824   -0.3466 O.2       1 <0>        -0.9502
     20 O2         12.2724   -0.7561    1.0505 O.2       1 <0>        -0.9467
     21 N3         12.3626   -0.9100   -1.4142 N.pl3     1 <0>        -0.9996
     22 C16        12.7906   -2.3140   -1.3086 C.3       1 <0>         0.0847
     23 C17        12.1265   -3.1082   -2.4392 C.3       1 <0>         0.0449
     24 O3         12.3846   -2.4579   -3.6858 O.3       1 <0>        -0.3741
     25 C18        11.8383   -1.1403   -3.7828 C.3       1 <0>         0.0457
     26 C19        12.4824   -0.2470   -2.7224 C.3       1 <0>         0.0856
     27 C20         5.7387   -3.6008   -0.0835 C.2       1 <0>         0.1160
     28 C21         4.9605   -4.7146   -0.0875 C.2       1 <0>        -0.2396
     29 C22         5.3535   -6.1353   -0.0981 C.2       1 <0>         0.5421
     30 O4          6.5227   -6.4747   -0.1044 O.2       1 <0>        -0.4467
     31 N4          4.3732   -7.0228   -0.0999 N.am      1 <0>        -0.5104
     32 C23         3.0792   -6.6426   -0.0925 C.2       1 <0>         0.2841
     33 S2          1.6805   -7.6298   -0.0934 S.2       1 <0>        -0.3135
     34 S3          3.1789   -4.8599   -0.0736 S.3       1 <0>         0.0124
     35 C24         4.7001   -8.4508   -0.1108 C.3       1 <0>         0.1077
     36 C25         4.8198   -8.9576    1.3279 C.3       1 <0>        -0.6921
     37 S4          5.2245  -10.7258    1.3144 S.o2      1 <0>         2.6421
     38 O5          5.3339  -11.1881    2.6893 O.2       1 <0>        -1.0571
     39 O6          4.1617  -11.4407    0.6248 O.2       1 <0>        -1.0498
     40 O7          6.4890  -10.9080    0.6187 O.3       1 <0>        -1.0556
     41 H1         -0.9598    1.9047    0.0260 H         1 <0>         0.1325
     42 H2          1.1517    3.1690    0.0081 H         1 <0>         0.1351
     43 H3          3.3035    1.9750   -0.0201 H         1 <0>         0.1396
     44 H4          1.2205   -1.7596   -0.0195 H         1 <0>         0.1336
     45 H5         -0.9261   -0.5562    0.0079 H         1 <0>         0.1389
     46 H6          2.9630   -2.7148   -0.0511 H         1 <0>         0.1915
     47 H7          7.7033   -2.4922    1.1311 H         1 <0>         0.1428
     48 H8         10.1357   -2.1260    1.1081 H         1 <0>         0.1496
     49 H9          9.6050    1.3661   -1.2842 H         1 <0>         0.1459
     50 H10         7.1708    1.0103   -1.2813 H         1 <0>         0.1406
     51 H11        13.8746   -2.3756   -1.4043 H         1 <0>         0.0871
     52 H12        12.4830   -2.7200   -0.3449 H         1 <0>         0.1019
     53 H13        12.5358   -4.1181   -2.4637 H         1 <0>         0.1112
     54 H14        11.0509   -3.1545   -2.2685 H         1 <0>         0.0592
     55 H15        12.0403   -0.7345   -4.7741 H         1 <0>         0.1078
     56 H16        10.7617   -1.1795   -3.6171 H         1 <0>         0.0567
     57 H17        11.9709    0.7151   -2.6946 H         1 <0>         0.0992
     58 H18        13.5349   -0.0969   -2.9629 H         1 <0>         0.0859
     59 H19         6.8146   -3.6938   -0.0932 H         1 <0>         0.1664
     60 H20         3.9114   -9.0001   -0.6250 H         1 <0>         0.1242
     61 H21         5.6465   -8.6030   -0.6296 H         1 <0>         0.1170
     62 H22         5.6084   -8.4082    1.8421 H         1 <0>         0.1090
     63 H23         3.8734   -8.8054    1.8466 H         1 <0>         0.1136
@<TRIPOS>BOND
     1    1    6 ar
     2    1    2 ar
     3    1   41 1
     4    2    3 ar
     5    2   42 1
     6    3    4 ar
     7    3   43 1
     8    4    5 ar
     9    4    7 1
    10    5    6 ar
    11    5   44 1
    12    6   45 1
    13    7   11 1
    14    7    8 1
    15    8    9 2
    16    8   46 1
    17    9   10 1
    18    9   27 1
    19   10   11 2
    20   10   12 1
    21   12   17 ar
    22   12   13 ar
    23   13   14 ar
    24   13   47 1
    25   14   15 ar
    26   14   48 1
    27   15   16 ar
    28   15   18 1
    29   16   17 ar
    30   16   49 1
    31   17   50 1
    32   18   19 2
    33   18   20 2
    34   18   21 1
    35   21   26 1
    36   21   22 1
    37   22   23 1
    38   22   51 1
    39   22   52 1
    40   23   24 1
    41   23   53 1
    42   23   54 1
    43   24   25 1
    44   25   26 1
    45   25   55 1
    46   25   56 1
    47   26   57 1
    48   26   58 1
    49   27   28 2
    50   27   59 1
    51   28   34 1
    52   28   29 1
    53   29   30 2
    54   29   31 am
    55   31   32 1
    56   31   35 1
    57   32   33 2
    58   32   34 1
    59   35   36 1
    60   35   60 1
    61   35   61 1
    62   36   37 1
    63   36   62 1
    64   36   63 1
    65   37   38 2
    66   37   39 2
    67   37   40 1
@<TRIPOS>MOLECULE
ZINC26967571
   47    50     0     0     0
SMALL
USER_CHARGES
2-[(5Z)-5-[[3-(4-chlorophenyl)-1-phenyl-pyrazol-4-yl]methylene]-4-oxo-2-thioxo-thiazolidin-3-yl]ethanesulfonic acid
@<TRIPOS>ATOM
      1 C1         -3.4556    3.7476    0.0409 C.ar      1 <0>        -0.1212
      2 C2         -3.5633    2.3689    0.0335 C.ar      1 <0>        -0.0969
      3 C3         -2.4257    1.5860    0.0232 C.ar      1 <0>        -0.1120
      4 C4         -1.1726    2.1846    0.0197 C.ar      1 <0>         0.1435
      5 C5         -1.0678    3.5693    0.0320 C.ar      1 <0>        -0.1345
      6 C6         -2.2093    4.3467    0.0375 C.ar      1 <0>        -0.0894
      7 N1         -0.0169    1.3934    0.0097 N.pl3     1 <0>        -0.3009
      8 C7          1.2449    1.8635    0.0002 C.2       1 <0>         0.1106
      9 C8          2.1002    0.7772   -0.0138 C.2       1 <0>        -0.2234
     10 C9          1.2492   -0.4187   -0.0121 C.2       1 <0>         0.1637
     11 N2          0.0021   -0.0041    0.0020 N.2       1 <0>        -0.2644
     12 C10         1.7092   -1.8275   -0.0236 C.ar      1 <0>        -0.0200
     13 C11         2.8559   -2.1833   -0.7327 C.ar      1 <0>        -0.0815
     14 C12         3.2822   -3.4955   -0.7366 C.ar      1 <0>        -0.1054
     15 C13         2.5679   -4.4600   -0.0463 C.ar      1 <0>        -0.0210
     16 C14         1.4260   -4.1130    0.6554 C.ar      1 <0>        -0.1095
     17 C15         0.9936   -2.8029    0.6698 C.ar      1 <0>        -0.0711
     18 Cl1         3.1065   -6.1103   -0.0603 Cl        1 <0>        -0.0628
     19 C16         3.5664    0.8129   -0.0284 C.2       1 <0>         0.1189
     20 C17         4.2170    2.0057   -0.0281 C.2       1 <0>        -0.2446
     21 C18         5.6640    2.2867   -0.0349 C.2       1 <0>         0.5424
     22 O1          6.4887    1.3911   -0.0425 O.2       1 <0>        -0.4480
     23 N3          6.0219    3.5597   -0.0362 N.am      1 <0>        -0.5097
     24 C19         5.1052    4.5489   -0.0211 C.2       1 <0>         0.2846
     25 S1          5.3661    6.2409   -0.0133 S.2       1 <0>        -0.3192
     26 S2          3.5534    3.6655   -0.0113 S.3       1 <0>         0.0145
     27 C20         7.4460    3.9032   -0.0481 C.3       1 <0>         0.0975
     28 C21         7.9562    4.0133    1.3901 C.3       1 <0>        -0.6901
     29 S3          9.7195    4.4386    1.3754 S.o2      1 <0>         2.6411
     30 O2         10.4797    3.3566    0.8553 O.2       1 <0>        -1.0459
     31 O3          9.9009    5.7569    0.8769 O.2       1 <0>        -1.0402
     32 O4         10.1144    4.5207    2.8430 O.3       1 <0>        -1.0764
     33 H1         -4.3468    4.3576    0.0497 H         1 <0>         0.1318
     34 H2         -4.5381    1.9040    0.0362 H         1 <0>         0.1345
     35 H3         -2.5104    0.5093    0.0181 H         1 <0>         0.1397
     36 H4         -0.0947    4.0378    0.0338 H         1 <0>         0.1333
     37 H5         -2.1285    5.4237    0.0433 H         1 <0>         0.1383
     38 H6          1.5367    2.9033    0.0027 H         1 <0>         0.1899
     39 H7          3.4112   -1.4324   -1.2751 H         1 <0>         0.1408
     40 H8          4.1723   -3.7714   -1.2824 H         1 <0>         0.1438
     41 H9          0.8724   -4.8692    1.1922 H         1 <0>         0.1403
     42 H10         0.1027   -2.5332    1.2175 H         1 <0>         0.1389
     43 H11         4.1393   -0.1261   -0.0396 H         1 <0>         0.1712
     44 H12         8.0078    3.1195   -0.5774 H         1 <0>         0.1148
     45 H13         7.5868    4.8657   -0.5618 H         1 <0>         0.1221
     46 H14         7.3944    4.7970    1.9194 H         1 <0>         0.1181
     47 H15         7.8155    3.0509    1.9038 H         1 <0>         0.1134
@<TRIPOS>BOND
     1    1    6 ar
     2    1    2 ar
     3    1   33 1
     4    2    3 ar
     5    2   34 1
     6    3    4 ar
     7    3   35 1
     8    4    5 ar
     9    4    7 1
    10    5    6 ar
    11    5   36 1
    12    6   37 1
    13    7   11 1
    14    7    8 1
    15    8    9 2
    16    8   38 1
    17    9   10 1
    18    9   19 1
    19   10   11 2
    20   10   12 1
    21   12   17 ar
    22   12   13 ar
    23   13   14 ar
    24   13   39 1
    25   14   15 ar
    26   14   40 1
    27   15   16 ar
    28   15   18 1
    29   16   17 ar
    30   16   41 1
    31   17   42 1
    32   19   20 2
    33   19   43 1
    34   20   26 1
    35   20   21 1
    36   21   22 2
    37   21   23 am
    38   23   24 1
    39   23   27 1
    40   24   25 2
    41   24   26 1
    42   27   28 1
    43   27   44 1
    44   27   45 1
    45   28   29 1
    46   28   46 1
    47   28   47 1
    48   29   30 2
    49   29   31 2
    50   29   32 1
@<TRIPOS>MOLECULE
ZINC02967488
   37    39     0     0     0
SMALL
USER_CHARGES
2-[5-[[5-(3-chlorophenyl)-2-furyl]methylene]-4-oxo-2-thioxo-thiazolidin-3-yl]ethanesulfonic acid
@<TRIPOS>ATOM
      1 C1          1.1699    2.0959    0.0021 C.ar      1 <0>        -0.1011
      2 C2         -0.0169    1.3928    0.0097 C.ar      1 <0>        -0.0885
      3 C3          0.0021   -0.0041    0.0020 C.ar      1 <0>        -0.0160
      4 C4          1.2249   -0.6797   -0.0133 C.ar      1 <0>        -0.0846
      5 C5          2.4048    0.0364   -0.0207 C.ar      1 <0>        -0.0342
      6 C6          2.3777    1.4214   -0.0130 C.ar      1 <0>        -0.0975
      7 Cl1         3.9258   -0.8002   -0.0403 Cl        1 <0>        -0.0615
      8 C7         -1.2638   -0.7626    0.0105 C.2       1 <0>         0.0682
      9 C8         -1.3757   -2.1243   -0.0012 C.2       1 <0>        -0.1942
     10 C9         -2.7400   -2.4257    0.0157 C.2       1 <0>        -0.1252
     11 C10        -3.4149   -1.2178    0.0286 C.2       1 <0>        -0.0230
     12 O1         -2.4981   -0.2273    0.0252 O.3       1 <0>        -0.1484
     13 C11        -4.8164   -1.0509    0.0425 C.2       1 <0>         0.0952
     14 C12        -5.3542    0.2036    0.0544 C.2       1 <0>        -0.2281
     15 C13        -6.7665    0.6190    0.0698 C.2       1 <0>         0.5389
     16 O2         -7.6718   -0.1957    0.0740 O.2       1 <0>        -0.4460
     17 N1         -7.0042    1.9198    0.0791 N.am      1 <0>        -0.5127
     18 C14        -5.9988    2.8190    0.0748 C.2       1 <0>         0.2739
     19 S1         -6.0996    4.5279    0.0856 S.2       1 <0>        -0.3157
     20 S2         -4.5370    1.7935    0.0636 S.3       1 <0>         0.0672
     21 C15        -8.3900    2.3947    0.0941 C.3       1 <0>         0.1010
     22 C16        -8.8596    2.5520    1.5417 C.3       1 <0>        -0.6895
     23 S3        -10.5755    3.1401    1.5602 S.o2      1 <0>         2.6412
     24 O3        -10.6427    4.4695    1.0628 O.2       1 <0>        -1.0396
     25 O4        -11.4433    2.1337    1.0569 O.2       1 <0>        -1.0459
     26 H1          1.1562    3.1758    0.0077 H         1 <0>         0.1423
     27 H2         -0.9588    1.9211    0.0170 H         1 <0>         0.1401
     28 H3          1.2469   -1.7594   -0.0189 H         1 <0>         0.1411
     29 H4          3.3037    1.9771   -0.0192 H         1 <0>         0.1391
     30 H5         -0.5622   -2.8344   -0.0183 H         1 <0>         0.1619
     31 H6         -3.1822   -3.4109    0.0147 H         1 <0>         0.1679
     32 H7         -5.4633   -1.9157    0.0437 H         1 <0>         0.1865
     33 H8         -8.4496    3.3573   -0.4139 H         1 <0>         0.1206
     34 H9         -9.0268    1.6735   -0.4182 H         1 <0>         0.1131
     35 H10        -8.7999    1.5894    2.0496 H         1 <0>         0.1123
     36 H11        -8.2228    3.2732    2.0539 H         1 <0>         0.1174
     37 O5        -10.9325    3.2587    3.0350 O.3       1 <0>        -1.0760
@<TRIPOS>BOND
     1    1    6 ar
     2    1    2 ar
     3    1   26 1
     4    2    3 ar
     5    2   27 1
     6    3    4 ar
     7    3    8 1
     8    4    5 ar
     9    4   28 1
    10    5    6 ar
    11    5    7 1
    12    6   29 1
    13    8   12 1
    14    8    9 2
    15    9   10 1
    16    9   30 1
    17   10   11 2
    18   10   31 1
    19   11   12 1
    20   11   13 1
    21   13   14 2
    22   13   32 1
    23   14   20 1
    24   14   15 1
    25   15   16 2
    26   15   17 am
    27   17   18 1
    28   17   21 1
    29   18   19 2
    30   18   20 1
    31   21   22 1
    32   21   33 1
    33   21   34 1
    34   22   23 1
    35   22   35 1
    36   22   36 1
    37   23   24 2
    38   23   25 2
    39   23   37 1
@<TRIPOS>MOLECULE
ZINC01269245
   43    45     0     0     0
SMALL
USER_CHARGES
2-(5-cinnamylidene-4-oxo-2-thioxo-thiazolidin-3-yl)-3-phenyl-propanoic acid
@<TRIPOS>ATOM
      1 C1         -5.9247   -2.3257   -1.0328 C.ar      1 <0>        -0.1311
      2 C2         -5.7551   -1.0663   -0.4888 C.ar      1 <0>        -0.1172
      3 C3         -4.5212   -0.4464   -0.5522 C.ar      1 <0>        -0.1118
      4 C4         -3.4568   -1.0859   -1.1597 C.ar      1 <0>        -0.0719
      5 C5         -3.6277   -2.3431   -1.7084 C.ar      1 <0>        -0.1221
      6 C6         -4.8603   -2.9652   -1.6403 C.ar      1 <0>        -0.1178
      7 C7         -2.1118   -0.4099   -1.2293 C.3       1 <0>        -0.0979
      8 C8         -1.2926   -0.7753    0.0102 C.3       1 <0>         0.0784
      9 H1         -1.8592   -0.5245    0.9070 H         1 <0>         0.1150
     10 C9          0.0021   -0.0041    0.0020 C.2       1 <0>         0.4736
     11 O1          1.0565   -0.5939   -0.0112 O.co2     1 <0>        -0.6100
     12 N1         -1.0054   -2.2118   -0.0002 N.am      1 <0>        -0.4886
     13 C10        -1.4348   -2.9641    0.9990 C.2       1 <0>         0.5410
     14 O2         -2.0630   -2.4931    1.9294 O.2       1 <0>        -0.4684
     15 C11        -1.1143   -4.4020    0.9302 C.2       1 <0>        -0.2087
     16 C12        -1.4220   -5.4044    1.8033 C.2       1 <0>         0.0427
     17 C13        -1.0091   -6.7244    1.5343 C.2       1 <0>        -0.1473
     18 C14        -1.3145   -7.7191    2.4007 C.2       1 <0>        -0.0497
     19 C15        -0.8836   -9.0964    2.1201 C.ar      1 <0>        -0.0720
     20 C16        -0.1627   -9.3845    0.9558 C.ar      1 <0>        -0.1017
     21 C17         0.2426  -10.6778    0.7029 C.ar      1 <0>        -0.1203
     22 C18        -0.0721  -11.6919    1.5910 C.ar      1 <0>        -0.1119
     23 C19        -0.7898  -11.4162    2.7421 C.ar      1 <0>        -0.1239
     24 C20        -1.1972  -10.1273    3.0129 C.ar      1 <0>        -0.0991
     25 S1         -0.2118   -4.4708   -0.6113 S.3       1 <0>         0.0111
     26 C21        -0.3139   -2.7383   -1.0315 C.2       1 <0>         0.3001
     27 S2          0.3153   -1.9390   -2.4085 S.2       1 <0>        -0.2897
     28 H2         -6.8888   -2.8099   -0.9835 H         1 <0>         0.1170
     29 H3         -6.5868   -0.5665   -0.0145 H         1 <0>         0.1192
     30 H4         -4.3888    0.5378   -0.1275 H         1 <0>         0.1245
     31 H5         -2.7973   -2.8409   -2.1869 H         1 <0>         0.1118
     32 H6         -4.9929   -3.9490   -2.0657 H         1 <0>         0.1178
     33 H7         -2.2497    0.6707   -1.2681 H         1 <0>         0.1050
     34 H8         -1.5845   -0.7412   -2.1239 H         1 <0>         0.1064
     35 H9         -1.9821   -5.1860    2.7005 H         1 <0>         0.1507
     36 H10        -0.4490   -6.9427    0.6371 H         1 <0>         0.1276
     37 H11        -1.8746   -7.5007    3.2979 H         1 <0>         0.1320
     38 H12         0.0797   -8.5952    0.2597 H         1 <0>         0.1291
     39 H13         0.8032  -10.9011   -0.1928 H         1 <0>         0.1261
     40 H14         0.2444  -12.7037    1.3849 H         1 <0>         0.1228
     41 H15        -1.0310  -12.2130    3.4302 H         1 <0>         0.1243
     42 H16        -1.7565   -9.9137    3.9118 H         1 <0>         0.1269
     43 O3         -0.0161    1.3381    0.0094 O.co2     1 <0>        -0.7423
@<TRIPOS>BOND
     1    1    6 ar
     2    1    2 ar
     3    1   28 1
     4    2    3 ar
     5    2   29 1
     6    3    4 ar
     7    3   30 1
     8    4    5 ar
     9    4    7 1
    10    5    6 ar
    11    5   31 1
    12    6   32 1
    13    7    8 1
    14    7   33 1
    15    7   34 1
    16    8    9 1
    17    8   10 1
    18    8   12 1
    19   10   11 2
    20   10   43 1
    21   12   26 1
    22   12   13 am
    23   13   14 2
    24   13   15 1
    25   15   16 2
    26   15   25 1
    27   16   17 1
    28   16   35 1
    29   17   18 2
    30   17   36 1
    31   18   19 1
    32   18   37 1
    33   19   24 ar
    34   19   20 ar
    35   20   21 ar
    36   20   38 1
    37   21   22 ar
    38   21   39 1
    39   22   23 ar
    40   22   40 1
    41   23   24 ar
    42   23   41 1
    43   24   42 1
    44   25   26 1
    45   26   27 2
@<TRIPOS>MOLECULE
ZINC04077011
   43    45     0     0     0
SMALL
USER_CHARGES
2-(5-cinnamylidene-4-oxo-2-thioxo-thiazolidin-3-yl)-3-phenyl-propanoic acid
@<TRIPOS>ATOM
      1 C1         -2.0782    2.5005   -3.4532 C.ar      1 <0>        -0.1311
      2 C2         -1.0663    3.2585   -2.8942 C.ar      1 <0>        -0.1178
      3 C3         -0.3980    2.8008   -1.7740 C.ar      1 <0>        -0.1221
      4 C4         -0.7416    1.5850   -1.2129 C.ar      1 <0>        -0.0719
      5 C5         -1.7499    0.8246   -1.7750 C.ar      1 <0>        -0.1118
      6 C6         -2.4217    1.2848   -2.8921 C.ar      1 <0>        -0.1171
      7 C7         -0.0127    1.0858    0.0080 C.3       1 <0>        -0.0974
      8 C8         -0.7288    1.5792    1.2668 C.3       1 <0>         0.0784
      9 H1         -1.7755    1.2768    1.2315 H         1 <0>         0.1150
     10 C9         -0.0738    0.9805    2.4848 C.2       1 <0>         0.4736
     11 O1          0.4134    1.7002    3.3241 O.co2     1 <0>        -0.6098
     12 N1         -0.6447    3.0402    1.3356 N.am      1 <0>        -0.4888
     13 C10        -1.7590    3.7523    1.3405 C.2       1 <0>         0.5410
     14 O2         -2.8549    3.2246    1.2893 O.2       1 <0>        -0.4684
     15 C11        -1.6079    5.2175    1.4162 C.2       1 <0>        -0.2085
     16 C12        -2.5643    6.1902    1.4411 C.2       1 <0>         0.0425
     17 C13        -2.1883    7.5463    1.5106 C.2       1 <0>        -0.1472
     18 C14        -3.1374    8.5117    1.5352 C.2       1 <0>        -0.0498
     19 C15        -2.7450    9.9266    1.6077 C.ar      1 <0>        -0.0720
     20 C16        -1.3918   10.2797    1.6573 C.ar      1 <0>        -0.1017
     21 C17        -1.0321   11.6092    1.7198 C.ar      1 <0>        -0.1203
     22 C18        -2.0056   12.5930    1.7453 C.ar      1 <0>        -0.1119
     23 C19        -3.3464   12.2519    1.7019 C.ar      1 <0>        -0.1239
     24 C20        -3.7228   10.9274    1.6334 C.ar      1 <0>        -0.0991
     25 S1          0.1728    5.3689    1.4588 S.3       1 <0>         0.0107
     26 C21         0.5676    3.6290    1.3869 C.2       1 <0>         0.2997
     27 S2          2.1109    2.8879    1.3838 S.2       1 <0>        -0.2887
     28 H2         -2.6001    2.8580   -4.3285 H         1 <0>         0.1170
     29 H3         -0.7977    4.2082   -3.3328 H         1 <0>         0.1178
     30 H4          0.3927    3.3928   -1.3375 H         1 <0>         0.1117
     31 H5         -2.0153   -0.1273   -1.3392 H         1 <0>         0.1245
     32 H6         -3.2120    0.6924   -3.3290 H         1 <0>         0.1192
     33 H7          0.0021   -0.0041    0.0020 H         1 <0>         0.1050
     34 H8          1.0099    1.4631    0.0003 H         1 <0>         0.1059
     35 H9         -3.6096    5.9207    1.4075 H         1 <0>         0.1507
     36 H10        -1.1429    7.8158    1.5442 H         1 <0>         0.1275
     37 H11        -4.1827    8.2422    1.5016 H         1 <0>         0.1319
     38 H12        -0.6312    9.5131    1.6423 H         1 <0>         0.1291
     39 H13         0.0119   11.8836    1.7533 H         1 <0>         0.1261
     40 H14        -1.7173   13.6324    1.7989 H         1 <0>         0.1228
     41 H15        -4.0998   13.0255    1.7215 H         1 <0>         0.1243
     42 H16        -4.7694   10.6629    1.5993 H         1 <0>         0.1269
     43 O3         -0.0315   -0.3525    2.6371 O.co2     1 <0>        -0.7423
@<TRIPOS>BOND
     1    1    6 ar
     2    1    2 ar
     3    1   28 1
     4    2    3 ar
     5    2   29 1
     6    3    4 ar
     7    3   30 1
     8    4    5 ar
     9    4    7 1
    10    5    6 ar
    11    5   31 1
    12    6   32 1
    13    7    8 1
    14    7   33 1
    15    7   34 1
    16    8    9 1
    17    8   10 1
    18    8   12 1
    19   10   11 2
    20   10   43 1
    21   12   26 1
    22   12   13 am
    23   13   14 2
    24   13   15 1
    25   15   16 2
    26   15   25 1
    27   16   17 1
    28   16   35 1
    29   17   18 2
    30   17   36 1
    31   18   19 1
    32   18   37 1
    33   19   24 ar
    34   19   20 ar
    35   20   21 ar
    36   20   38 1
    37   21   22 ar
    38   21   39 1
    39   22   23 ar
    40   22   40 1
    41   23   24 ar
    42   23   41 1
    43   24   42 1
    44   25   26 1
    45   26   27 2
