@<TRIPOS>MOLECULE
ZINC38322605
   53    55     0     0     0
SMALL
USER_CHARGES

@<TRIPOS>ATOM
      1 C1         -0.0403    1.4615    0.1245 C.3       1 <0>         0.0871
      2 N1         -0.0156    0.0020    0.0007 N.pl3     1 <0>        -0.6341
      3 C2          0.0346   -0.8344    1.2024 C.3       1 <0>         0.1835
      4 C3         -1.3636   -1.0550    1.7197 C.2       1 <0>        -0.1353
      5 C4         -2.5075   -0.6588    1.1444 C.2       1 <0>         0.0410
      6 O1         -3.5581   -1.0360    1.8975 O.3       1 <0>        -0.1450
      7 C5         -3.1508   -1.6937    2.9959 C.ar      1 <0>         0.3161
      8 C6         -1.7479   -1.7514    2.9500 C.ar      1 <0>        -0.2562
      9 C7         -1.0603   -2.3970    3.9872 C.ar      1 <0>         0.5791
     10 N2         -1.7678   -2.9342    4.9768 N.ar      1 <0>        -0.5783
     11 C8         -3.0925   -2.8616    4.9834 C.ar      1 <0>         0.6959
     12 N3         -3.7765   -2.2546    4.0273 N.ar      1 <0>        -0.5497
     13 N4         -3.7855   -3.4361    6.0355 N.pl3     1 <0>        -0.7871
     14 N5          0.3206   -2.4737    3.9813 N.pl3     1 <0>        -0.7686
     15 C9         -0.0399   -0.5895   -1.2575 C.ar      1 <0>         0.1977
     16 C10        -0.1445   -1.9730   -1.3728 C.ar      1 <0>        -0.2026
     17 C11        -0.1687   -2.5613   -2.6165 C.ar      1 <0>        -0.0217
     18 C12        -0.0882   -1.7683   -3.7650 C.ar      1 <0>        -0.1422
     19 C13         0.0167   -0.3794   -3.6459 C.ar      1 <0>        -0.0383
     20 C14         0.0347    0.2034   -2.3994 C.ar      1 <0>        -0.1868
     21 C15        -0.1134   -2.3959   -5.0998 C.2       1 <0>         0.5498
     22 O2         -0.2043   -3.6042   -5.2019 O.2       1 <0>        -0.5577
     23 N6         -0.0357   -1.6300   -6.2061 N.am      1 <0>        -0.6743
     24 C16        -0.0608   -2.2533   -7.5317 C.3       1 <0>         0.0726
     25 H1         -0.7190   -3.1219   -7.5124 H         1 <0>         0.0784
     26 C17        -0.5773   -1.2447   -8.5597 C.3       1 <0>        -0.0818
     27 C18        -2.0347   -0.8990   -8.2474 C.3       1 <0>        -0.1766
     28 C19        -2.5434    0.0944   -9.2600 C.2       1 <0>         0.4899
     29 O3         -1.8085    0.4893  -10.1490 O.co2     1 <0>        -0.6946
     30 O4         -3.6899    0.5032   -9.1901 O.co2     1 <0>        -0.7204
     31 C20         1.3322   -2.6868   -7.9093 C.2       1 <0>         0.4953
     32 O5          2.2599   -2.4932   -7.1423 O.co2     1 <0>        -0.6986
     33 O6          1.5315   -3.2313   -8.9819 O.co2     1 <0>        -0.6964
     34 H2          0.9806    1.8433    0.1261 H         1 <0>         0.0562
     35 H3         -0.5866    1.8883   -0.7167 H         1 <0>         0.0790
     36 H4         -0.5334    1.7388    1.0562 H         1 <0>         0.0628
     37 H5          0.4873   -1.7953    0.9577 H         1 <0>         0.1054
     38 H6          0.6305   -0.3362    1.9671 H         1 <0>         0.0944
     39 H7         -2.5764   -0.1162    0.2132 H         1 <0>         0.2406
     40 H8         -3.3021   -3.8809    6.7492 H         1 <0>         0.4474
     41 H9         -4.7543   -3.3939    6.0588 H         1 <0>         0.4311
     42 H10         0.8214   -2.1432    3.2191 H         1 <0>         0.4325
     43 H11         0.7883   -2.8581    4.7392 H         1 <0>         0.4307
     44 H12        -0.2063   -2.5851   -0.4852 H         1 <0>         0.1167
     45 H13        -0.2495   -3.6347   -2.7053 H         1 <0>         0.1353
     46 H14         0.0795    0.2359   -4.5312 H         1 <0>         0.1334
     47 H15         0.1110    1.2767   -2.3068 H         1 <0>         0.1284
     48 H16         0.0368   -0.6662   -6.1246 H         1 <0>         0.3883
     49 H17         0.0281   -0.3394   -8.5165 H         1 <0>         0.0555
     50 H18        -0.5125   -1.6778   -9.5579 H         1 <0>         0.0806
     51 H19        -2.6401   -1.8044   -8.2906 H         1 <0>         0.0519
     52 H20        -2.0994   -0.4659   -7.2492 H         1 <0>         0.0480
     53 H21        -4.7451   -2.2274    4.0734 H         1 <0>         0.4418
@<TRIPOS>BOND
     1    1    2 1
     2    1   34 1
     3    1   35 1
     4    1   36 1
     5    2    3 1
     6    2   15 1
     7    3    4 1
     8    3   37 1
     9    3   38 1
    10    4    8 1
    11    4    5 2
    12    5    6 1
    13    5   39 1
    14    6    7 1
    15    7   12 ar
    16    7    8 ar
    17    8    9 ar
    18    9   10 ar
    19    9   14 1
    20   10   11 ar
    21   11   12 ar
    22   11   13 1
    23   12   53 1
    24   13   40 1
    25   13   41 1
    26   14   42 1
    27   14   43 1
    28   15   20 ar
    29   15   16 ar
    30   16   17 ar
    31   16   44 1
    32   17   18 ar
    33   17   45 1
    34   18   19 ar
    35   18   21 1
    36   19   20 ar
    37   19   46 1
    38   20   47 1
    39   21   22 2
    40   21   23 am
    41   23   24 1
    42   23   48 1
    43   24   25 1
    44   24   26 1
    45   24   31 1
    46   26   27 1
    47   26   49 1
    48   26   50 1
    49   27   28 1
    50   27   51 1
    51   27   52 1
    52   28   29 2
    53   28   30 1
    54   31   32 2
    55   31   33 1
@<TRIPOS>MOLECULE
ZINC06627681
   39    40     0     0     0
SMALL
USER_CHARGES

@<TRIPOS>ATOM
      1 C1         -0.0173    1.4248    0.0099 C.3       1 <0>         0.0239
      2 O1          0.0021   -0.0041    0.0020 O.3       1 <0>        -0.3021
      3 C2         -1.2011   -0.6379    0.0101 C.ar      1 <0>         0.1549
      4 C3         -2.3748    0.1005    0.0195 C.ar      1 <0>        -0.2271
      5 C4         -3.5982   -0.5428    0.0277 C.ar      1 <0>        -0.0020
      6 C5         -3.6572   -1.9238    0.0266 C.ar      1 <0>        -0.2327
      7 C6         -2.4882   -2.6696    0.0172 C.ar      1 <0>         0.1543
      8 C7         -1.2561   -2.0266    0.0032 C.ar      1 <0>         0.0227
      9 O2         -0.1065   -2.7549   -0.0117 O.3       1 <0>        -0.3126
     10 C8          0.4536   -3.1089    1.2544 C.3       1 <0>         0.0351
     11 O3         -2.5472   -4.0282    0.0166 O.3       1 <0>        -0.3013
     12 C9         -3.8474   -4.6211    0.0259 C.3       1 <0>         0.0236
     13 C10        -4.8712    0.2637    0.0384 C.3       1 <0>        -0.0163
     14 C11        -5.3062    0.5346   -1.3789 C.ar      1 <0>        -0.3083
     15 C12        -4.9545    1.7101   -2.0132 C.ar      1 <0>         0.2250
     16 N1         -5.3522    1.9181   -3.2597 N.ar      1 <0>        -0.6043
     17 C13        -6.0798    1.0161   -3.9019 C.ar      1 <0>         0.6032
     18 N2         -6.4382   -0.1231   -3.3293 N.ar      1 <0>        -0.6263
     19 C14        -6.0690   -0.3996   -2.0826 C.ar      1 <0>         0.4894
     20 N3         -6.4404   -1.5946   -1.4883 N.pl3     1 <0>        -0.8360
     21 N4         -6.4756    1.2708   -5.2034 N.pl3     1 <0>        -0.8207
     22 H1          1.0053    1.8021    0.0021 H         1 <0>         0.1035
     23 H2         -0.5445    1.7859   -0.8732 H         1 <0>         0.0589
     24 H3         -0.5275    1.7763    0.9067 H         1 <0>         0.0581
     25 H4         -2.3329    1.1797    0.0207 H         1 <0>         0.1363
     26 H5         -4.6151   -2.4227    0.0334 H         1 <0>         0.1280
     27 H6         -0.2648   -3.7070    1.8151 H         1 <0>         0.0438
     28 H7          1.3650   -3.6864    1.0998 H         1 <0>         0.0924
     29 H8          0.6878   -2.2033    1.8141 H         1 <0>         0.0441
     30 H9         -4.3845   -4.3050    0.9202 H         1 <0>         0.0570
     31 H10        -4.3978   -4.3036   -0.8597 H         1 <0>         0.0568
     32 H11        -3.7517   -5.7069    0.0243 H         1 <0>         0.1041
     33 H12        -5.6506   -0.2944    0.5572 H         1 <0>         0.0773
     34 H13        -4.6980    1.2092    0.5523 H         1 <0>         0.0904
     35 H14        -4.3619    2.4519   -1.4984 H         1 <0>         0.1633
     36 H15        -6.1706   -1.7873   -0.5767 H         1 <0>         0.4079
     37 H16        -6.2200    2.1014   -5.6342 H         1 <0>         0.4156
     38 H17        -7.0085    0.6187   -5.6847 H         1 <0>         0.4133
     39 H18        -6.9704   -2.2385   -1.9837 H         1 <0>         0.4067
@<TRIPOS>BOND
     1    1    2 1
     2    1   22 1
     3    1   23 1
     4    1   24 1
     5    2    3 1
     6    3    8 ar
     7    3    4 ar
     8    4    5 ar
     9    4   25 1
    10    5    6 ar
    11    5   13 1
    12    6    7 ar
    13    6   26 1
    14    7    8 ar
    15    7   11 1
    16    8    9 1
    17    9   10 1
    18   10   27 1
    19   10   28 1
    20   10   29 1
    21   11   12 1
    22   12   30 1
    23   12   31 1
    24   12   32 1
    25   13   14 1
    26   13   33 1
    27   13   34 1
    28   14   19 ar
    29   14   15 ar
    30   15   16 ar
    31   15   35 1
    32   16   17 ar
    33   17   18 ar
    34   17   21 1
    35   18   19 ar
    36   19   20 1
    37   20   36 1
    38   20   39 1
    39   21   37 1
    40   21   38 1
@<TRIPOS>MOLECULE
ZINC06627681
   40    41     0     0     0
SMALL
USER_CHARGES

@<TRIPOS>ATOM
      1 C1         -0.0173    1.4248    0.0099 C.3       1 <0>         0.0236
      2 O1          0.0021   -0.0041    0.0020 O.3       1 <0>        -0.2966
      3 C2          0.6062   -0.6075   -1.0565 C.ar      1 <0>         0.1590
      4 C3          1.1731    0.1601   -2.0626 C.ar      1 <0>        -0.2276
      5 C4          1.7874   -0.4523   -3.1388 C.ar      1 <0>        -0.0278
      6 C5          1.8393   -1.8314   -3.2169 C.ar      1 <0>        -0.2351
      7 C6          1.2749   -2.6062   -2.2150 C.ar      1 <0>         0.1601
      8 C7          0.6613   -1.9944   -1.1284 C.ar      1 <0>         0.0371
      9 O2          0.1111   -2.7512   -0.1402 O.3       1 <0>        -0.3127
     10 C8         -1.2598   -3.1236   -0.2953 C.3       1 <0>         0.0346
     11 O3          1.3261   -3.9630   -2.2930 O.3       1 <0>        -0.2955
     12 C9          1.9770   -4.5231   -3.4352 C.3       1 <0>         0.0221
     13 C10         2.4017    0.3858   -4.2302 C.3       1 <0>        -0.0295
     14 C11         3.8422    0.6725   -3.8928 C.ar      1 <0>        -0.2227
     15 C12         4.1975    1.8410   -3.2477 C.ar      1 <0>         0.2105
     16 N1          5.4726    2.0633   -2.9647 N.ar      1 <0>        -0.5697
     17 C13         6.4065    1.1822   -3.2920 C.ar      1 <0>         0.6625
     18 N2          6.1075    0.0504   -3.9114 N.ar      1 <0>        -0.5720
     19 C14         4.8475   -0.2398   -4.2201 C.ar      1 <0>         0.5372
     20 N3          4.5370   -1.4272   -4.8628 N.pl3     1 <0>        -0.7792
     21 N4          7.7275    1.4516   -2.9793 N.pl3     1 <0>        -0.7906
     22 H1          1.0053    1.8021    0.0021 H         1 <0>         0.0555
     23 H2         -0.5445    1.7859   -0.8732 H         1 <0>         0.0607
     24 H3         -0.5275    1.7763    0.9067 H         1 <0>         0.1087
     25 H4          1.1343    1.2379   -2.0054 H         1 <0>         0.1378
     26 H5          2.3199   -2.3061   -4.0596 H         1 <0>         0.1268
     27 H6         -1.3771   -3.7054   -1.2095 H         1 <0>         0.0473
     28 H7         -1.5724   -3.7233    0.5596 H         1 <0>         0.0987
     29 H8         -1.8756   -2.2262   -0.3542 H         1 <0>         0.0474
     30 H9          1.4660   -4.1967   -4.3410 H         1 <0>         0.0599
     31 H10         3.0141   -4.1888   -3.4626 H         1 <0>         0.0544
     32 H11         1.9474   -5.6109   -3.3732 H         1 <0>         0.1103
     33 H12         2.3506   -0.1544   -5.1756 H         1 <0>         0.0994
     34 H13         1.8554    1.3249   -4.3183 H         1 <0>         0.1128
     35 H14         3.4440    2.5659   -2.9772 H         1 <0>         0.2147
     36 H15         3.6157   -1.6298   -5.0887 H         1 <0>         0.4275
     37 H16         7.9600    2.2771   -2.5260 H         1 <0>         0.4311
     38 H17         8.4208    0.8149   -3.2134 H         1 <0>         0.4453
     39 H18         5.2409   -2.0558   -5.0868 H         1 <0>         0.4288
     40 H19         5.7260    2.8827   -2.5117 H         1 <0>         0.4452
@<TRIPOS>BOND
     1    1    2 1
     2    1   22 1
     3    1   23 1
     4    1   24 1
     5    2    3 1
     6    3    8 ar
     7    3    4 ar
     8    4    5 ar
     9    4   25 1
    10    5    6 ar
    11    5   13 1
    12    6    7 ar
    13    6   26 1
    14    7    8 ar
    15    7   11 1
    16    8    9 1
    17    9   10 1
    18   10   27 1
    19   10   28 1
    20   10   29 1
    21   11   12 1
    22   12   30 1
    23   12   31 1
    24   12   32 1
    25   13   14 1
    26   13   33 1
    27   13   34 1
    28   14   19 ar
    29   14   15 ar
    30   15   16 ar
    31   15   35 1
    32   16   17 ar
    33   16   40 1
    34   17   18 ar
    35   17   21 1
    36   18   19 ar
    37   19   20 1
    38   20   36 1
    39   20   39 1
    40   21   37 1
    41   21   38 1
@<TRIPOS>MOLECULE
ZINC01529323
   53    55     0     0     0
SMALL
USER_CHARGES

@<TRIPOS>ATOM
      1 C1         -0.0178    1.4608    0.0101 C.3       1 <0>         0.0943
      2 N1          0.0021   -0.0041    0.0020 N.pl3     1 <0>        -0.6229
      3 C2          0.0241   -0.7433    1.2666 C.3       1 <0>         0.1846
      4 C3         -1.3889   -1.0161    1.7137 C.ar      1 <0>         0.0299
      5 C4         -1.9892   -2.2351    1.3999 C.ar      1 <0>         0.1556
      6 N2         -3.2219   -2.4965    1.7797 N.ar      1 <0>        -0.4373
      7 C5         -3.9051   -1.5830    2.4739 C.ar      1 <0>         0.3718
      8 C6         -3.2902   -0.3458    2.7901 C.ar      1 <0>        -0.0918
      9 N3         -2.0425   -0.1038    2.4012 N.ar      1 <0>        -0.3728
     10 C7         -4.0706    0.6301    3.5527 C.ar      1 <0>         0.5432
     11 N4         -5.3055    0.2953    3.9004 N.ar      1 <0>        -0.6300
     12 C8         -5.8196   -0.8850    3.5693 C.ar      1 <0>         0.6362
     13 N5         -5.1609   -1.7987    2.8845 N.ar      1 <0>        -0.5990
     14 N6         -7.1130   -1.1692    3.9639 N.pl3     1 <0>        -0.8099
     15 N7         -3.5402    1.8539    3.8976 N.pl3     1 <0>        -0.7943
     16 C9          0.0000   -0.6928   -1.2059 C.ar      1 <0>         0.2179
     17 C10         0.0132   -2.0849   -1.2118 C.ar      1 <0>        -0.2113
     18 C11         0.0112   -2.7693   -2.4056 C.ar      1 <0>        -0.0159
     19 C12        -0.0041   -2.0653   -3.6133 C.ar      1 <0>        -0.1590
     20 C13        -0.0173   -0.6674   -3.6040 C.ar      1 <0>        -0.0366
     21 C14        -0.0210    0.0112   -2.4068 C.ar      1 <0>        -0.1985
     22 C15        -0.0058   -2.7960   -4.8948 C.2       1 <0>         0.5556
     23 O1          0.0061   -4.0119   -4.9015 O.2       1 <0>        -0.5600
     24 N8         -0.0205   -2.1158   -6.0583 N.am      1 <0>        -0.6793
     25 C16        -0.0222   -2.8414   -7.3310 C.3       1 <0>         0.0733
     26 H1         -0.6020   -3.7584   -7.2256 H         1 <0>         0.0773
     27 C17        -0.6480   -1.9644   -8.4172 C.3       1 <0>        -0.0801
     28 C18        -2.1222   -1.7198   -8.0888 C.3       1 <0>        -0.1777
     29 C19        -2.7386   -0.8559   -9.1588 C.2       1 <0>         0.4909
     30 O2         -2.0616   -0.4715  -10.0971 O.co2     1 <0>        -0.6975
     31 O3         -3.9143   -0.5414   -9.0862 O.co2     1 <0>        -0.7207
     32 C20         1.3940   -3.1839   -7.7158 C.2       1 <0>         0.4958
     33 O4          2.3190   -2.8526   -6.9939 O.co2     1 <0>        -0.6970
     34 O5          1.6147   -3.7923   -8.7491 O.co2     1 <0>        -0.7014
     35 H2          1.0048    1.8381    0.0023 H         1 <0>         0.0502
     36 H3         -0.5450    1.8219   -0.8730 H         1 <0>         0.0690
     37 H4         -0.5280    1.8123    0.9069 H         1 <0>         0.0657
     38 H5          0.5496   -1.6879    1.1262 H         1 <0>         0.1015
     39 H6          0.5371   -0.1514    2.0246 H         1 <0>         0.0948
     40 H7         -1.4361   -2.9733    0.8382 H         1 <0>         0.1815
     41 H8         -7.6209   -0.5150    4.4689 H         1 <0>         0.4148
     42 H9         -7.5132   -2.0229    3.7358 H         1 <0>         0.4190
     43 H10        -2.6346    2.0814    3.6347 H         1 <0>         0.4250
     44 H11        -4.0722    2.4880    4.4032 H         1 <0>         0.4139
     45 H12         0.0253   -2.6282   -0.2785 H         1 <0>         0.1208
     46 H13         0.0217   -3.8493   -2.4096 H         1 <0>         0.1351
     47 H14        -0.0287   -0.1208   -4.5353 H         1 <0>         0.1282
     48 H15        -0.0359    1.0910   -2.3989 H         1 <0>         0.1244
     49 H16        -0.0300   -1.1459   -6.0530 H         1 <0>         0.3877
     50 H17        -0.1225   -1.0104   -8.4615 H         1 <0>         0.0543
     51 H18        -0.5691   -2.4677   -9.3808 H         1 <0>         0.0783
     52 H19        -2.6477   -2.6737   -8.0445 H         1 <0>         0.0522
     53 H20        -2.2011   -1.2164   -7.1252 H         1 <0>         0.0501
@<TRIPOS>BOND
     1    1    2 1
     2    1   35 1
     3    1   36 1
     4    1   37 1
     5    2    3 1
     6    2   16 1
     7    3    4 1
     8    3   38 1
     9    3   39 1
    10    4    9 ar
    11    4    5 ar
    12    5    6 ar
    13    5   40 1
    14    6    7 ar
    15    7   13 ar
    16    7    8 ar
    17    8    9 ar
    18    8   10 ar
    19   10   11 ar
    20   10   15 1
    21   11   12 ar
    22   12   13 ar
    23   12   14 1
    24   14   41 1
    25   14   42 1
    26   15   43 1
    27   15   44 1
    28   16   21 ar
    29   16   17 ar
    30   17   18 ar
    31   17   45 1
    32   18   19 ar
    33   18   46 1
    34   19   20 ar
    35   19   22 1
    36   20   21 ar
    37   20   47 1
    38   21   48 1
    39   22   23 2
    40   22   24 am
    41   24   25 1
    42   24   49 1
    43   25   26 1
    44   25   27 1
    45   25   32 1
    46   27   28 1
    47   27   50 1
    48   27   51 1
    49   28   29 1
    50   28   52 1
    51   28   53 1
    52   29   30 2
    53   29   31 1
    54   32   33 2
    55   32   34 1
@<TRIPOS>MOLECULE
ZINC29250560
   55    57     0     0     0
SMALL
USER_CHARGES
(2S)-2-[[4-[(2-amino-4-hydroxy-quinazolin-6-yl)methyl-(cyanomethyl)amino]benzoyl]amino]pentanedioic acid
@<TRIPOS>ATOM
      1 C1          2.4720    1.4175   -0.0082 C.ar      1 <0>        -0.0380
      2 C2          3.6525    2.1245   -0.0215 C.ar      1 <0>        -0.1965
      3 C3          3.6319    3.5166   -0.0143 C.ar      1 <0>         0.2176
      4 C4          2.4178    4.1976    0.0015 C.ar      1 <0>        -0.2015
      5 C5          1.2339    3.4963    0.0091 C.ar      1 <0>        -0.0179
      6 C6          1.2512    2.0985    0.0014 C.ar      1 <0>        -0.1539
      7 C7         -0.0162    1.3436    0.0094 C.2       1 <0>         0.5563
      8 O1         -1.0774    1.9372    0.0177 O.2       1 <0>        -0.5612
      9 N1          0.0021   -0.0041    0.0020 N.am      1 <0>        -0.6943
     10 C8         -1.2565   -0.7538    0.0100 C.3       1 <0>         0.1044
     11 H1         -1.9906   -0.1755   -0.5703 H         1 <0>         0.0837
     12 C9         -1.0316   -2.1346   -0.6092 C.3       1 <0>        -0.0844
     13 C10        -0.6634   -1.9775   -2.0859 C.3       1 <0>        -0.1518
     14 C11        -0.4418   -3.3377   -2.6958 C.2       1 <0>         0.4612
     15 O2         -0.5657   -4.3308   -2.0189 O.co2     1 <0>        -0.6391
     16 O3         -0.1069   -3.4459   -3.9912 O.co2     1 <0>        -0.7915
     17 C12        -1.7380   -0.9120    1.4292 C.2       1 <0>         0.4643
     18 O4         -1.0956   -0.4464    2.3405 O.co2     1 <0>        -0.6397
     19 O5         -2.8803   -1.5703    1.6810 O.co2     1 <0>        -0.7713
     20 N2          4.8265    4.2281   -0.0224 N.pl3     1 <0>        -0.6148
     21 C13         4.8066    5.6929   -0.0143 C.3       1 <0>         0.2133
     22 C14         4.8138    6.1761    1.3761 C.1       1 <0>         0.1857
     23 N3          4.8194    6.5490    2.4491 N.1       1 <0>        -0.4231
     24 C15         6.1050    3.5130   -0.0390 C.3       1 <0>         0.1617
     25 C16         6.5292    3.2754   -1.4654 C.ar      1 <0>        -0.1476
     26 C17         6.1360    2.1075   -2.1130 C.ar      1 <0>        -0.0308
     27 C18         6.4983    1.8641   -3.4044 C.ar      1 <0>        -0.1309
     28 C19         7.2881    2.7980   -4.0894 C.ar      1 <0>         0.2221
     29 C20         7.6918    3.9833   -3.4269 C.ar      1 <0>        -0.2280
     30 C21         7.2977    4.2048   -2.1021 C.ar      1 <0>        -0.0052
     31 C22         8.4883    4.9118   -4.1380 C.2       1 <0>         0.5212
     32 N4          8.8182    4.6291   -5.3874 N.am      1 <0>        -0.6224
     33 C23         8.4181    3.5037   -5.9736 C.2       1 <0>         0.6265
     34 N5          7.6751    2.6040   -5.3582 N.2       1 <0>        -0.5755
     35 N6          8.7967    3.2675   -7.2828 N.pl3     1 <0>        -0.8549
     36 O6          8.9018    6.0601   -3.5548 O.2       1 <0>        -0.5971
     37 H2          2.4886    0.3376   -0.0096 H         1 <0>         0.1307
     38 H3          4.5960    1.5990   -0.0334 H         1 <0>         0.1271
     39 H4          2.4051    5.2775    0.0074 H         1 <0>         0.1218
     40 H5          0.2923    4.0252    0.0206 H         1 <0>         0.1337
     41 H6          0.9621   -0.5411   -0.0100 H         1 <0>         0.4044
     42 H7         -0.2137   -2.6451   -0.0797 H         1 <0>         0.0579
     43 H8         -1.9525   -2.7299   -0.5222 H         1 <0>         0.0835
     44 H9         -1.4814   -1.4670   -2.6154 H         1 <0>         0.0595
     45 H10         0.2575   -1.3822   -2.1729 H         1 <0>         0.0585
     46 H11         5.6945    6.0746   -0.5397 H         1 <0>         0.1207
     47 H12         3.8984    6.0501   -0.5219 H         1 <0>         0.1247
     48 H13         6.8686    4.1151    0.4752 H         1 <0>         0.0867
     49 H14         5.9918    2.5474    0.4756 H         1 <0>         0.0963
     50 H15         5.5311    1.3848   -1.5854 H         1 <0>         0.1397
     51 H16         6.1824    0.9555   -3.8954 H         1 <0>         0.1433
     52 H17         7.6003    5.1050   -1.5878 H         1 <0>         0.1354
     53 H18         8.4785    2.3444   -7.7893 H         1 <0>         0.4560
     54 H19         9.4160    4.0028   -7.8174 H         1 <0>         0.4319
     55 H20         9.4366    5.3316   -5.9654 H         1 <0>         0.4414
@<TRIPOS>BOND
     1    1    6 ar
     2    1    2 ar
     3    1   37 1
     4    2    3 ar
     5    2   38 1
     6    3    4 ar
     7    3   20 1
     8    4    5 ar
     9    4   39 1
    10    5    6 ar
    11    5   40 1
    12    6    7 1
    13    7    8 2
    14    7    9 am
    15    9   10 1
    16    9   41 1
    17   10   11 1
    18   10   12 1
    19   10   17 1
    20   12   13 1
    21   12   42 1
    22   12   43 1
    23   13   14 1
    24   13   44 1
    25   13   45 1
    26   14   15 2
    27   14   16 1
    28   17   18 2
    29   17   19 1
    30   20   21 1
    31   20   24 1
    32   21   22 1
    33   21   46 1
    34   21   47 1
    35   22   23 3
    36   24   25 1
    37   24   48 1
    38   24   49 1
    39   25   30 ar
    40   25   26 ar
    41   26   27 ar
    42   26   50 1
    43   27   28 ar
    44   27   51 1
    45   28   34 1
    46   28   29 ar
    47   29   30 ar
    48   29   31 1
    49   30   52 1
    50   31   32 am
    51   31   36 2
    52   32   33 1
    53   32   55 1
    54   33   34 2
    55   33   35 1
    56   35   53 1
    57   35   54 1
@<TRIPOS>MOLECULE
ZINC29348254
   58    60     0     0     0
SMALL
USER_CHARGES

@<TRIPOS>ATOM
      1 C1         -1.2540    1.2726    1.9728 C.ar      1 <0>        -0.1278
      2 C2         -0.1902    2.0888    2.2975 C.ar      1 <0>        -0.0639
      3 C3          1.1143    1.6023    2.1983 C.ar      1 <0>        -0.1034
      4 C4          1.3333    0.2918    1.7708 C.ar      1 <0>        -0.0822
      5 C5          0.2606   -0.5139    1.4492 C.ar      1 <0>        -0.1234
      6 C6         -1.0300   -0.0255    1.5497 C.ar      1 <0>        -0.0870
      7 C7         -2.1969   -0.9114    1.1967 C.3       1 <0>        -0.0745
      8 C8         -2.5253   -0.7543   -0.2893 C.3       1 <0>        -0.1190
      9 C9         -3.7100   -1.6537   -0.6477 C.3       1 <0>        -0.1161
     10 C10        -3.9836   -1.5622   -2.1502 C.3       1 <0>        -0.0399
     11 H1         -3.0711   -1.7587   -2.7130 H         1 <0>         0.1099
     12 C11        -4.5452   -0.1692   -2.5090 C.3       1 <0>        -0.1118
     13 C12        -5.5394   -0.4955   -3.6444 C.3       1 <0>        -0.0883
     14 C13        -5.9599   -1.9278   -3.4030 C.ar      1 <0>         0.2137
     15 C14        -5.0651   -2.5398   -2.5468 C.ar      1 <0>        -0.2340
     16 C15        -5.2758   -3.8750   -2.1971 C.ar      1 <0>         0.5428
     17 N1         -6.3279   -4.5142   -2.6990 N.ar      1 <0>        -0.5714
     18 C16        -7.1640   -3.8947   -3.5183 C.ar      1 <0>         0.6630
     19 N2         -6.9899   -2.6239   -3.8654 N.ar      1 <0>        -0.5617
     20 N3         -8.2497   -4.5879   -4.0242 N.pl3     1 <0>        -0.7959
     21 N4         -4.4017   -4.5239   -1.3404 N.pl3     1 <0>        -0.7809
     22 C17         2.2591    2.4715    2.5442 C.2       1 <0>         0.5391
     23 O1          2.0654    3.6125    2.9158 O.2       1 <0>        -0.5505
     24 N5          3.5176    1.9988    2.4474 N.am      1 <0>        -0.6726
     25 C18         4.6520    2.8601    2.7901 C.3       1 <0>         0.0727
     26 H2          4.3750    3.5139    3.6170 H         1 <0>         0.0791
     27 C19         5.8439    1.9938    3.2020 C.3       1 <0>        -0.0830
     28 C20         5.5053    1.2393    4.4892 C.3       1 <0>        -0.1770
     29 C21         6.6793    0.3860    4.8949 C.2       1 <0>         0.4905
     30 O2          7.6929    0.3818    4.2174 O.co2     1 <0>        -0.6963
     31 O3          6.6155   -0.3001    5.9008 O.co2     1 <0>        -0.7187
     32 C22         5.0279    3.6955    1.5935 C.2       1 <0>         0.4986
     33 O4          5.5163    4.8014    1.7512 O.co2     1 <0>        -0.6975
     34 O5          4.8436    3.2655    0.4676 O.co2     1 <0>        -0.7006
     35 H3         -2.2641    1.6463    2.0533 H         1 <0>         0.1205
     36 H4         -0.3664    3.1020    2.6273 H         1 <0>         0.1350
     37 H5          2.3402   -0.0905    1.6916 H         1 <0>         0.1311
     38 H6          0.4287   -1.5281    1.1183 H         1 <0>         0.1222
     39 H7         -1.9403   -1.9502    1.4043 H         1 <0>         0.0701
     40 H8         -3.0636   -0.6252    1.7926 H         1 <0>         0.0702
     41 H9         -2.7819    0.2845   -0.4969 H         1 <0>         0.0741
     42 H10        -1.6586   -1.0405   -0.8852 H         1 <0>         0.0730
     43 H11        -3.4764   -2.6849   -0.3830 H         1 <0>         0.0613
     44 H12        -4.5928   -1.3283   -0.0972 H         1 <0>         0.0742
     45 H13        -5.0618    0.2717   -1.6564 H         1 <0>         0.0948
     46 H14        -3.7522    0.4883   -2.8653 H         1 <0>         0.1094
     47 H15        -6.4038    0.1664   -3.5920 H         1 <0>         0.1101
     48 H16        -5.0497   -0.4033   -4.6139 H         1 <0>         0.1236
     49 H17        -8.3906   -5.5154   -3.7777 H         1 <0>         0.4439
     50 H18        -8.8698   -4.1463   -4.6253 H         1 <0>         0.4285
     51 H19        -3.5345   -4.1349   -1.1463 H         1 <0>         0.4341
     52 H20        -4.6567   -5.3673   -0.9347 H         1 <0>         0.4257
     53 H21         3.6721    1.0883    2.1508 H         1 <0>         0.3909
     54 H22         6.0648    1.2791    2.4093 H         1 <0>         0.0603
     55 H23         6.7134    2.6290    3.3712 H         1 <0>         0.0744
     56 H24         5.2844    1.9540    5.2819 H         1 <0>         0.0533
     57 H25         4.6357    0.6041    4.3200 H         1 <0>         0.0494
     58 H26        -7.6212   -2.2003   -4.4678 H         1 <0>         0.4381
@<TRIPOS>BOND
     1    1    6 ar
     2    1    2 ar
     3    1   35 1
     4    2    3 ar
     5    2   36 1
     6    3    4 ar
     7    3   22 1
     8    4    5 ar
     9    4   37 1
    10    5    6 ar
    11    5   38 1
    12    6    7 1
    13    7    8 1
    14    7   39 1
    15    7   40 1
    16    8    9 1
    17    8   41 1
    18    8   42 1
    19    9   10 1
    20    9   43 1
    21    9   44 1
    22   10   11 1
    23   10   15 1
    24   10   12 1
    25   12   13 1
    26   12   45 1
    27   12   46 1
    28   13   14 1
    29   13   47 1
    30   13   48 1
    31   14   19 ar
    32   14   15 ar
    33   15   16 ar
    34   16   17 ar
    35   16   21 1
    36   17   18 ar
    37   18   19 ar
    38   18   20 1
    39   19   58 1
    40   20   49 1
    41   20   50 1
    42   21   51 1
    43   21   52 1
    44   22   23 2
    45   22   24 am
    46   24   25 1
    47   24   53 1
    48   25   26 1
    49   25   27 1
    50   25   32 1
    51   27   28 1
    52   27   54 1
    53   27   55 1
    54   28   29 1
    55   28   56 1
    56   28   57 1
    57   29   30 2
    58   29   31 1
    59   32   33 2
    60   32   34 1
@<TRIPOS>MOLECULE
ZINC40665067
   58    60     0     0     0
SMALL
USER_CHARGES

@<TRIPOS>ATOM
      1 C1          0.3329    0.3054    0.7418 C.ar      1 <0>        -0.1282
      2 C2          1.6370    0.7332    0.8816 C.ar      1 <0>        -0.0641
      3 C3          2.6621   -0.2015    1.0361 C.ar      1 <0>        -0.1035
      4 C4          2.3598   -1.5641    1.0479 C.ar      1 <0>        -0.0821
      5 C5          1.0515   -1.9785    0.9070 C.ar      1 <0>        -0.1230
      6 C6          0.0401   -1.0468    0.7543 C.ar      1 <0>        -0.0870
      7 C7         -1.3867   -1.5068    0.6010 C.3       1 <0>        -0.0745
      8 C8         -1.6996   -1.7126   -0.8824 C.3       1 <0>        -0.1189
      9 C9         -3.1483   -2.1796   -1.0381 C.3       1 <0>        -0.1161
     10 C10        -3.4933   -2.2845   -2.5250 C.3       1 <0>        -0.0393
     11 H1         -3.2739   -1.3443   -3.0309 H         1 <0>         0.1089
     12 C11        -2.7055   -3.4411   -3.1778 C.3       1 <0>        -0.1124
     13 C12        -3.7118   -3.9822   -4.2164 C.3       1 <0>        -0.0888
     14 C13        -5.0756   -3.6235   -3.6705 C.ar      1 <0>         0.2149
     15 C14        -4.9493   -2.6475   -2.7011 C.ar      1 <0>        -0.2345
     16 C15        -6.1014   -2.1738   -2.0705 C.ar      1 <0>         0.5429
     17 N1         -7.2812   -2.6751   -2.4230 N.ar      1 <0>        -0.5715
     18 C16        -7.3634   -3.6095   -3.3580 C.ar      1 <0>         0.6629
     19 N2         -6.2835   -4.0809   -3.9723 N.ar      1 <0>        -0.5613
     20 N3         -8.6064   -4.1114   -3.7020 N.pl3     1 <0>        -0.7958
     21 N4         -6.0164   -1.1968   -1.0921 N.pl3     1 <0>        -0.7823
     22 C17         4.0620    0.2498    1.1860 C.2       1 <0>         0.5391
     23 O1          4.3223    1.4371    1.1750 O.2       1 <0>        -0.5506
     24 N5          5.0495   -0.6553    1.3350 N.am      1 <0>        -0.6725
     25 C18         6.4366   -0.2081    1.4836 C.3       1 <0>         0.0727
     26 H2          6.4593    0.7246    2.0473 H         1 <0>         0.0791
     27 C19         7.2392   -1.2752    2.2306 C.3       1 <0>        -0.0830
     28 C20         6.7028   -1.4113    3.6570 C.3       1 <0>        -0.1770
     29 C21         7.4933   -2.4623    4.3928 C.2       1 <0>         0.4904
     30 O2          8.4016   -3.0482    3.8286 O.co2     1 <0>        -0.6964
     31 O3          7.2247   -2.7268    5.5523 O.co2     1 <0>        -0.7186
     32 C22         7.0416    0.0135    0.1213 C.2       1 <0>         0.4986
     33 O4          7.9121    0.8538   -0.0298 O.co2     1 <0>        -0.6976
     34 O5          6.6607   -0.6474   -0.8298 O.co2     1 <0>        -0.7005
     35 H3         -0.4617    1.0277    0.6266 H         1 <0>         0.1201
     36 H4          1.8643    1.7889    0.8713 H         1 <0>         0.1349
     37 H5          3.1484   -2.2924    1.1667 H         1 <0>         0.1312
     38 H6          0.8163   -3.0325    0.9160 H         1 <0>         0.1225
     39 H7         -1.5248   -2.4468    1.1353 H         1 <0>         0.0714
     40 H8         -2.0578   -0.7529    1.0127 H         1 <0>         0.0689
     41 H9         -1.5615   -0.7726   -1.4167 H         1 <0>         0.0718
     42 H10        -1.0286   -2.4665   -1.2941 H         1 <0>         0.0752
     43 H11        -3.2679   -3.1556   -0.5676 H         1 <0>         0.0747
     44 H12        -3.8148   -1.4617   -0.5602 H         1 <0>         0.0609
     45 H13        -1.8056   -3.0690   -3.6675 H         1 <0>         0.1098
     46 H14        -2.4592   -4.2062   -2.4416 H         1 <0>         0.0958
     47 H15        -3.5530   -3.5027   -5.1823 H         1 <0>         0.1237
     48 H16        -3.6142   -5.0638   -4.3096 H         1 <0>         0.1110
     49 H17        -9.4031   -3.7787   -3.2600 H         1 <0>         0.4438
     50 H18        -8.6809   -4.7960   -4.3852 H         1 <0>         0.4287
     51 H19        -5.2022   -0.6789   -0.9933 H         1 <0>         0.4336
     52 H20        -6.7711   -1.0306   -0.5059 H         1 <0>         0.4253
     53 H21         4.8417   -1.6027    1.3438 H         1 <0>         0.3910
     54 H22         7.1434   -2.2300    1.7138 H         1 <0>         0.0603
     55 H23         8.2890   -0.9836    2.2635 H         1 <0>         0.0744
     56 H24         6.7986   -0.4564    4.1739 H         1 <0>         0.0533
     57 H25         5.6531   -1.7029    3.6242 H         1 <0>         0.0494
     58 H26        -6.3791   -4.7654   -4.6529 H         1 <0>         0.4384
@<TRIPOS>BOND
     1    1    6 ar
     2    1    2 ar
     3    1   35 1
     4    2    3 ar
     5    2   36 1
     6    3    4 ar
     7    3   22 1
     8    4    5 ar
     9    4   37 1
    10    5    6 ar
    11    5   38 1
    12    6    7 1
    13    7    8 1
    14    7   39 1
    15    7   40 1
    16    8    9 1
    17    8   41 1
    18    8   42 1
    19    9   10 1
    20    9   43 1
    21    9   44 1
    22   10   11 1
    23   10   15 1
    24   10   12 1
    25   12   13 1
    26   12   45 1
    27   12   46 1
    28   13   14 1
    29   13   47 1
    30   13   48 1
    31   14   19 ar
    32   14   15 ar
    33   15   16 ar
    34   16   17 ar
    35   16   21 1
    36   17   18 ar
    37   18   19 ar
    38   18   20 1
    39   19   58 1
    40   20   49 1
    41   20   50 1
    42   21   51 1
    43   21   52 1
    44   22   23 2
    45   22   24 am
    46   24   25 1
    47   24   53 1
    48   25   26 1
    49   25   27 1
    50   25   32 1
    51   27   28 1
    52   27   54 1
    53   27   55 1
    54   28   29 1
    55   28   56 1
    56   28   57 1
    57   29   30 2
    58   29   31 1
    59   32   33 2
    60   32   34 1
@<TRIPOS>MOLECULE
ZINC06920406
   53    55     0     0     0
SMALL
USER_CHARGES

@<TRIPOS>ATOM
      1 C1         -0.0178    1.4608    0.0101 C.3       1 <0>         0.0941
      2 N1          0.0021   -0.0041    0.0020 N.pl3     1 <0>        -0.6227
      3 C2          0.0241   -0.7433    1.2666 C.3       1 <0>         0.1846
      4 C3         -1.3889   -1.0161    1.7137 C.ar      1 <0>         0.0297
      5 C4         -1.9892   -2.2351    1.3999 C.ar      1 <0>         0.1557
      6 N2         -3.2219   -2.4965    1.7797 N.ar      1 <0>        -0.4368
      7 C5         -3.9051   -1.5830    2.4739 C.ar      1 <0>         0.3719
      8 C6         -3.2902   -0.3458    2.7901 C.ar      1 <0>        -0.0918
      9 N3         -2.0425   -0.1038    2.4012 N.ar      1 <0>        -0.3728
     10 C7         -4.0706    0.6301    3.5527 C.ar      1 <0>         0.5431
     11 N4         -5.3055    0.2953    3.9004 N.ar      1 <0>        -0.6300
     12 C8         -5.8196   -0.8850    3.5693 C.ar      1 <0>         0.6360
     13 N5         -5.1609   -1.7987    2.8845 N.ar      1 <0>        -0.5986
     14 N6         -7.1130   -1.1692    3.9639 N.pl3     1 <0>        -0.8100
     15 N7         -3.5402    1.8539    3.8976 N.pl3     1 <0>        -0.7944
     16 C9          0.0000   -0.6928   -1.2059 C.ar      1 <0>         0.2189
     17 C10         0.0132   -2.0849   -1.2118 C.ar      1 <0>        -0.2116
     18 C11         0.0112   -2.7693   -2.4056 C.ar      1 <0>        -0.0155
     19 C12        -0.0041   -2.0653   -3.6133 C.ar      1 <0>        -0.1616
     20 C13        -0.0173   -0.6674   -3.6040 C.ar      1 <0>        -0.0356
     21 C14        -0.0210    0.0112   -2.4068 C.ar      1 <0>        -0.1983
     22 C15        -0.0058   -2.7960   -4.8948 C.2       1 <0>         0.5487
     23 O1          0.0061   -4.0119   -4.9015 O.2       1 <0>        -0.5585
     24 N8         -0.0205   -2.1158   -6.0583 N.am      1 <0>        -0.6789
     25 C16        -0.0222   -2.8414   -7.3310 C.3       1 <0>         0.0745
     26 H1          0.5768   -3.7469   -7.2338 H         1 <0>         0.0773
     27 C17         0.5711   -1.9524   -8.4257 C.3       1 <0>        -0.0822
     28 C18         2.0446   -1.6789   -8.1177 C.3       1 <0>        -0.1766
     29 C19         2.6291   -0.8032   -9.1959 C.2       1 <0>         0.4909
     30 O2          1.9317   -0.4323  -10.1247 O.co2     1 <0>        -0.6980
     31 O3          3.7993   -0.4657   -9.1396 O.co2     1 <0>        -0.7201
     32 C20        -1.4367   -3.2117   -7.6962 C.2       1 <0>         0.4981
     33 O4         -2.3634   -2.5041   -7.3399 O.co2     1 <0>        -0.6991
     34 O5         -1.6542   -4.2188   -8.3480 O.co2     1 <0>        -0.7022
     35 H2          1.0048    1.8381    0.0023 H         1 <0>         0.0507
     36 H3         -0.5450    1.8219   -0.8730 H         1 <0>         0.0690
     37 H4         -0.5280    1.8123    0.9069 H         1 <0>         0.0658
     38 H5          0.5496   -1.6879    1.1262 H         1 <0>         0.1014
     39 H6          0.5371   -0.1514    2.0246 H         1 <0>         0.0950
     40 H7         -1.4361   -2.9733    0.8382 H         1 <0>         0.1814
     41 H8         -7.6209   -0.5150    4.4689 H         1 <0>         0.4147
     42 H9         -7.5132   -2.0229    3.7358 H         1 <0>         0.4190
     43 H10        -2.6346    2.0814    3.6347 H         1 <0>         0.4250
     44 H11        -4.0722    2.4880    4.4032 H         1 <0>         0.4139
     45 H12         0.0253   -2.6282   -0.2785 H         1 <0>         0.1211
     46 H13         0.0217   -3.8493   -2.4096 H         1 <0>         0.1354
     47 H14        -0.0287   -0.1208   -4.5353 H         1 <0>         0.1292
     48 H15        -0.0359    1.0910   -2.3989 H         1 <0>         0.1249
     49 H16        -0.0300   -1.1459   -6.0530 H         1 <0>         0.3899
     50 H17         0.4888   -2.4573   -9.3882 H         1 <0>         0.0717
     51 H18         0.0264   -1.0090   -8.4626 H         1 <0>         0.0594
     52 H19         2.1270   -1.1740   -7.1552 H         1 <0>         0.0514
     53 H20         2.5893   -2.6223   -8.0808 H         1 <0>         0.0527
@<TRIPOS>BOND
     1    1    2 1
     2    1   35 1
     3    1   36 1
     4    1   37 1
     5    2    3 1
     6    2   16 1
     7    3    4 1
     8    3   38 1
     9    3   39 1
    10    4    9 ar
    11    4    5 ar
    12    5    6 ar
    13    5   40 1
    14    6    7 ar
    15    7   13 ar
    16    7    8 ar
    17    8    9 ar
    18    8   10 ar
    19   10   11 ar
    20   10   15 1
    21   11   12 ar
    22   12   13 ar
    23   12   14 1
    24   14   41 1
    25   14   42 1
    26   15   43 1
    27   15   44 1
    28   16   21 ar
    29   16   17 ar
    30   17   18 ar
    31   17   45 1
    32   18   19 ar
    33   18   46 1
    34   19   20 ar
    35   19   22 1
    36   20   21 ar
    37   20   47 1
    38   21   48 1
    39   22   23 2
    40   22   24 am
    41   24   25 1
    42   24   49 1
    43   25   26 1
    44   25   27 1
    45   25   32 1
    46   27   28 1
    47   27   50 1
    48   27   51 1
    49   28   29 1
    50   28   52 1
    51   28   53 1
    52   29   30 2
    53   29   31 1
    54   32   33 2
    55   32   34 1
@<TRIPOS>MOLECULE
ZINC00000640
   43    45     0     0     0
SMALL
USER_CHARGES
8-[(2,5-dimethoxyphenyl)methyl]-7-methyl-2,4,10-triazabicyclo[4.4.0]deca-2,4,6,8,10-pentaene-3,5-diamine
@<TRIPOS>ATOM
      1 C1          3.5065    8.2770   -0.3471 C.3       1 <0>        -0.1506
      2 C2          3.5106    7.2923   -1.4879 C.ar      1 <0>         0.0340
      3 C3          3.5305    5.9421   -1.2542 C.ar      1 <0>        -0.1724
      4 C4          3.5392    5.0549   -2.3234 C.ar      1 <0>         0.2009
      5 N1          3.5174    5.4726   -3.5696 N.ar      1 <0>        -0.4888
      6 C5          3.4976    6.7731   -3.8623 C.ar      1 <0>         0.4050
      7 C6          3.4936    7.7296   -2.8172 C.ar      1 <0>        -0.2731
      8 C7          3.4719    9.1049   -3.1575 C.ar      1 <0>         0.5206
      9 N2          3.4563    9.4333   -4.4415 N.ar      1 <0>        -0.6171
     10 C8          3.4607    8.5036   -5.3924 C.ar      1 <0>         0.6192
     11 N3          3.4806    7.2104   -5.1296 N.ar      1 <0>        -0.5903
     12 N4          3.4432    8.9092   -6.7132 N.pl3     1 <0>        -0.8137
     13 N5          3.4667   10.0751   -2.1796 N.pl3     1 <0>        -0.8468
     14 C9          3.5493    5.4207    0.1596 C.3       1 <0>        -0.0189
     15 C10         3.7139    3.9228    0.1405 C.ar      1 <0>        -0.0822
     16 C11         2.6074    3.1047    0.2626 C.ar      1 <0>        -0.1082
     17 C12         2.7589    1.7263    0.2455 C.ar      1 <0>         0.0958
     18 C13         4.0221    1.1690    0.1115 C.ar      1 <0>        -0.1673
     19 C14         5.1277    1.9869   -0.0164 C.ar      1 <0>        -0.1656
     20 C15         4.9761    3.3657    0.0008 C.ar      1 <0>         0.0984
     21 O1          6.0652    4.1710   -0.1199 O.3       1 <0>        -0.3104
     22 C16         7.3342    3.5292   -0.2604 C.3       1 <0>         0.0264
     23 O2          1.6698    0.9210    0.3657 O.3       1 <0>        -0.3164
     24 C17         1.8996   -0.4891    0.3399 C.3       1 <0>         0.0270
     25 H1          4.5237    8.6214   -0.1608 H         1 <0>         0.0854
     26 H2          2.8761    9.1282   -0.6042 H         1 <0>         0.0984
     27 H3          3.1167    7.7937    0.5487 H         1 <0>         0.0825
     28 H4          3.5599    3.9935   -2.1253 H         1 <0>         0.1602
     29 H5          3.4458    8.2486   -7.4235 H         1 <0>         0.4176
     30 H6          3.4285    9.8546   -6.9301 H         1 <0>         0.4150
     31 H7          4.0336    9.9793   -1.3984 H         1 <0>         0.4180
     32 H8          2.8962   10.8541   -2.2722 H         1 <0>         0.4095
     33 H9          2.6122    5.6769    0.6538 H         1 <0>         0.0894
     34 H10         4.3809    5.8707    0.7018 H         1 <0>         0.0937
     35 H11         1.6244    3.5386    0.3718 H         1 <0>         0.1400
     36 H12         4.1407    0.0956    0.1029 H         1 <0>         0.1317
     37 H13         6.1107    1.5530   -0.1252 H         1 <0>         0.1325
     38 H14         7.3295    2.9068   -1.1552 H         1 <0>         0.0552
     39 H15         8.1156    4.2842   -0.3470 H         1 <0>         0.0995
     40 H16         7.5254    2.9070    0.6139 H         1 <0>         0.0549
     41 H17         0.9500   -1.0140    0.4447 H         1 <0>         0.1009
     42 H18         2.3642   -0.7643   -0.6070 H         1 <0>         0.0555
     43 H19         2.5598   -0.7648    1.1622 H         1 <0>         0.0547
@<TRIPOS>BOND
     1    1    2 1
     2    1   25 1
     3    1   26 1
     4    1   27 1
     5    2    7 ar
     6    2    3 ar
     7    3    4 ar
     8    3   14 1
     9    4    5 ar
    10    4   28 1
    11    5    6 ar
    12    6   11 ar
    13    6    7 ar
    14    7    8 ar
    15    8    9 ar
    16    8   13 1
    17    9   10 ar
    18   10   11 ar
    19   10   12 1
    20   12   29 1
    21   12   30 1
    22   13   31 1
    23   13   32 1
    24   14   15 1
    25   14   33 1
    26   14   34 1
    27   15   20 ar
    28   15   16 ar
    29   16   17 ar
    30   16   35 1
    31   17   18 ar
    32   17   23 1
    33   18   19 ar
    34   18   36 1
    35   19   20 ar
    36   19   37 1
    37   20   21 1
    38   21   22 1
    39   22   38 1
    40   22   39 1
    41   22   40 1
    42   23   24 1
    43   24   41 1
    44   24   42 1
    45   24   43 1
@<TRIPOS>MOLECULE
ZINC00000640
   44    46     0     0     0
SMALL
USER_CHARGES
6-[(2,5-dimethoxyphenyl)methyl]-5-methyl-pyrido[3,2-e]pyrimidine-2,4-diamine
@<TRIPOS>ATOM
      1 C1          3.5026    8.2770   -0.3471 C.3       1 <0>        -0.1623
      2 C2          3.5068    7.2922   -1.4879 C.ar      1 <0>         0.0415
      3 C3          3.5339    5.9421   -1.2542 C.ar      1 <0>        -0.1364
      4 C4          3.5435    5.0550   -2.3234 C.ar      1 <0>         0.2418
      5 N1          3.5212    5.4727   -3.5696 N.ar      1 <0>        -0.4732
      6 C5          3.4882    6.7729   -3.8622 C.ar      1 <0>         0.3969
      7 C6          3.4834    7.7294   -2.8171 C.ar      1 <0>        -0.2387
      8 C7          3.4615    9.1047   -3.1576 C.ar      1 <0>         0.5725
      9 N2          3.4329    9.4328   -4.4414 N.ar      1 <0>        -0.5726
     10 C8          3.4322    8.5030   -5.3922 C.ar      1 <0>         0.6045
     11 N3          3.4026    8.9083   -6.7128 N.pl3     1 <0>        -0.7947
     12 N4          3.4624   10.0751   -2.1798 N.pl3     1 <0>        -0.8206
     13 C9          3.5533    5.4208    0.1596 C.3       1 <0>        -0.0266
     14 C10         3.7195    3.9230    0.1404 C.ar      1 <0>        -0.1017
     15 C11         2.6139    3.1038    0.2626 C.ar      1 <0>        -0.1085
     16 C12         2.7669    1.7255    0.2455 C.ar      1 <0>         0.1008
     17 C13         4.0306    1.1696    0.1114 C.ar      1 <0>        -0.1595
     18 C14         5.1354    1.9886   -0.0165 C.ar      1 <0>        -0.1615
     19 C15         4.9823    3.3673    0.0007 C.ar      1 <0>         0.0962
     20 O1          6.0706    4.1737   -0.1201 O.3       1 <0>        -0.3165
     21 C16         7.3402    3.5333   -0.2606 C.3       1 <0>         0.0247
     22 O2          1.6786    0.9191    0.3657 O.3       1 <0>        -0.3147
     23 C17         1.9099   -0.4908    0.3399 C.3       1 <0>         0.0249
     24 H1          4.5190    8.6255   -0.1643 H         1 <0>         0.1026
     25 H2          2.8678    9.1256   -0.6021 H         1 <0>         0.0980
     26 H3          3.1178    7.7921    0.5500 H         1 <0>         0.1045
     27 H4          3.5700    3.9937   -2.1254 H         1 <0>         0.1833
     28 H5          3.4016    8.2476   -7.4231 H         1 <0>         0.4471
     29 H6          3.3829    9.8536   -6.9297 H         1 <0>         0.4240
     30 H7          4.0364    9.9808   -1.4036 H         1 <0>         0.4469
     31 H8          2.8892   10.8526   -2.2675 H         1 <0>         0.4310
     32 H9          2.6160    5.6760    0.6538 H         1 <0>         0.1032
     33 H10         4.3845    5.8716    0.7017 H         1 <0>         0.1063
     34 H11         1.6305    3.5366    0.3719 H         1 <0>         0.1418
     35 H12         4.1504    0.0963    0.1028 H         1 <0>         0.1363
     36 H13         6.1188    1.5558   -0.1254 H         1 <0>         0.1363
     37 H14         7.3361    2.9109   -1.1555 H         1 <0>         0.0572
     38 H15         8.1208    4.2891   -0.3473 H         1 <0>         0.1016
     39 H16         7.5321    2.9113    0.6136 H         1 <0>         0.0593
     40 H17         0.9609   -1.0167    0.4447 H         1 <0>         0.1049
     41 H18         2.3748   -0.7655   -0.6070 H         1 <0>         0.0575
     42 H19         2.5705   -0.7658    1.1622 H         1 <0>         0.0577
     43 N5          3.4593    7.1626   -5.1838 N.ar      1 <0>        -0.4652
     44 H20         3.4117   10.3956   -4.7111 H         1 <0>         0.4493
@<TRIPOS>BOND
     1    1    2 1
     2    1   24 1
     3    1   25 1
     4    1   26 1
     5    2    7 ar
     6    2    3 ar
     7    3   13 1
     8    3    4 ar
     9    4   27 1
    10    4    5 ar
    11    5    6 ar
    12    6    7 ar
    13    6   43 ar
    14    7    8 ar
    15    8   12 1
    16    8    9 ar
    17    9   10 ar
    18    9   44 1
    19   10   11 1
    20   10   43 ar
    21   11   28 1
    22   11   29 1
    23   12   30 1
    24   12   31 1
    25   13   14 1
    26   13   32 1
    27   13   33 1
    28   14   19 ar
    29   14   15 ar
    30   15   16 ar
    31   15   34 1
    32   16   17 ar
    33   16   22 1
    34   17   18 ar
    35   17   35 1
    36   18   19 ar
    37   18   36 1
    38   19   20 1
    39   20   21 1
    40   21   37 1
    41   21   38 1
    42   21   39 1
    43   22   23 1
    44   23   40 1
    45   23   41 1
    46   23   42 1
@<TRIPOS>MOLECULE
ZINC00000640
   44    46     0     0     0
SMALL
USER_CHARGES
8-[(2,5-dimethoxyphenyl)methyl]-7-methyl-2,4,10-triazabicyclo[4.4.0]deca-2,4,6,8,10-pentaene-3,5-diamine
@<TRIPOS>ATOM
      1 C1          3.5065    8.2770   -0.3471 C.3       1 <0>        -0.1639
      2 C2          3.5106    7.2923   -1.4879 C.ar      1 <0>         0.0541
      3 C3          3.5305    5.9421   -1.2542 C.ar      1 <0>        -0.1302
      4 C4          3.5392    5.0549   -2.3234 C.ar      1 <0>         0.2243
      5 N1          3.5174    5.4726   -3.5696 N.ar      1 <0>        -0.4980
      6 C5          3.4976    6.7731   -3.8623 C.ar      1 <0>         0.3907
      7 C6          3.4936    7.7296   -2.8172 C.ar      1 <0>        -0.2267
      8 C7          3.4719    9.1049   -3.1575 C.ar      1 <0>         0.5800
      9 N2          3.4563    9.4333   -4.4415 N.ar      1 <0>        -0.5730
     10 C8          3.4607    8.5036   -5.3924 C.ar      1 <0>         0.6920
     11 N3          3.4432    8.9092   -6.7132 N.pl3     1 <0>        -0.7812
     12 N4          3.4667   10.0751   -2.1796 N.pl3     1 <0>        -0.8037
     13 C9          3.5493    5.4207    0.1596 C.3       1 <0>        -0.0285
     14 C10         3.7139    3.9228    0.1405 C.ar      1 <0>        -0.1017
     15 C11         2.6074    3.1047    0.2626 C.ar      1 <0>        -0.1086
     16 C12         2.7589    1.7263    0.2455 C.ar      1 <0>         0.1007
     17 C13         4.0221    1.1690    0.1115 C.ar      1 <0>        -0.1597
     18 C14         5.1277    1.9869   -0.0164 C.ar      1 <0>        -0.1619
     19 C15         4.9761    3.3657    0.0008 C.ar      1 <0>         0.0960
     20 O1          6.0652    4.1710   -0.1199 O.3       1 <0>        -0.3162
     21 C16         7.3342    3.5292   -0.2604 C.3       1 <0>         0.0247
     22 O2          1.6698    0.9210    0.3657 O.3       1 <0>        -0.3147
     23 C17         1.8996   -0.4891    0.3399 C.3       1 <0>         0.0249
     24 H1          4.5237    8.6214   -0.1608 H         1 <0>         0.1055
     25 H2          2.8761    9.1282   -0.6042 H         1 <0>         0.1044
     26 H3          3.1167    7.7937    0.5487 H         1 <0>         0.1039
     27 H4          3.5599    3.9935   -2.1253 H         1 <0>         0.1849
     28 H5          3.4458    8.2486   -7.4235 H         1 <0>         0.4324
     29 H6          3.4285    9.8546   -6.9301 H         1 <0>         0.4450
     30 H7          4.0336    9.9793   -1.3984 H         1 <0>         0.4363
     31 H8          2.8962   10.8541   -2.2722 H         1 <0>         0.4301
     32 H9          2.6122    5.6769    0.6538 H         1 <0>         0.1050
     33 H10         4.3809    5.8707    0.7018 H         1 <0>         0.1083
     34 H11         1.6244    3.5386    0.3718 H         1 <0>         0.1421
     35 H12         4.1407    0.0956    0.1029 H         1 <0>         0.1364
     36 H13         6.1107    1.5530   -0.1252 H         1 <0>         0.1362
     37 H14         7.3295    2.9068   -1.1552 H         1 <0>         0.0562
     38 H15         8.1156    4.2842   -0.3470 H         1 <0>         0.1022
     39 H16         7.5254    2.9070    0.6139 H         1 <0>         0.0598
     40 H17         0.9500   -1.0140    0.4447 H         1 <0>         0.1052
     41 H18         2.3642   -0.7643   -0.6070 H         1 <0>         0.0570
     42 H19         2.5598   -0.7648    1.1622 H         1 <0>         0.0581
     43 N5          3.4808    7.1631   -5.1841 N.ar      1 <0>        -0.5882
     44 H20         3.4825    6.5360   -5.9630 H         1 <0>         0.4597
@<TRIPOS>BOND
     1    1    2 1
     2    1   24 1
     3    1   25 1
     4    1   26 1
     5    2    7 ar
     6    2    3 ar
     7    3    4 ar
     8    3   13 1
     9    4    5 ar
    10    4   27 1
    11    5    6 ar
    12    6    7 ar
    13    6   43 ar
    14    7    8 ar
    15    8    9 ar
    16    8   12 1
    17    9   10 ar
    18   10   11 1
    19   10   43 ar
    20   11   28 1
    21   11   29 1
    22   12   30 1
    23   12   31 1
    24   13   14 1
    25   13   32 1
    26   13   33 1
    27   14   19 ar
    28   14   15 ar
    29   15   16 ar
    30   15   34 1
    31   16   17 ar
    32   16   22 1
    33   17   18 ar
    34   17   35 1
    35   18   19 ar
    36   18   36 1
    37   19   20 1
    38   20   21 1
    39   21   37 1
    40   21   38 1
    41   21   39 1
    42   22   23 1
    43   23   40 1
    44   23   41 1
    45   23   42 1
    46   43   44 1
@<TRIPOS>MOLECULE
ZINC01618702
   57    59     0     0     0
SMALL
USER_CHARGES
2-[4-[1-[(2,4-diaminopteridin-6-yl)methyl]propyl]benzoyl]aminopentanedioic acid
@<TRIPOS>ATOM
      1 C1          0.0615   -8.7000    1.5086 C.3       1 <0>        -0.1538
      2 C2         -0.0667   -7.1827    1.3590 C.3       1 <0>        -0.1166
      3 C3          1.1674   -6.6351    0.6393 C.3       1 <0>        -0.0405
      4 H1          2.0667   -6.9548    1.1657 H         1 <0>         0.0790
      5 C4          1.1995   -7.1673   -0.7948 C.3       1 <0>        -0.0559
      6 C5          2.4812   -6.7383   -1.4613 C.ar      1 <0>         0.0469
      7 C6          3.6401   -7.4923   -1.2791 C.ar      1 <0>         0.1376
      8 N1          4.7701   -7.1404   -1.8549 N.ar      1 <0>        -0.4464
      9 C7          4.8088   -6.0425   -2.6138 C.ar      1 <0>         0.3677
     10 C8          3.6294   -5.2769   -2.7912 C.ar      1 <0>        -0.0823
     11 N2          2.4972   -5.6527   -2.2051 N.ar      1 <0>        -0.3622
     12 C9          3.7110   -4.0802   -3.6304 C.ar      1 <0>         0.5464
     13 N3          4.8846   -3.7871   -4.1733 N.ar      1 <0>        -0.6317
     14 C10         5.9519   -4.5512   -3.9636 C.ar      1 <0>         0.6397
     15 N4          5.9331   -5.6379   -3.2176 N.ar      1 <0>        -0.6115
     16 N5          7.1444   -4.1874   -4.5596 N.pl3     1 <0>        -0.8115
     17 N6          2.6064   -3.2865   -3.8494 N.pl3     1 <0>        -0.7787
     18 C11         1.1080   -5.1295    0.6151 C.ar      1 <0>        -0.0638
     19 C12         2.1142   -4.3908    1.2119 C.ar      1 <0>        -0.1272
     20 C13         2.0654   -3.0122    1.1942 C.ar      1 <0>        -0.0643
     21 C14         0.9980   -2.3628    0.5719 C.ar      1 <0>        -0.1096
     22 C15        -0.0162   -3.1140   -0.0241 C.ar      1 <0>        -0.0845
     23 C16         0.0472   -4.4919   -0.0034 C.ar      1 <0>        -0.1110
     24 C17         0.9390   -0.8857    0.5494 C.2       1 <0>         0.5512
     25 O1          1.8211   -0.2341    1.0737 O.2       1 <0>        -0.5511
     26 N7         -0.0930   -0.2616   -0.0522 N.am      1 <0>        -0.6824
     27 C18        -0.1515    1.2021   -0.0745 C.3       1 <0>         0.0999
     28 H2          0.8576    1.6048   -0.1615 H         1 <0>         0.0853
     29 C19        -0.9886    1.6609   -1.2702 C.3       1 <0>        -0.0865
     30 C20        -0.2833    1.2643   -2.5687 C.3       1 <0>        -0.1515
     31 C21        -1.1078    1.7162   -3.7464 C.2       1 <0>         0.4612
     32 O2         -2.1523    2.2961   -3.5657 O.co2     1 <0>        -0.6377
     33 C22        -0.7825    1.6990    1.2007 C.2       1 <0>         0.4647
     34 O3         -1.1459    0.9114    2.0418 O.co2     1 <0>        -0.6393
     35 H3         -0.7664   -9.0772    2.1088 H         1 <0>         0.0532
     36 H4          0.0377   -9.1656    0.5233 H         1 <0>         0.0562
     37 H5          1.0048   -8.9382    2.0003 H         1 <0>         0.0542
     38 H6         -0.1447   -6.7257    2.3455 H         1 <0>         0.0685
     39 H7         -0.9593   -6.9490    0.7787 H         1 <0>         0.0690
     40 H8          1.1445   -8.2558   -0.7797 H         1 <0>         0.0888
     41 H9          0.3503   -6.7683   -1.3495 H         1 <0>         0.0896
     42 H10         3.6089   -8.3780   -0.6619 H         1 <0>         0.1737
     43 H11         7.9389   -4.7270   -4.4239 H         1 <0>         0.4154
     44 H12         7.1868   -3.3924   -5.1138 H         1 <0>         0.4160
     45 H13         1.7557   -3.5170   -3.4444 H         1 <0>         0.4284
     46 H14         2.6795   -2.4973   -4.4085 H         1 <0>         0.4218
     47 H15         2.9395   -4.8946    1.6931 H         1 <0>         0.1159
     48 H16         2.8514   -2.4368    1.6604 H         1 <0>         0.1291
     49 H17        -0.8471   -2.6175   -0.5033 H         1 <0>         0.1271
     50 H18        -0.7351   -5.0743   -0.4675 H         1 <0>         0.1232
     51 H19        -0.7969   -0.7815   -0.4706 H         1 <0>         0.3906
     52 H20        -1.9695    1.1873   -1.2301 H         1 <0>         0.0574
     53 H21        -1.1065    2.7440   -1.2369 H         1 <0>         0.0850
     54 H22         0.6976    1.7379   -2.6087 H         1 <0>         0.0599
     55 H23        -0.1654    0.1812   -2.6019 H         1 <0>         0.0559
     56 O4         -0.6818    1.4746   -4.9962 O.co2     1 <0>        -0.7904
     57 O5         -0.9406    3.0166    1.4021 O.co2     1 <0>        -0.7683
@<TRIPOS>BOND
     1    1    2 1
     2    1   35 1
     3    1   36 1
     4    1   37 1
     5    2    3 1
     6    2   38 1
     7    2   39 1
     8    3    4 1
     9    3    5 1
    10    3   18 1
    11    5    6 1
    12    5   40 1
    13    5   41 1
    14    6   11 ar
    15    6    7 ar
    16    7    8 ar
    17    7   42 1
    18    8    9 ar
    19    9   15 ar
    20    9   10 ar
    21   10   11 ar
    22   10   12 ar
    23   12   13 ar
    24   12   17 1
    25   13   14 ar
    26   14   15 ar
    27   14   16 1
    28   16   43 1
    29   16   44 1
    30   17   45 1
    31   17   46 1
    32   18   23 ar
    33   18   19 ar
    34   19   20 ar
    35   19   47 1
    36   20   21 ar
    37   20   48 1
    38   21   22 ar
    39   21   24 1
    40   22   23 ar
    41   22   49 1
    42   23   50 1
    43   24   25 2
    44   24   26 am
    45   26   27 1
    46   26   51 1
    47   27   28 1
    48   27   29 1
    49   27   33 1
    50   29   30 1
    51   29   52 1
    52   29   53 1
    53   30   31 1
    54   30   54 1
    55   30   55 1
    56   31   32 2
    57   31   56 1
    58   33   34 2
    59   33   57 1
@<TRIPOS>MOLECULE
ZINC13220172
   57    59     0     0     0
SMALL
USER_CHARGES
(2S)-2-[[4-[(1R)-1-[(2,4-diaminopteridin-6-yl)methyl]propyl]benzoyl]amino]pentanedioic acid
@<TRIPOS>ATOM
      1 C1          2.5193   -6.4993   -1.3898 C.3       1 <0>        -0.1532
      2 C2          1.1683   -6.9243   -0.8111 C.3       1 <0>        -0.1123
      3 C3          1.0500   -6.4225    0.6295 C.3       1 <0>        -0.0385
      4 H1          1.9021   -6.7775    1.2090 H         1 <0>         0.0796
      5 C4         -0.2447   -6.9523    1.2493 C.3       1 <0>        -0.0598
      6 C5         -0.1733   -8.4539    1.3548 C.ar      1 <0>         0.0634
      7 C6          0.4467   -9.0399    2.4579 C.ar      1 <0>         0.1446
      8 N1          0.5170  -10.3490    2.5747 N.ar      1 <0>        -0.4416
      9 C7         -0.0028  -11.1243    1.6198 C.ar      1 <0>         0.3639
     10 C8         -0.6271  -10.5235    0.4983 C.ar      1 <0>        -0.0871
     11 N2         -0.6921   -9.1994    0.4023 N.ar      1 <0>        -0.3775
     12 C9         -1.1856  -11.4062   -0.5275 C.ar      1 <0>         0.5427
     13 N3         -1.0728  -12.7142   -0.3427 N.ar      1 <0>        -0.6314
     14 C10        -0.4730  -13.2097    0.7351 C.ar      1 <0>         0.6348
     15 N4          0.0461  -12.4605    1.6874 N.ar      1 <0>        -0.6029
     16 N5         -0.3897  -14.5829    0.8644 N.pl3     1 <0>        -0.8118
     17 N6         -1.8076  -10.8953   -1.6455 N.pl3     1 <0>        -0.7915
     18 C11         1.0304   -4.9157    0.6365 C.ar      1 <0>        -0.0681
     19 C12         2.0110   -4.2173    1.3184 C.ar      1 <0>        -0.1251
     20 C13         1.9983   -2.8379    1.3296 C.ar      1 <0>        -0.0629
     21 C14         0.9936   -2.1468    0.6506 C.ar      1 <0>        -0.1085
     22 C15         0.0046   -2.8574   -0.0314 C.ar      1 <0>        -0.0825
     23 C16         0.0316   -4.2367   -0.0386 C.ar      1 <0>        -0.1203
     24 C17         0.9736   -0.6685    0.6587 C.2       1 <0>         0.5509
     25 O1          1.8333   -0.0523    1.2576 O.2       1 <0>        -0.5506
     26 N7          0.0021   -0.0041    0.0020 N.am      1 <0>        -0.6824
     27 C18        -0.0178    1.4608    0.0101 C.3       1 <0>         0.0993
     28 H2          1.0048    1.8381    0.0023 H         1 <0>         0.0864
     29 C19        -0.7578    1.9676   -1.2295 C.3       1 <0>        -0.0863
     30 C20         0.0259    1.5803   -2.4852 C.3       1 <0>        -0.1530
     31 C21        -0.7030    2.0796   -3.7061 C.2       1 <0>         0.4613
     32 O2         -1.7426    2.6832   -3.5843 O.co2     1 <0>        -0.6385
     33 C22        -0.7232    1.9468    1.2500 C.2       1 <0>         0.4651
     34 O3         -1.1640    1.1512    2.0453 O.co2     1 <0>        -0.6396
     35 H3          2.6036   -6.8568   -2.4161 H         1 <0>         0.0500
     36 H4          2.5944   -5.4119   -1.3765 H         1 <0>         0.0629
     37 H5          3.3224   -6.9263   -0.7892 H         1 <0>         0.0488
     38 H6          1.0932   -8.0117   -0.8244 H         1 <0>         0.0585
     39 H7          0.3652   -6.4973   -1.4117 H         1 <0>         0.0693
     40 H8         -0.3734   -6.5240    2.2433 H         1 <0>         0.0936
     41 H9         -1.0898   -6.6720    0.6206 H         1 <0>         0.0924
     42 H10         0.8704   -8.4120    3.2278 H         1 <0>         0.1815
     43 H11         0.0423  -14.9716    1.6411 H         1 <0>         0.4175
     44 H12        -0.7633  -15.1582    0.1786 H         1 <0>         0.4147
     45 H13        -1.8815   -9.9354   -1.7634 H         1 <0>         0.4278
     46 H14        -2.1718  -11.4956   -2.3148 H         1 <0>         0.4146
     47 H15         2.7878   -4.7533    1.8435 H         1 <0>         0.1225
     48 H16         2.7639   -2.2939    1.8629 H         1 <0>         0.1337
     49 H17        -0.7780   -2.3286   -0.5550 H         1 <0>         0.1284
     50 H18        -0.7309   -4.7878   -0.5690 H         1 <0>         0.1242
     51 H19        -0.6840   -0.4958   -0.4759 H         1 <0>         0.3911
     52 H20        -1.7507    1.5197   -1.2683 H         1 <0>         0.0573
     53 H21        -0.8503    3.0525   -1.1791 H         1 <0>         0.0851
     54 H22         1.0188    2.0283   -2.4463 H         1 <0>         0.0607
     55 H23         0.1184    0.4954   -2.5355 H         1 <0>         0.0572
     56 O4         -0.1973    1.8537   -4.9287 O.co2     1 <0>        -0.7904
     57 O5         -0.8617    3.2635    1.4708 O.co2     1 <0>        -0.7683
@<TRIPOS>BOND
     1    1    2 1
     2    1   35 1
     3    1   36 1
     4    1   37 1
     5    2    3 1
     6    2   38 1
     7    2   39 1
     8    3    4 1
     9    3    5 1
    10    3   18 1
    11    5    6 1
    12    5   40 1
    13    5   41 1
    14    6   11 ar
    15    6    7 ar
    16    7    8 ar
    17    7   42 1
    18    8    9 ar
    19    9   15 ar
    20    9   10 ar
    21   10   11 ar
    22   10   12 ar
    23   12   13 ar
    24   12   17 1
    25   13   14 ar
    26   14   15 ar
    27   14   16 1
    28   16   43 1
    29   16   44 1
    30   17   45 1
    31   17   46 1
    32   18   23 ar
    33   18   19 ar
    34   19   20 ar
    35   19   47 1
    36   20   21 ar
    37   20   48 1
    38   21   22 ar
    39   21   24 1
    40   22   23 ar
    41   22   49 1
    42   23   50 1
    43   24   25 2
    44   24   26 am
    45   26   27 1
    46   26   51 1
    47   27   28 1
    48   27   29 1
    49   27   33 1
    50   29   30 1
    51   29   52 1
    52   29   53 1
    53   30   31 1
    54   30   54 1
    55   30   55 1
    56   31   32 2
    57   31   56 1
    58   33   34 2
    59   33   57 1
