@<TRIPOS>MOLECULE
ZINC38322605
   53    55     0     0     0
SMALL
USER_CHARGES

@<TRIPOS>ATOM
      1 C1         -0.0403    1.4615    0.1245 C.3       1 <0>         0.0871
      2 N1         -0.0156    0.0020    0.0007 N.pl3     1 <0>        -0.6341
      3 C2          0.0346   -0.8344    1.2024 C.3       1 <0>         0.1835
      4 C3         -1.3636   -1.0550    1.7197 C.2       1 <0>        -0.1353
      5 C4         -2.5075   -0.6588    1.1444 C.2       1 <0>         0.0410
      6 O1         -3.5581   -1.0360    1.8975 O.3       1 <0>        -0.1450
      7 C5         -3.1508   -1.6937    2.9959 C.ar      1 <0>         0.3161
      8 C6         -1.7479   -1.7514    2.9500 C.ar      1 <0>        -0.2562
      9 C7         -1.0603   -2.3970    3.9872 C.ar      1 <0>         0.5791
     10 N2         -1.7678   -2.9342    4.9768 N.ar      1 <0>        -0.5783
     11 C8         -3.0925   -2.8616    4.9834 C.ar      1 <0>         0.6959
     12 N3         -3.7765   -2.2546    4.0273 N.ar      1 <0>        -0.5497
     13 N4         -3.7855   -3.4361    6.0355 N.pl3     1 <0>        -0.7871
     14 N5          0.3206   -2.4737    3.9813 N.pl3     1 <0>        -0.7686
     15 C9         -0.0399   -0.5895   -1.2575 C.ar      1 <0>         0.1977
     16 C10        -0.1445   -1.9730   -1.3728 C.ar      1 <0>        -0.2026
     17 C11        -0.1687   -2.5613   -2.6165 C.ar      1 <0>        -0.0217
     18 C12        -0.0882   -1.7683   -3.7650 C.ar      1 <0>        -0.1422
     19 C13         0.0167   -0.3794   -3.6459 C.ar      1 <0>        -0.0383
     20 C14         0.0347    0.2034   -2.3994 C.ar      1 <0>        -0.1868
     21 C15        -0.1134   -2.3959   -5.0998 C.2       1 <0>         0.5498
     22 O2         -0.2043   -3.6042   -5.2019 O.2       1 <0>        -0.5577
     23 N6         -0.0357   -1.6300   -6.2061 N.am      1 <0>        -0.6743
     24 C16        -0.0608   -2.2533   -7.5317 C.3       1 <0>         0.0726
     25 H1         -0.7190   -3.1219   -7.5124 H         1 <0>         0.0784
     26 C17        -0.5773   -1.2447   -8.5597 C.3       1 <0>        -0.0818
     27 C18        -2.0347   -0.8990   -8.2474 C.3       1 <0>        -0.1766
     28 C19        -2.5434    0.0944   -9.2600 C.2       1 <0>         0.4899
     29 O3         -1.8085    0.4893  -10.1490 O.co2     1 <0>        -0.6946
     30 O4         -3.6899    0.5032   -9.1901 O.co2     1 <0>        -0.7204
     31 C20         1.3322   -2.6868   -7.9093 C.2       1 <0>         0.4953
     32 O5          2.2599   -2.4932   -7.1423 O.co2     1 <0>        -0.6986
     33 O6          1.5315   -3.2313   -8.9819 O.co2     1 <0>        -0.6964
     34 H2          0.9806    1.8433    0.1261 H         1 <0>         0.0562
     35 H3         -0.5866    1.8883   -0.7167 H         1 <0>         0.0790
     36 H4         -0.5334    1.7388    1.0562 H         1 <0>         0.0628
     37 H5          0.4873   -1.7953    0.9577 H         1 <0>         0.1054
     38 H6          0.6305   -0.3362    1.9671 H         1 <0>         0.0944
     39 H7         -2.5764   -0.1162    0.2132 H         1 <0>         0.2406
     40 H8         -3.3021   -3.8809    6.7492 H         1 <0>         0.4474
     41 H9         -4.7543   -3.3939    6.0588 H         1 <0>         0.4311
     42 H10         0.8214   -2.1432    3.2191 H         1 <0>         0.4325
     43 H11         0.7883   -2.8581    4.7392 H         1 <0>         0.4307
     44 H12        -0.2063   -2.5851   -0.4852 H         1 <0>         0.1167
     45 H13        -0.2495   -3.6347   -2.7053 H         1 <0>         0.1353
     46 H14         0.0795    0.2359   -4.5312 H         1 <0>         0.1334
     47 H15         0.1110    1.2767   -2.3068 H         1 <0>         0.1284
     48 H16         0.0368   -0.6662   -6.1246 H         1 <0>         0.3883
     49 H17         0.0281   -0.3394   -8.5165 H         1 <0>         0.0555
     50 H18        -0.5125   -1.6778   -9.5579 H         1 <0>         0.0806
     51 H19        -2.6401   -1.8044   -8.2906 H         1 <0>         0.0519
     52 H20        -2.0994   -0.4659   -7.2492 H         1 <0>         0.0480
     53 H21        -4.7451   -2.2274    4.0734 H         1 <0>         0.4418
@<TRIPOS>BOND
     1    1    2 1
     2    1   34 1
     3    1   35 1
     4    1   36 1
     5    2    3 1
     6    2   15 1
     7    3    4 1
     8    3   37 1
     9    3   38 1
    10    4    8 1
    11    4    5 2
    12    5    6 1
    13    5   39 1
    14    6    7 1
    15    7   12 ar
    16    7    8 ar
    17    8    9 ar
    18    9   10 ar
    19    9   14 1
    20   10   11 ar
    21   11   12 ar
    22   11   13 1
    23   12   53 1
    24   13   40 1
    25   13   41 1
    26   14   42 1
    27   14   43 1
    28   15   20 ar
    29   15   16 ar
    30   16   17 ar
    31   16   44 1
    32   17   18 ar
    33   17   45 1
    34   18   19 ar
    35   18   21 1
    36   19   20 ar
    37   19   46 1
    38   20   47 1
    39   21   22 2
    40   21   23 am
    41   23   24 1
    42   23   48 1
    43   24   25 1
    44   24   26 1
    45   24   31 1
    46   26   27 1
    47   26   49 1
    48   26   50 1
    49   27   28 1
    50   27   51 1
    51   27   52 1
    52   28   29 2
    53   28   30 1
    54   31   32 2
    55   31   33 1
@<TRIPOS>MOLECULE
ZINC00598852
   51    53     0     0     0
SMALL
USER_CHARGES

@<TRIPOS>ATOM
      1 C1          0.5429    1.5070    0.0182 C.3       1 <0>        -0.1671
      2 C2          0.5454    0.0000    0.0096 C.ar      1 <0>         0.0307
      3 C3          0.6980   -0.6802   -1.1634 C.ar      1 <0>        -0.1172
      4 C4          0.7027   -2.0714   -1.1869 C.ar      1 <0>         0.0047
      5 C5          0.5547   -2.7939   -0.0399 C.ar      1 <0>        -0.1547
      6 C6          0.3958   -2.1272    1.1822 C.ar      1 <0>         0.2100
      7 C7          0.3970   -0.7113    1.2046 C.ar      1 <0>        -0.1916
      8 C8          0.2398   -0.0587    2.4533 C.ar      1 <0>         0.5718
      9 N1          0.1047   -0.8049    3.5395 N.ar      1 <0>        -0.5815
     10 C9          0.1146   -2.1336    3.4740 C.ar      1 <0>         0.6862
     11 N2          0.2462   -2.7915    2.3381 N.ar      1 <0>        -0.5785
     12 N3         -0.0306   -2.8556    4.6447 N.pl3     1 <0>        -0.7851
     13 N4          0.2283    1.3172    2.5352 N.pl3     1 <0>        -0.8075
     14 C10         0.8631    0.0856   -2.4507 C.3       1 <0>         0.1601
     15 N5          2.2497    0.5425   -2.5728 N.pl3     1 <0>        -0.7426
     16 C11         2.6471    1.2801   -3.6932 C.ar      1 <0>         0.2787
     17 C12         1.7259    1.5838   -4.6864 C.ar      1 <0>        -0.3075
     18 C13         2.1190    2.3146   -5.7968 C.ar      1 <0>         0.1942
     19 C14         3.4355    2.7433   -5.9156 C.ar      1 <0>        -0.0188
     20 C15         4.3571    2.4389   -4.9210 C.ar      1 <0>         0.1949
     21 C16         3.9612    1.7128   -3.8085 C.ar      1 <0>        -0.3034
     22 O1          5.6456    2.8580   -5.0364 O.3       1 <0>        -0.2978
     23 C17         6.5387    2.5092   -3.9768 C.3       1 <0>         0.0256
     24 O2          3.8225    3.4609   -7.0064 O.3       1 <0>        -0.3094
     25 C18         3.7098    4.8829   -6.9209 C.3       1 <0>         0.0337
     26 O3          1.2165    2.6116   -6.7698 O.3       1 <0>        -0.2977
     27 C19        -0.1189    2.1387   -6.5823 C.3       1 <0>         0.0256
     28 H1          1.5373    1.8705    0.2774 H         1 <0>         0.0979
     29 H2          0.2676    1.8755   -0.9700 H         1 <0>         0.0999
     30 H3         -0.1779    1.8650    0.7533 H         1 <0>         0.1021
     31 H4          0.8251   -2.5869   -2.1281 H         1 <0>         0.1583
     32 H5          0.5597   -3.8734   -0.0733 H         1 <0>         0.1603
     33 H6         -0.1367   -2.3923    5.4903 H         1 <0>         0.4460
     34 H7         -0.0263   -3.8253    4.6202 H         1 <0>         0.4316
     35 H8         -0.4142    1.7635    3.1087 H         1 <0>         0.4288
     36 H9          0.8626    1.8391    2.0193 H         1 <0>         0.4358
     37 H10         0.6185   -0.5620   -3.2927 H         1 <0>         0.0808
     38 H11         0.1955    0.9472   -2.4491 H         1 <0>         0.0823
     39 H12         2.8922    0.3335   -1.8768 H         1 <0>         0.4012
     40 H13         0.7028    1.2503   -4.5941 H         1 <0>         0.1330
     41 H14         4.6763    1.4800   -3.0333 H         1 <0>         0.1322
     42 H15         7.5314    2.9038   -4.1935 H         1 <0>         0.1049
     43 H16         6.1753    2.9338   -3.0409 H         1 <0>         0.0557
     44 H17         6.5905    1.4241   -3.8876 H         1 <0>         0.0576
     45 H18         4.3243    5.2472   -6.0976 H         1 <0>         0.0423
     46 H19         4.0502    5.3312   -7.8543 H         1 <0>         0.0924
     47 H20         2.6690    5.1550   -6.7455 H         1 <0>         0.0423
     48 H21        -0.5282    2.5607   -5.6645 H         1 <0>         0.0553
     49 H22        -0.7344    2.4437   -7.4286 H         1 <0>         0.1049
     50 H23        -0.1125    1.0511   -6.5109 H         1 <0>         0.0571
     51 H24         0.2468   -3.7615    2.3402 H         1 <0>         0.4417
@<TRIPOS>BOND
     1    1    2 1
     2    1   28 1
     3    1   29 1
     4    1   30 1
     5    2    7 ar
     6    2    3 ar
     7    3    4 ar
     8    3   14 1
     9    4    5 ar
    10    4   31 1
    11    5    6 ar
    12    5   32 1
    13    6   11 ar
    14    6    7 ar
    15    7    8 ar
    16    8    9 ar
    17    8   13 1
    18    9   10 ar
    19   10   11 ar
    20   10   12 1
    21   11   51 1
    22   12   33 1
    23   12   34 1
    24   13   35 1
    25   13   36 1
    26   14   15 1
    27   14   37 1
    28   14   38 1
    29   15   16 1
    30   15   39 1
    31   16   21 ar
    32   16   17 ar
    33   17   18 ar
    34   17   40 1
    35   18   19 ar
    36   18   26 1
    37   19   20 ar
    38   19   24 1
    39   20   21 ar
    40   20   22 1
    41   21   41 1
    42   22   23 1
    43   23   42 1
    44   23   43 1
    45   23   44 1
    46   24   25 1
    47   25   45 1
    48   25   46 1
    49   25   47 1
    50   26   27 1
    51   27   48 1
    52   27   49 1
    53   27   50 1
@<TRIPOS>MOLECULE
ZINC03581056
   42    43     0     0     0
SMALL
USER_CHARGES
6,6-dimethyl-1-[3-(2,4,5-trichlorophenoxy)propoxy]-1,3,5-triazine-2,4-diamine
@<TRIPOS>ATOM
      1 C1         -1.1779   -1.0280   -2.0127 C.3       1 <0>        -0.1338
      2 C2         -0.5170   -0.0982   -3.0323 C.3       1 <0>         0.3759
      3 N1          0.6879   -0.7363   -3.5754 N.2       1 <0>        -0.6834
      4 C3          1.7233   -0.0136   -3.9109 C.2       1 <0>         0.6203
      5 N2          1.7484    1.3186   -3.7357 N.2       1 <0>        -0.6706
      6 C4          0.8363    1.9252   -2.9941 C.2       1 <0>         0.6960
      7 N3         -0.1190    1.1560   -2.3746 N.pl3     1 <0>        -0.5269
      8 O1         -0.7038    1.5592   -1.1497 O.3       1 <0>        -0.1370
      9 C5         -0.0127    1.0858    0.0080 C.3       1 <0>         0.0283
     10 C6         -0.7288    1.5792    1.2668 C.3       1 <0>        -0.1119
     11 C7          0.0111    1.0724    2.5063 C.3       1 <0>         0.0594
     12 O2         -0.6577    1.5332    3.6820 O.3       1 <0>        -0.2899
     13 C8         -0.1248    1.1686    4.8783 C.ar      1 <0>         0.1609
     14 C9          1.0179    0.3837    4.9190 C.ar      1 <0>        -0.1822
     15 C10         1.5587    0.0142    6.1365 C.ar      1 <0>         0.0131
     16 C11         0.9601    0.4274    7.3150 C.ar      1 <0>        -0.0596
     17 C12        -0.1796    1.2103    7.2764 C.ar      1 <0>        -0.0502
     18 C13        -0.7203    1.5861    6.0606 C.ar      1 <0>        -0.0574
     19 Cl1        -2.1469    2.5741    6.0127 Cl        1 <0>        -0.0302
     20 Cl2         1.6406   -0.0382    8.8427 Cl        1 <0>        -0.0322
     21 Cl3         2.9894   -0.9677    6.1881 Cl        1 <0>        -0.0303
     22 N4          0.8450    3.2835   -2.8428 N.pl3     1 <0>        -0.8101
     23 N5          2.8244   -0.6371   -4.4622 N.pl3     1 <0>        -0.8270
     24 C14        -1.4972    0.2033   -4.1677 C.3       1 <0>        -0.1597
     25 H1         -2.0606   -0.5423   -1.5967 H         1 <0>         0.0686
     26 H2         -1.4712   -1.9559   -2.5038 H         1 <0>         0.0820
     27 H3         -0.4727   -1.2483   -1.2112 H         1 <0>         0.0574
     28 H4          0.0021   -0.0041    0.0020 H         1 <0>         0.0699
     29 H5          1.0099    1.4631    0.0003 H         1 <0>         0.0580
     30 H6         -0.7436    2.6691    1.2728 H         1 <0>         0.0891
     31 H7         -1.7514    1.2020    1.2746 H         1 <0>         0.0916
     32 H8          0.0259   -0.0175    2.5003 H         1 <0>         0.0733
     33 H9          1.0337    1.4497    2.4986 H         1 <0>         0.0719
     34 H10         1.4848    0.0610    4.0001 H         1 <0>         0.1561
     35 H11        -0.6451    1.5316    8.1964 H         1 <0>         0.1620
     36 H12         0.1718    3.7146   -2.2933 H         1 <0>         0.4178
     37 H13         1.5242    3.8165   -3.2849 H         1 <0>         0.4232
     38 H14         2.8216   -1.5979   -4.5954 H         1 <0>         0.4120
     39 H15         3.6009   -0.1144   -4.7166 H         1 <0>         0.4076
     40 H16        -1.0188    0.8575   -4.8966 H         1 <0>         0.0520
     41 H17        -1.7895   -0.7282   -4.6523 H         1 <0>         0.0802
     42 H18        -2.3816    0.6955   -3.7631 H         1 <0>         0.0659
@<TRIPOS>BOND
     1    1    2 1
     2    1   25 1
     3    1   26 1
     4    1   27 1
     5    2    7 1
     6    2    3 1
     7    2   24 1
     8    3    4 2
     9    4    5 1
    10    4   23 1
    11    5    6 2
    12    6    7 1
    13    6   22 1
    14    7    8 1
    15    8    9 1
    16    9   10 1
    17    9   28 1
    18    9   29 1
    19   10   11 1
    20   10   30 1
    21   10   31 1
    22   11   12 1
    23   11   32 1
    24   11   33 1
    25   12   13 1
    26   13   18 ar
    27   13   14 ar
    28   14   15 ar
    29   14   34 1
    30   15   16 ar
    31   15   21 1
    32   16   17 ar
    33   16   20 1
    34   17   18 ar
    35   17   35 1
    36   18   19 1
    37   22   36 1
    38   22   37 1
    39   23   38 1
    40   23   39 1
    41   24   40 1
    42   24   41 1
    43   24   42 1
@<TRIPOS>MOLECULE
ZINC01486728
   48    51     0     0     0
SMALL
USER_CHARGES
5-[(2-cyclopropyl-7,8-dimethoxy-2H-chromen-5-yl)methyl]pyrimidine-2,4-diamine
@<TRIPOS>ATOM
      1 C1         -0.0243    1.0905    0.0387 C.3       1 <0>         0.0229
      2 O1         -0.7047    1.5787    1.1965 O.3       1 <0>        -0.3008
      3 C2         -1.9907    1.1743    1.3731 C.ar      1 <0>         0.1497
      4 C3         -2.5822    0.3290    0.4439 C.ar      1 <0>        -0.2243
      5 C4         -3.8858   -0.0922    0.6162 C.ar      1 <0>         0.0042
      6 C5         -4.6105    0.3437    1.7211 C.ar      1 <0>        -0.1482
      7 C6         -4.0183    1.2016    2.6584 C.ar      1 <0>         0.1600
      8 C7         -2.7086    1.6145    2.4811 C.ar      1 <0>         0.0329
      9 O2         -2.1257    2.4467    3.3866 O.3       1 <0>        -0.3110
     10 C8         -2.1626    3.8460    3.0993 C.3       1 <0>         0.0361
     11 O3         -4.7505    1.6110    3.7270 O.3       1 <0>        -0.2870
     12 C9         -6.1511    1.8004    3.5213 C.3       1 <0>         0.1565
     13 H1         -6.6430    1.9218    4.4864 H         1 <0>         0.1239
     14 C10        -6.7458    0.6155    2.8071 C.2       1 <0>        -0.1871
     15 C11        -6.0107   -0.0783    1.9405 C.2       1 <0>        -0.0871
     16 C12        -6.3719    3.0594    2.6805 C.3       1 <0>        -0.1831
     17 C13        -6.9067    4.3017    3.3957 C.3       1 <0>        -0.1713
     18 C14        -7.8155    3.5119    2.4517 C.3       1 <0>        -0.1627
     19 C15        -4.5228   -1.0147   -0.3910 C.3       1 <0>        -0.0172
     20 C16        -5.2930   -0.2021   -1.3997 C.ar      1 <0>        -0.3068
     21 C17        -6.6475    0.0183   -1.2432 C.ar      1 <0>         0.2267
     22 N1         -7.2960    0.7374   -2.1474 N.ar      1 <0>        -0.6023
     23 C18        -6.6635    1.2452   -3.1951 C.ar      1 <0>         0.6026
     24 N2         -5.3658    1.0573   -3.3814 N.ar      1 <0>        -0.6267
     25 C19        -4.6523    0.3501   -2.5109 C.ar      1 <0>         0.4890
     26 N3         -3.2941    0.1594   -2.7057 N.pl3     1 <0>        -0.8359
     27 N4         -7.3766    1.9908   -4.1175 N.pl3     1 <0>        -0.8212
     28 H2          0.0130    0.0016    0.0713 H         1 <0>         0.0594
     29 H3          0.9903    1.4883    0.0188 H         1 <0>         0.1046
     30 H4         -0.5571    1.4091   -0.8572 H         1 <0>         0.0558
     31 H5         -2.0188   -0.0038   -0.4153 H         1 <0>         0.1305
     32 H6         -1.7310    4.0263    2.1148 H         1 <0>         0.0440
     33 H7         -3.1960    4.1924    3.1121 H         1 <0>         0.0434
     34 H8         -1.5888    4.3867    3.8521 H         1 <0>         0.0937
     35 H9         -7.7694    0.3286    2.9977 H         1 <0>         0.1344
     36 H10        -6.4251   -0.9246    1.4128 H         1 <0>         0.1345
     37 H11        -5.6617    3.2127    1.8680 H         1 <0>         0.1029
     38 H12        -7.1012    4.2221    4.4653 H         1 <0>         0.0992
     39 H13        -6.5482    5.2727    3.0539 H         1 <0>         0.0955
     40 H14        -8.0548    3.9632    1.4888 H         1 <0>         0.0965
     41 H15        -8.6079    2.9124    2.8999 H         1 <0>         0.0989
     42 H16        -3.7476   -1.5867   -0.9008 H         1 <0>         0.0786
     43 H17        -5.2015   -1.6975    0.1200 H         1 <0>         0.0922
     44 H18        -7.1723   -0.3909   -0.3925 H         1 <0>         0.1614
     45 H19        -2.7809   -0.3608   -2.0678 H         1 <0>         0.4078
     46 H20        -2.8562    0.5462   -3.4801 H         1 <0>         0.4066
     47 H21        -8.3274    2.1361   -3.9926 H         1 <0>         0.4154
     48 H22        -6.9255    2.3681   -4.8889 H         1 <0>         0.4130
@<TRIPOS>BOND
     1    1    2 1
     2    1   28 1
     3    1   29 1
     4    1   30 1
     5    2    3 1
     6    3    8 ar
     7    3    4 ar
     8    4    5 ar
     9    4   31 1
    10    5    6 ar
    11    5   19 1
    12    6   15 1
    13    6    7 ar
    14    7    8 ar
    15    7   11 1
    16    8    9 1
    17    9   10 1
    18   10   32 1
    19   10   33 1
    20   10   34 1
    21   11   12 1
    22   12   13 1
    23   12   14 1
    24   12   16 1
    25   14   15 2
    26   14   35 1
    27   15   36 1
    28   16   18 1
    29   16   17 1
    30   16   37 1
    31   17   18 1
    32   17   38 1
    33   17   39 1
    34   18   40 1
    35   18   41 1
    36   19   20 1
    37   19   42 1
    38   19   43 1
    39   20   25 ar
    40   20   21 ar
    41   21   22 ar
    42   21   44 1
    43   22   23 ar
    44   23   24 ar
    45   23   27 1
    46   24   25 ar
    47   25   26 1
    48   26   45 1
    49   26   46 1
    50   27   47 1
    51   27   48 1
@<TRIPOS>MOLECULE
ZINC01486728
   49    52     0     0     0
SMALL
USER_CHARGES
5-[(2-cyclopropyl-7,8-dimethoxy-2H-chromen-5-yl)methyl]pyrimidine-2,4-diamine
@<TRIPOS>ATOM
      1 C1         -0.0243    1.0905    0.0387 C.3       1 <0>         0.0211
      2 O1         -0.7047    1.5787    1.1965 O.3       1 <0>        -0.2950
      3 C2         -1.9907    1.1743    1.3731 C.ar      1 <0>         0.1556
      4 C3         -2.5822    0.3290    0.4439 C.ar      1 <0>        -0.2257
      5 C4         -3.8858   -0.0922    0.6162 C.ar      1 <0>        -0.0224
      6 C5         -4.6105    0.3437    1.7211 C.ar      1 <0>        -0.1449
      7 C6         -4.0183    1.2016    2.6584 C.ar      1 <0>         0.1625
      8 C7         -2.7086    1.6145    2.4811 C.ar      1 <0>         0.0475
      9 O2         -2.1257    2.4467    3.3866 O.3       1 <0>        -0.3092
     10 C8         -2.1626    3.8460    3.0993 C.3       1 <0>         0.0363
     11 O3         -4.7505    1.6110    3.7270 O.3       1 <0>        -0.2809
     12 C9         -6.1511    1.8004    3.5213 C.3       1 <0>         0.1506
     13 H1         -6.6430    1.9218    4.4864 H         1 <0>         0.1300
     14 C10        -6.7458    0.6155    2.8071 C.2       1 <0>        -0.1676
     15 C11        -6.0107   -0.0783    1.9405 C.2       1 <0>        -0.1108
     16 C12        -6.3719    3.0594    2.6805 C.3       1 <0>        -0.1874
     17 C13        -6.9067    4.3017    3.3957 C.3       1 <0>        -0.1658
     18 C14        -7.8155    3.5119    2.4517 C.3       1 <0>        -0.1672
     19 C15        -4.5228   -1.0147   -0.3910 C.3       1 <0>        -0.0293
     20 C16        -5.2930   -0.2021   -1.3997 C.ar      1 <0>        -0.2174
     21 C17        -6.6475    0.0183   -1.2432 C.ar      1 <0>         0.2060
     22 C18        -6.6635    1.2452   -3.1951 C.ar      1 <0>         0.6687
     23 N1         -5.3658    1.0573   -3.3814 N.ar      1 <0>        -0.5657
     24 C19        -4.6523    0.3501   -2.5109 C.ar      1 <0>         0.5410
     25 N2         -3.2941    0.1594   -2.7057 N.pl3     1 <0>        -0.7765
     26 N3         -7.3766    1.9908   -4.1175 N.pl3     1 <0>        -0.7911
     27 H2          0.0130    0.0016    0.0713 H         1 <0>         0.0624
     28 H3          0.9903    1.4883    0.0188 H         1 <0>         0.1108
     29 H4         -0.5571    1.4091   -0.8572 H         1 <0>         0.0539
     30 H5         -2.0188   -0.0038   -0.4153 H         1 <0>         0.1306
     31 H6         -1.7310    4.0263    2.1148 H         1 <0>         0.0459
     32 H7         -3.1960    4.1924    3.1121 H         1 <0>         0.0449
     33 H8         -1.5888    4.3867    3.8521 H         1 <0>         0.0997
     34 H9         -7.7694    0.3286    2.9977 H         1 <0>         0.1384
     35 H10        -6.4251   -0.9246    1.4128 H         1 <0>         0.1330
     36 H11        -5.6617    3.2127    1.8680 H         1 <0>         0.1025
     37 H12        -7.1012    4.2221    4.4653 H         1 <0>         0.1038
     38 H13        -6.5482    5.2727    3.0539 H         1 <0>         0.0994
     39 H14        -8.0548    3.9632    1.4888 H         1 <0>         0.0944
     40 H15        -8.6079    2.9124    2.8999 H         1 <0>         0.1006
     41 H16        -3.7476   -1.5867   -0.9008 H         1 <0>         0.1015
     42 H17        -5.2015   -1.6975    0.1200 H         1 <0>         0.1140
     43 H18        -7.1723   -0.3909   -0.3925 H         1 <0>         0.2018
     44 H19        -2.7809   -0.3608   -2.0678 H         1 <0>         0.4281
     45 H20        -2.8562    0.5462   -3.4801 H         1 <0>         0.4293
     46 H21        -8.3274    2.1361   -3.9926 H         1 <0>         0.4308
     47 H22        -6.9255    2.3681   -4.8889 H         1 <0>         0.4429
     48 N4         -7.3691    0.7495   -2.1392 N.ar      1 <0>        -0.5935
     49 H23        -8.3488    0.8901   -1.9961 H         1 <0>         0.4626
@<TRIPOS>BOND
     1    1    2 1
     2    1   27 1
     3    1   28 1
     4    1   29 1
     5    2    3 1
     6    3    8 ar
     7    3    4 ar
     8    4    5 ar
     9    4   30 1
    10    5    6 ar
    11    5   19 1
    12    6   15 1
    13    6    7 ar
    14    7    8 ar
    15    7   11 1
    16    8    9 1
    17    9   10 1
    18   10   31 1
    19   10   32 1
    20   10   33 1
    21   11   12 1
    22   12   13 1
    23   12   14 1
    24   12   16 1
    25   14   15 2
    26   14   34 1
    27   15   35 1
    28   16   18 1
    29   16   17 1
    30   16   36 1
    31   17   18 1
    32   17   37 1
    33   17   38 1
    34   18   39 1
    35   18   40 1
    36   19   20 1
    37   19   41 1
    38   19   42 1
    39   20   24 ar
    40   20   21 ar
    41   21   43 1
    42   21   48 ar
    43   22   23 ar
    44   22   26 1
    45   22   48 ar
    46   23   24 ar
    47   24   25 1
    48   25   44 1
    49   25   45 1
    50   26   46 1
    51   26   47 1
    52   48   49 1
@<TRIPOS>MOLECULE
ZINC03612862
   48    51     0     0     0
SMALL
USER_CHARGES
5-[(2-cyclopropyl-7,8-dimethoxy-2H-chromen-5-yl)methyl]pyrimidine-2,4-diamine
@<TRIPOS>ATOM
      1 C1          5.4769    4.1216    2.5780 C.3       1 <0>         0.0228
      2 O1          5.2233    3.0692    3.5109 O.3       1 <0>        -0.3002
      3 C2          4.4198    2.0549    3.0937 C.ar      1 <0>         0.1527
      4 C3          3.8928    2.0754    1.8094 C.ar      1 <0>        -0.2255
      5 C4          3.0723    1.0526    1.3768 C.ar      1 <0>         0.0051
      6 C5          2.7820   -0.0064    2.2314 C.ar      1 <0>        -0.1520
      7 C6          3.3157   -0.0324    3.5275 C.ar      1 <0>         0.1633
      8 C7          4.1340    0.9997    3.9549 C.ar      1 <0>         0.0327
      9 O2          4.6567    0.9820    5.2114 O.3       1 <0>        -0.3112
     10 C8          5.9250    0.3449    5.3775 C.3       1 <0>         0.0321
     11 O3          3.0149   -1.0789    4.3398 O.3       1 <0>        -0.2877
     12 C9          2.8455   -2.3548    3.7206 C.3       1 <0>         0.1542
     13 H1          2.4100   -3.0484    4.4399 H         1 <0>         0.1235
     14 C10         1.9383   -2.2459    2.5237 C.2       1 <0>        -0.1883
     15 C11         1.9122   -1.1242    1.8067 C.2       1 <0>        -0.0882
     16 C12         4.2097   -2.8832    3.2725 C.3       1 <0>        -0.1893
     17 C13         4.5950   -4.2997    3.7038 C.3       1 <0>        -0.1641
     18 C14         5.2755   -3.0914    4.3503 C.3       1 <0>        -0.1679
     19 C15         2.4989    1.0799   -0.0165 C.3       1 <0>        -0.0171
     20 C16         1.1508    1.7531    0.0082 C.ar      1 <0>        -0.3072
     21 C17        -0.0079    1.0099    0.1220 C.ar      1 <0>         0.2238
     22 N1         -1.1779    1.6313    0.1348 N.ar      1 <0>        -0.6027
     23 C18        -1.2487    2.9518    0.0513 C.ar      1 <0>         0.6036
     24 N2         -0.1617    3.7003   -0.0591 N.ar      1 <0>        -0.6255
     25 C19         1.0447    3.1425   -0.0839 C.ar      1 <0>         0.4900
     26 N3          2.1799    3.9279   -0.1999 N.pl3     1 <0>        -0.8357
     27 N4         -2.4898    3.5637    0.0741 N.pl3     1 <0>        -0.8204
     28 H2          6.1301    4.8640    3.0366 H         1 <0>         0.1045
     29 H3          5.9593    3.7120    1.6906 H         1 <0>         0.0574
     30 H4          4.5349    4.5915    2.2954 H         1 <0>         0.0575
     31 H5          4.1234    2.8964    1.1467 H         1 <0>         0.1304
     32 H6          6.2257    0.4014    6.4237 H         1 <0>         0.0922
     33 H7          5.8486   -0.7002    5.0773 H         1 <0>         0.0484
     34 H8          6.6679    0.8474    4.7582 H         1 <0>         0.0433
     35 H9          1.3083   -3.0783    2.2466 H         1 <0>         0.1353
     36 H10         1.2740   -1.0334    0.9403 H         1 <0>         0.1333
     37 H11         4.5450   -2.5468    2.2914 H         1 <0>         0.1077
     38 H12         3.8767   -4.8551    4.3069 H         1 <0>         0.0987
     39 H13         5.1839   -4.8955    3.0065 H         1 <0>         0.0986
     40 H14         6.3120   -2.8923    4.0782 H         1 <0>         0.0957
     41 H15         5.0048   -2.8519    5.3786 H         1 <0>         0.1008
     42 H16         2.3888    0.0598   -0.3843 H         1 <0>         0.0915
     43 H17         3.1692    1.6330   -0.6745 H         1 <0>         0.0787
     44 H18         0.0392   -0.0666    0.1952 H         1 <0>         0.1615
     45 H19         3.0567    3.5134   -0.2176 H         1 <0>         0.4076
     46 H20         2.0980    4.8924   -0.2634 H         1 <0>         0.4070
     47 H21        -2.5557    4.5294    0.0097 H         1 <0>         0.4134
     48 H22        -3.2938    3.0270    0.1546 H         1 <0>         0.4158
@<TRIPOS>BOND
     1    1    2 1
     2    1   28 1
     3    1   29 1
     4    1   30 1
     5    2    3 1
     6    3    8 ar
     7    3    4 ar
     8    4    5 ar
     9    4   31 1
    10    5    6 ar
    11    5   19 1
    12    6   15 1
    13    6    7 ar
    14    7    8 ar
    15    7   11 1
    16    8    9 1
    17    9   10 1
    18   10   32 1
    19   10   33 1
    20   10   34 1
    21   11   12 1
    22   12   13 1
    23   12   14 1
    24   12   16 1
    25   14   15 2
    26   14   35 1
    27   15   36 1
    28   16   18 1
    29   16   17 1
    30   16   37 1
    31   17   18 1
    32   17   38 1
    33   17   39 1
    34   18   40 1
    35   18   41 1
    36   19   20 1
    37   19   42 1
    38   19   43 1
    39   20   25 ar
    40   20   21 ar
    41   21   22 ar
    42   21   44 1
    43   22   23 ar
    44   23   24 ar
    45   23   27 1
    46   24   25 ar
    47   25   26 1
    48   26   45 1
    49   26   46 1
    50   27   47 1
    51   27   48 1
@<TRIPOS>MOLECULE
ZINC03612862
   49    52     0     0     0
SMALL
USER_CHARGES
5-[(2-cyclopropyl-7,8-dimethoxy-2H-chromen-5-yl)methyl]pyrimidine-2,4-diamine
@<TRIPOS>ATOM
      1 C1          5.4769    4.1216    2.5780 C.3       1 <0>         0.0212
      2 O1          5.2233    3.0692    3.5109 O.3       1 <0>        -0.2946
      3 C2          4.4198    2.0549    3.0937 C.ar      1 <0>         0.1570
      4 C3          3.8928    2.0754    1.8094 C.ar      1 <0>        -0.2263
      5 C4          3.0723    1.0526    1.3768 C.ar      1 <0>        -0.0236
      6 C5          2.7820   -0.0064    2.2314 C.ar      1 <0>        -0.1460
      7 C6          3.3157   -0.0324    3.5275 C.ar      1 <0>         0.1647
      8 C7          4.1340    0.9997    3.9549 C.ar      1 <0>         0.0480
      9 O2          4.6567    0.9820    5.2114 O.3       1 <0>        -0.3112
     10 C8          5.9250    0.3449    5.3775 C.3       1 <0>         0.0316
     11 O3          3.0149   -1.0789    4.3398 O.3       1 <0>        -0.2838
     12 C9          2.8455   -2.3548    3.7206 C.3       1 <0>         0.1491
     13 H1          2.4100   -3.0484    4.4399 H         1 <0>         0.1297
     14 C10         1.9383   -2.2459    2.5237 C.2       1 <0>        -0.1606
     15 C11         1.9122   -1.1242    1.8067 C.2       1 <0>        -0.1126
     16 C12         4.2097   -2.8832    3.2725 C.3       1 <0>        -0.1960
     17 C13         4.5950   -4.2997    3.7038 C.3       1 <0>        -0.1612
     18 C14         5.2755   -3.0914    4.3503 C.3       1 <0>        -0.1658
     19 C15         2.4989    1.0799   -0.0165 C.3       1 <0>        -0.0294
     20 C16         1.1508    1.7531    0.0082 C.ar      1 <0>        -0.2172
     21 C17        -0.0079    1.0099    0.1220 C.ar      1 <0>         0.2032
     22 C18        -1.2487    2.9518    0.0513 C.ar      1 <0>         0.6692
     23 N1         -0.1617    3.7003   -0.0591 N.ar      1 <0>        -0.5650
     24 C19         1.0447    3.1425   -0.0839 C.ar      1 <0>         0.5417
     25 N2          2.1799    3.9279   -0.1999 N.pl3     1 <0>        -0.7765
     26 N3         -2.4898    3.5637    0.0741 N.pl3     1 <0>        -0.7904
     27 H2          6.1301    4.8640    3.0366 H         1 <0>         0.1105
     28 H3          5.9593    3.7120    1.6906 H         1 <0>         0.0602
     29 H4          4.5349    4.5915    2.2954 H         1 <0>         0.0552
     30 H5          4.1234    2.8964    1.1467 H         1 <0>         0.1295
     31 H6          6.2257    0.4014    6.4237 H         1 <0>         0.0983
     32 H7          5.8486   -0.7002    5.0773 H         1 <0>         0.0511
     33 H8          6.6679    0.8474    4.7582 H         1 <0>         0.0468
     34 H9          1.3083   -3.0783    2.2466 H         1 <0>         0.1395
     35 H10         1.2740   -1.0334    0.9403 H         1 <0>         0.1246
     36 H11         4.5450   -2.5468    2.2914 H         1 <0>         0.1081
     37 H12         3.8767   -4.8551    4.3069 H         1 <0>         0.1009
     38 H13         5.1839   -4.8955    3.0065 H         1 <0>         0.1017
     39 H14         6.3120   -2.8923    4.0782 H         1 <0>         0.0987
     40 H15         5.0048   -2.8519    5.3786 H         1 <0>         0.1026
     41 H16         2.3888    0.0598   -0.3843 H         1 <0>         0.1132
     42 H17         3.1692    1.6330   -0.6745 H         1 <0>         0.1012
     43 H18         0.0392   -0.0666    0.1952 H         1 <0>         0.2015
     44 H19         3.0567    3.5134   -0.2176 H         1 <0>         0.4279
     45 H20         2.0980    4.8924   -0.2634 H         1 <0>         0.4296
     46 H21        -2.5557    4.5294    0.0097 H         1 <0>         0.4431
     47 H22        -3.2938    3.0270    0.1546 H         1 <0>         0.4310
     48 N4         -1.2406    1.5914    0.1403 N.ar      1 <0>        -0.5935
     49 H23        -2.0603    1.0235    0.2152 H         1 <0>         0.4630
@<TRIPOS>BOND
     1    1    2 1
     2    1   27 1
     3    1   28 1
     4    1   29 1
     5    2    3 1
     6    3    8 ar
     7    3    4 ar
     8    4    5 ar
     9    4   30 1
    10    5    6 ar
    11    5   19 1
    12    6   15 1
    13    6    7 ar
    14    7    8 ar
    15    7   11 1
    16    8    9 1
    17    9   10 1
    18   10   31 1
    19   10   32 1
    20   10   33 1
    21   11   12 1
    22   12   13 1
    23   12   14 1
    24   12   16 1
    25   14   15 2
    26   14   34 1
    27   15   35 1
    28   16   18 1
    29   16   17 1
    30   16   36 1
    31   17   18 1
    32   17   37 1
    33   17   38 1
    34   18   39 1
    35   18   40 1
    36   19   20 1
    37   19   41 1
    38   19   42 1
    39   20   24 ar
    40   20   21 ar
    41   21   43 1
    42   21   48 ar
    43   22   23 ar
    44   22   26 1
    45   22   48 ar
    46   23   24 ar
    47   24   25 1
    48   25   44 1
    49   25   45 1
    50   26   46 1
    51   26   47 1
    52   48   49 1
@<TRIPOS>MOLECULE
ZINC13801424
   34    35     0     0     0
SMALL
USER_CHARGES
5-[(3-ethoxyphenyl)methyl]pyrimidine-2,4-diamine
@<TRIPOS>ATOM
      1 C1         -3.7063   -0.9679    0.0141 C.3       1 <0>        -0.1532
      2 C2         -2.2997   -0.3660    0.0108 C.3       1 <0>         0.0546
      3 O1         -2.3918    1.0600    0.0191 O.3       1 <0>        -0.3171
      4 C3         -1.2232    1.7538    0.0174 C.ar      1 <0>         0.1345
      5 C4         -0.0126    1.0758    0.0080 C.ar      1 <0>        -0.2140
      6 C5          1.1737    1.7832    0.0004 C.ar      1 <0>        -0.0745
      7 C6          1.1556    3.1660    0.0081 C.ar      1 <0>        -0.1514
      8 C7         -0.0491    3.8437    0.0233 C.ar      1 <0>        -0.0381
      9 C8         -1.2386    3.1407    0.0304 C.ar      1 <0>        -0.1528
     10 C9         -0.0652    5.3506    0.0316 C.3       1 <0>        -0.0158
     11 C10        -0.0841    5.8606   -1.3864 C.ar      1 <0>        -0.3074
     12 C11         1.0887    6.2096   -2.0272 C.ar      1 <0>         0.2238
     13 N1          1.0384    6.6542   -3.2743 N.ar      1 <0>        -0.6059
     14 C12        -0.1181    6.7675   -3.9108 C.ar      1 <0>         0.6018
     15 N2         -1.2644    6.4431   -3.3322 N.ar      1 <0>        -0.6277
     16 C13        -1.2871    5.9856   -2.0843 C.ar      1 <0>         0.4885
     17 N3         -2.4872    5.6423   -1.4833 N.pl3     1 <0>        -0.8342
     18 N4         -0.1285    7.2360   -5.2130 N.pl3     1 <0>        -0.8218
     19 H1         -4.2383   -0.6433    0.9084 H         1 <0>         0.0669
     20 H2         -4.2467   -0.6335   -0.8715 H         1 <0>         0.0664
     21 H3         -3.6361   -2.0556    0.0078 H         1 <0>         0.0794
     22 H4         -1.7677   -0.6905   -0.8835 H         1 <0>         0.0616
     23 H5         -1.7594   -0.7003    0.8964 H         1 <0>         0.0625
     24 H6          0.0021   -0.0041    0.0020 H         1 <0>         0.1263
     25 H7          2.1162    1.2560   -0.0118 H         1 <0>         0.1256
     26 H8          2.0843    3.7173    0.0018 H         1 <0>         0.1251
     27 H9         -2.1795    3.6707    0.0419 H         1 <0>         0.1232
     28 H10        -0.9540    5.7016    0.5558 H         1 <0>         0.0758
     29 H11         0.8258    5.7207    0.5389 H         1 <0>         0.0897
     30 H12         2.0366    6.1207   -1.5173 H         1 <0>         0.1640
     31 H13        -2.4959    5.3124   -0.5712 H         1 <0>         0.4098
     32 H14        -3.3187    5.7319   -1.9747 H         1 <0>         0.4064
     33 H15         0.7041    7.4768   -5.6484 H         1 <0>         0.4151
     34 H16        -0.9684    7.3237   -5.6902 H         1 <0>         0.4128
@<TRIPOS>BOND
     1    1    2 1
     2    1   19 1
     3    1   20 1
     4    1   21 1
     5    2    3 1
     6    2   22 1
     7    2   23 1
     8    3    4 1
     9    4    9 ar
    10    4    5 ar
    11    5    6 ar
    12    5   24 1
    13    6    7 ar
    14    6   25 1
    15    7    8 ar
    16    7   26 1
    17    8    9 ar
    18    8   10 1
    19    9   27 1
    20   10   11 1
    21   10   28 1
    22   10   29 1
    23   11   16 ar
    24   11   12 ar
    25   12   13 ar
    26   12   30 1
    27   13   14 ar
    28   14   15 ar
    29   14   18 1
    30   15   16 ar
    31   16   17 1
    32   17   31 1
    33   17   32 1
    34   18   33 1
    35   18   34 1
@<TRIPOS>MOLECULE
ZINC13801424
   35    36     0     0     0
SMALL
USER_CHARGES
5-[(3-ethoxyphenyl)methyl]pyrimidine-2,4-diamine
@<TRIPOS>ATOM
      1 C1         -3.7063   -0.9679    0.0141 C.3       1 <0>        -0.1551
      2 C2         -2.2997   -0.3660    0.0108 C.3       1 <0>         0.0527
      3 O1         -2.3918    1.0600    0.0191 O.3       1 <0>        -0.3149
      4 C3         -1.2232    1.7538    0.0174 C.ar      1 <0>         0.1439
      5 C4         -0.0126    1.0758    0.0080 C.ar      1 <0>        -0.1976
      6 C5          1.1737    1.7832    0.0004 C.ar      1 <0>        -0.0656
      7 C6          1.1556    3.1660    0.0081 C.ar      1 <0>        -0.1459
      8 C7         -0.0491    3.8437    0.0233 C.ar      1 <0>        -0.0713
      9 C8         -1.2386    3.1407    0.0304 C.ar      1 <0>        -0.1606
     10 C9         -0.0652    5.3506    0.0316 C.3       1 <0>        -0.0253
     11 C10        -0.0841    5.8606   -1.3864 C.ar      1 <0>        -0.2726
     12 C11         1.0887    6.2096   -2.0272 C.ar      1 <0>         0.2565
     13 C12        -0.1181    6.7675   -3.9108 C.ar      1 <0>         0.5807
     14 N1         -1.2644    6.4431   -3.3322 N.ar      1 <0>        -0.5254
     15 C13        -1.2871    5.9856   -2.0843 C.ar      1 <0>         0.3656
     16 N2         -2.4872    5.6423   -1.4833 N.pl3     1 <0>        -0.7693
     17 N3         -0.1285    7.2360   -5.2130 N.pl3     1 <0>        -0.7388
     18 H1         -4.2383   -0.6433    0.9084 H         1 <0>         0.0694
     19 H2         -4.2467   -0.6335   -0.8715 H         1 <0>         0.0671
     20 H3         -3.6361   -2.0556    0.0078 H         1 <0>         0.0847
     21 H4         -1.7677   -0.6905   -0.8835 H         1 <0>         0.0655
     22 H5         -1.7594   -0.7003    0.8964 H         1 <0>         0.0679
     23 H6          0.0021   -0.0041    0.0020 H         1 <0>         0.1356
     24 H7          2.1162    1.2560   -0.0118 H         1 <0>         0.1351
     25 H8          2.0843    3.7173    0.0018 H         1 <0>         0.1318
     26 H9         -2.1795    3.6707    0.0419 H         1 <0>         0.1220
     27 H10        -0.9540    5.7016    0.5558 H         1 <0>         0.1035
     28 H11         0.8258    5.7207    0.5389 H         1 <0>         0.1268
     29 H12         2.0366    6.1207   -1.5173 H         1 <0>         0.2199
     30 H13        -2.4959    5.3124   -0.5712 H         1 <0>         0.4505
     31 H14        -3.3187    5.7319   -1.9747 H         1 <0>         0.4471
     32 H15         0.7041    7.4768   -5.6484 H         1 <0>         0.4496
     33 H16        -0.9684    7.3237   -5.6902 H         1 <0>         0.4368
     34 N4          1.1015    6.6731   -3.3092 N.ar      1 <0>        -0.4891
     35 H17        -1.2711    6.1025   -2.3920 H         1 <0>         0.4189
@<TRIPOS>BOND
     1    1    2 1
     2    1   18 1
     3    1   19 1
     4    1   20 1
     5    2    3 1
     6    2   21 1
     7    2   22 1
     8    3    4 1
     9    4    9 ar
    10    4    5 ar
    11    5    6 ar
    12    5   23 1
    13    6    7 ar
    14    6   24 1
    15    7    8 ar
    16    7   25 1
    17    8    9 ar
    18    8   10 1
    19    9   26 1
    20   10   11 1
    21   10   27 1
    22   10   28 1
    23   11   15 ar
    24   11   12 ar
    25   12   29 1
    26   12   34 ar
    27   13   14 ar
    28   13   17 1
    29   13   34 ar
    30   14   15 ar
    31   14   35 1
    32   15   16 1
    33   16   30 1
    34   16   31 1
    35   17   32 1
    36   17   33 1
@<TRIPOS>MOLECULE
ZINC18456289
   49    51     0     0     0
SMALL
USER_CHARGES

@<TRIPOS>ATOM
      1 C1         -0.0169    1.3937    0.0097 C.ar      1 <0>        -0.0178
      2 C2          1.1662    2.0965    0.0022 C.ar      1 <0>        -0.2027
      3 C3          2.3811    1.4169   -0.0131 C.ar      1 <0>         0.2234
      4 C4          2.4034    0.0249   -0.0208 C.ar      1 <0>        -0.2019
      5 C5          1.2237   -0.6836   -0.0138 C.ar      1 <0>        -0.0368
      6 C6          0.0021   -0.0041    0.0020 C.ar      1 <0>        -0.1618
      7 C7         -1.2644   -0.7605    0.0105 C.2       1 <0>         0.5562
      8 O1         -2.3263   -0.1682    0.0243 O.2       1 <0>        -0.5618
      9 N1         -1.2445   -2.1081    0.0031 N.am      1 <0>        -0.6794
     10 C8         -2.5022   -2.8593    0.0116 C.3       1 <0>         0.0734
     11 H1         -3.2516   -2.3197   -0.5676 H         1 <0>         0.0769
     12 C9         -2.2758   -4.2399   -0.6078 C.3       1 <0>        -0.0800
     13 C10        -1.9084   -4.0824   -2.0846 C.3       1 <0>        -0.1777
     14 C11        -1.6854   -5.4422   -2.6946 C.2       1 <0>         0.4909
     15 O2         -1.8089   -6.4445   -2.0115 O.co2     1 <0>        -0.6977
     16 O3         -1.3815   -5.5401   -3.8713 O.co2     1 <0>        -0.7207
     17 C12        -2.9829   -3.0182    1.4310 C.2       1 <0>         0.4956
     18 O4         -2.3350   -2.5475    2.3503 O.co2     1 <0>        -0.6969
     19 O5         -4.0198   -3.6173    1.6600 O.co2     1 <0>        -0.7019
     20 N2          3.5749    2.1299   -0.0211 N.pl3     1 <0>        -0.7420
     21 C13         4.8542    1.4162   -0.0371 C.3       1 <0>         0.1849
     22 C14         5.9850    2.4124   -0.0431 C.ar      1 <0>         0.0297
     23 C15         6.5880    2.7792    1.1560 C.ar      1 <0>         0.1500
     24 N3          7.5783    3.6491    1.1730 N.ar      1 <0>        -0.4418
     25 C16         8.0071    4.1829    0.0286 C.ar      1 <0>         0.3627
     26 C17         7.3904    3.8055   -1.1863 C.ar      1 <0>        -0.0653
     27 N4          6.3986    2.9251   -1.1847 N.ar      1 <0>        -0.3389
     28 C18         7.8862    4.4130   -2.4332 C.2       1 <0>         0.5818
     29 O6          7.3975    4.1302   -3.5112 O.2       1 <0>        -0.4658
     30 N5          8.9054    5.2978   -2.3348 N.am      1 <0>        -0.6647
     31 C19         9.4401    5.6027   -1.1180 C.2       1 <0>         0.6656
     32 N6          9.0149    5.0747    0.0031 N.2       1 <0>        -0.5748
     33 H2         10.8043    6.9084   -1.8819 H         1 <0>         0.4169
     34 N7         10.4715    6.5039   -1.0654 N.pl3     1 <0>        -0.8137
     35 H3         -0.9590    1.9215    0.0260 H         1 <0>         0.1328
     36 H4          1.1522    3.1764    0.0078 H         1 <0>         0.1189
     37 H5          3.3474   -0.4995   -0.0326 H         1 <0>         0.1233
     38 H6          1.2416   -1.7634   -0.0204 H         1 <0>         0.1283
     39 H7         -0.3974   -2.5806   -0.0078 H         1 <0>         0.3881
     40 H8         -1.4645   -4.7448   -0.0833 H         1 <0>         0.0545
     41 H9         -3.1876   -4.8309   -0.5212 H         1 <0>         0.0780
     42 H10        -2.7197   -3.5775   -2.6090 H         1 <0>         0.0519
     43 H11        -0.9966   -3.4914   -2.1711 H         1 <0>         0.0508
     44 H12         3.5606    3.0997   -0.0161 H         1 <0>         0.3972
     45 H13         4.9299    0.7860    0.8490 H         1 <0>         0.0872
     46 H14         4.9126    0.7950   -0.9309 H         1 <0>         0.0851
     47 H15         6.2408    2.3469    2.0828 H         1 <0>         0.1877
     48 H16        10.8687    6.7372   -0.2118 H         1 <0>         0.4323
     49 H17         9.2581    5.7176   -3.1350 H         1 <0>         0.4203
@<TRIPOS>BOND
     1    1    6 ar
     2    1    2 ar
     3    1   35 1
     4    2    3 ar
     5    2   36 1
     6    3    4 ar
     7    3   20 1
     8    4    5 ar
     9    4   37 1
    10    5    6 ar
    11    5   38 1
    12    6    7 1
    13    7    8 2
    14    7    9 am
    15    9   10 1
    16    9   39 1
    17   10   11 1
    18   10   12 1
    19   10   17 1
    20   12   13 1
    21   12   40 1
    22   12   41 1
    23   13   14 1
    24   13   42 1
    25   13   43 1
    26   14   15 2
    27   14   16 1
    28   17   18 2
    29   17   19 1
    30   20   21 1
    31   20   44 1
    32   21   45 1
    33   21   46 1
    34   21   22 1
    35   22   27 ar
    36   22   23 ar
    37   23   47 1
    38   23   24 ar
    39   24   25 ar
    40   25   26 ar
    41   25   32 1
    42   26   28 1
    43   26   27 ar
    44   28   29 2
    45   28   30 am
    46   30   31 1
    47   30   49 1
    48   31   32 2
    49   31   34 1
    50   33   34 1
    51   34   48 1
@<TRIPOS>MOLECULE
ZINC18202555
   55    57     0     0     0
SMALL
USER_CHARGES

@<TRIPOS>ATOM
      1 C1         -0.0055    1.3906   -0.0442 C.ar      1 <0>        -0.0157
      2 C2          1.1768    2.0946   -0.0400 C.ar      1 <0>        -0.2051
      3 C3          2.3926    1.4163   -0.0472 C.ar      1 <0>         0.2266
      4 C4          2.4164    0.0244   -0.0587 C.ar      1 <0>        -0.2048
      5 C5          1.2375   -0.6853   -0.0634 C.ar      1 <0>        -0.0359
      6 C6          0.0150   -0.0072   -0.0558 C.ar      1 <0>        -0.1683
      7 C7         -1.2506   -0.7650   -0.0598 C.2       1 <0>         0.5504
      8 O1         -2.3132   -0.1739   -0.0531 O.2       1 <0>        -0.5602
      9 N1         -1.2292   -2.1125   -0.0709 N.am      1 <0>        -0.6796
     10 C8         -2.4861   -2.8651   -0.0750 C.3       1 <0>         0.0746
     11 H1         -3.2313   -2.3247   -0.6587 H         1 <0>         0.0768
     12 C9         -2.2532   -4.2437   -0.6964 C.3       1 <0>        -0.0818
     13 C10        -1.8738   -4.0815   -2.1697 C.3       1 <0>        -0.1770
     14 C11        -1.6443   -5.4394   -2.7817 C.2       1 <0>         0.4913
     15 O2         -1.7723   -6.4437   -2.1025 O.co2     1 <0>        -0.6982
     16 O3         -1.3306   -5.5336   -3.9561 O.co2     1 <0>        -0.7201
     17 C12        -2.9783   -3.0286    1.3400 C.2       1 <0>         0.4986
     18 O4         -4.1742   -3.1062    1.5643 O.co2     1 <0>        -0.7028
     19 O5         -2.1806   -3.0831    2.2604 O.co2     1 <0>        -0.6998
     20 N2          3.5856    2.1306   -0.0434 N.pl3     1 <0>        -0.7405
     21 C13         4.8658    1.4184   -0.0510 C.3       1 <0>         0.1213
     22 C14         6.0128    2.4310   -0.0447 C.3       1 <0>         0.0998
     23 H2          6.0004    3.0071   -0.9700 H         1 <0>         0.1232
     24 C15         7.3539    1.6952    0.0906 C.3       1 <0>         0.1229
     25 N3          7.3754    1.0076    1.3897 N.pl3     1 <0>        -0.7044
     26 C16         6.9591    1.6913    2.5193 C.2       1 <0>         0.4651
     27 C17         6.2061    2.8513    2.3879 C.2       1 <0>        -0.1583
     28 C18         5.7913    3.5271    3.5412 C.2       1 <0>         0.5576
     29 N4          6.1415    3.0233    4.7448 N.am      1 <0>        -0.6484
     30 C19         6.8825    1.8843    4.8200 C.2       1 <0>         0.6554
     31 N5          7.2757    1.2436    3.7395 N.2       1 <0>        -0.5986
     32 N6          7.2284    1.3921    6.0521 N.pl3     1 <0>        -0.8175
     33 O6          5.1278    4.5494    3.4613 O.2       1 <0>        -0.5449
     34 N7          5.8705    3.3365    1.1068 N.am      1 <0>        -0.5222
     35 C20         5.4307    4.5996    0.9401 C.2       1 <0>         0.4800
     36 O7          5.2248    5.0279   -0.1762 O.2       1 <0>        -0.5562
     37 H3         -0.9483    1.9173   -0.0341 H         1 <0>         0.1329
     38 H4          1.1616    3.1745   -0.0315 H         1 <0>         0.1189
     39 H5          3.3611   -0.4989   -0.0643 H         1 <0>         0.1192
     40 H6          1.2566   -1.7651   -0.0731 H         1 <0>         0.1275
     41 H7         -0.3816   -2.5841   -0.0763 H         1 <0>         0.3897
     42 H8         -1.4456   -4.7492   -0.1667 H         1 <0>         0.0592
     43 H9         -3.1650   -4.8359   -0.6190 H         1 <0>         0.0715
     44 H10        -2.6813   -3.5760   -2.6993 H         1 <0>         0.0526
     45 H11        -0.9619   -3.4893   -2.2470 H         1 <0>         0.0516
     46 H12         3.5702    3.1005   -0.0357 H         1 <0>         0.3992
     47 H13         4.9348    0.7858    0.8340 H         1 <0>         0.0640
     48 H14         4.9321    0.7998   -0.9459 H         1 <0>         0.0730
     49 H15         7.4551    0.9655   -0.7128 H         1 <0>         0.1088
     50 H16         8.1730    2.4126    0.0412 H         1 <0>         0.0798
     51 H17         7.6773    0.0881    1.4546 H         1 <0>         0.4150
     52 H18         6.9453    1.8548    6.8562 H         1 <0>         0.4166
     53 H19         7.7563    0.5811    6.1196 H         1 <0>         0.4300
     54 H20         5.2616    5.2304    1.8003 H         1 <0>         0.1700
     55 H21         5.8645    3.4748    5.5574 H         1 <0>         0.4173
@<TRIPOS>BOND
     1    1    6 ar
     2    1    2 ar
     3    1   37 1
     4    2    3 ar
     5    2   38 1
     6    3    4 ar
     7    3   20 1
     8    4    5 ar
     9    4   39 1
    10    5    6 ar
    11    5   40 1
    12    6    7 1
    13    7    8 2
    14    7    9 am
    15    9   10 1
    16    9   41 1
    17   10   11 1
    18   10   12 1
    19   10   17 1
    20   12   13 1
    21   12   42 1
    22   12   43 1
    23   13   14 1
    24   13   44 1
    25   13   45 1
    26   14   15 2
    27   14   16 1
    28   17   18 2
    29   17   19 1
    30   20   21 1
    31   20   46 1
    32   21   22 1
    33   21   47 1
    34   21   48 1
    35   22   23 1
    36   22   34 1
    37   22   24 1
    38   24   25 1
    39   24   49 1
    40   24   50 1
    41   25   26 1
    42   25   51 1
    43   26   31 1
    44   26   27 2
    45   27   28 1
    46   27   34 1
    47   28   29 am
    48   28   33 2
    49   29   30 1
    50   29   55 1
    51   30   31 2
    52   30   32 1
    53   32   52 1
    54   32   53 1
    55   34   35 am
    56   35   36 2
    57   35   54 1
@<TRIPOS>MOLECULE
ZINC18456279
   55    57     0     0     0
SMALL
USER_CHARGES

@<TRIPOS>ATOM
      1 C1         -0.0065    1.3906    0.0548 C.ar      1 <0>        -0.0160
      2 C2          1.1758    2.0945    0.0374 C.ar      1 <0>        -0.2051
      3 C3          2.3913    1.4161    0.0154 C.ar      1 <0>         0.2259
      4 C4          2.4149    0.0242    0.0109 C.ar      1 <0>        -0.2057
      5 C5          1.2360   -0.6855    0.0277 C.ar      1 <0>        -0.0369
      6 C6          0.0138   -0.0072    0.0503 C.ar      1 <0>        -0.1663
      7 C7         -1.2518   -0.7649    0.0693 C.2       1 <0>         0.5574
      8 O1         -2.3141   -0.1736    0.0890 O.2       1 <0>        -0.5618
      9 N1         -1.2305   -2.1125    0.0650 N.am      1 <0>        -0.6802
     10 C8         -2.4874   -2.8649    0.0839 C.3       1 <0>         0.0736
     11 H1         -3.2413   -2.3275   -0.4913 H         1 <0>         0.0767
     12 C9         -2.2638   -4.2468   -0.5337 C.3       1 <0>        -0.0799
     13 C10        -1.9068   -4.0924   -2.0134 C.3       1 <0>        -0.1776
     14 C11        -1.6866   -5.4535   -2.6217 C.2       1 <0>         0.4913
     15 O2         -1.8043   -6.4542   -1.9353 O.co2     1 <0>        -0.6973
     16 O3         -1.3907   -5.5539   -3.8002 O.co2     1 <0>        -0.7214
     17 C12        -2.9581   -3.0209    1.5070 C.2       1 <0>         0.4954
     18 O4         -2.3043   -2.5474    2.4207 O.co2     1 <0>        -0.6965
     19 O5         -3.9927   -3.6206    1.7446 O.co2     1 <0>        -0.7022
     20 N2          3.5842    2.1303   -0.0026 N.pl3     1 <0>        -0.7406
     21 C13         4.8641    1.4180   -0.0257 C.3       1 <0>         0.1214
     22 C14         6.0111    2.4305   -0.0421 C.3       1 <0>         0.1012
     23 H2          6.0157    2.9967    0.8892 H         1 <0>         0.1217
     24 C15         7.3493    1.6960   -0.2095 C.3       1 <0>         0.1231
     25 N3          7.3471    1.0221   -1.5159 N.pl3     1 <0>        -0.7046
     26 C16         6.9105    1.7177   -2.6305 C.2       1 <0>         0.4655
     27 C17         6.1604    2.8763   -2.4733 C.2       1 <0>        -0.1592
     28 C18         5.7249    3.5642   -3.6117 C.2       1 <0>         0.5574
     29 O6          5.0626    4.5853   -3.5090 O.2       1 <0>        -0.5456
     30 N4          6.0531    3.0732   -4.8267 N.am      1 <0>        -0.6489
     31 C19         6.7923    1.9349   -4.9273 C.2       1 <0>         0.6560
     32 N5          7.2048    1.2828   -3.8609 N.2       1 <0>        -0.5990
     33 N6          7.1153    1.4554   -6.1705 N.pl3     1 <0>        -0.8172
     34 N7          5.8482    3.3481   -1.1813 N.am      1 <0>        -0.5228
     35 C20         5.4114    4.6092   -0.9934 C.2       1 <0>         0.4881
     36 O7          5.0541    4.9696    0.1086 O.2       1 <0>        -0.5545
     37 H3         -0.9490    1.9175    0.0763 H         1 <0>         0.1324
     38 H4          1.1607    3.1744    0.0405 H         1 <0>         0.1185
     39 H5          3.3594   -0.4993   -0.0062 H         1 <0>         0.1185
     40 H6          1.2550   -1.7653    0.0235 H         1 <0>         0.1263
     41 H7         -0.3831   -2.5841    0.0493 H         1 <0>         0.3875
     42 H8         -1.4484   -4.7496   -0.0137 H         1 <0>         0.0542
     43 H9         -3.1744   -4.8385   -0.4395 H         1 <0>         0.0781
     44 H10        -2.7222   -3.5896   -2.5334 H         1 <0>         0.0519
     45 H11        -0.9962   -3.5007   -2.1076 H         1 <0>         0.0502
     46 H12         3.5689    3.1002    0.0003 H         1 <0>         0.4015
     47 H13         4.9466    0.7900    0.8614 H         1 <0>         0.0717
     48 H14         4.9169    0.7947   -0.9183 H         1 <0>         0.0634
     49 H15         8.1694    2.4127   -0.1674 H         1 <0>         0.0798
     50 H16         7.4649    0.9579    0.5842 H         1 <0>         0.1088
     51 H17         7.6475    0.1033   -1.5959 H         1 <0>         0.4150
     52 H18         6.8175    1.9265   -6.9645 H         1 <0>         0.4167
     53 H19         7.6416    0.6451   -6.2562 H         1 <0>         0.4302
     54 H20         5.3794    5.2989   -1.8238 H         1 <0>         0.1626
     55 H21         5.7609    3.5329   -5.6293 H         1 <0>         0.4172
@<TRIPOS>BOND
     1    1    6 ar
     2    1    2 ar
     3    1   37 1
     4    2    3 ar
     5    2   38 1
     6    3    4 ar
     7    3   20 1
     8    4    5 ar
     9    4   39 1
    10    5    6 ar
    11    5   40 1
    12    6    7 1
    13    7    8 2
    14    7    9 am
    15    9   10 1
    16    9   41 1
    17   10   11 1
    18   10   12 1
    19   10   17 1
    20   12   13 1
    21   12   42 1
    22   12   43 1
    23   13   14 1
    24   13   44 1
    25   13   45 1
    26   14   15 2
    27   14   16 1
    28   17   18 2
    29   17   19 1
    30   20   21 1
    31   20   46 1
    32   21   22 1
    33   21   47 1
    34   21   48 1
    35   22   23 1
    36   22   34 1
    37   22   24 1
    38   24   25 1
    39   24   49 1
    40   24   50 1
    41   25   26 1
    42   25   51 1
    43   26   32 1
    44   26   27 2
    45   27   28 1
    46   27   34 1
    47   28   29 2
    48   28   30 am
    49   30   31 1
    50   30   55 1
    51   31   32 2
    52   31   33 1
    53   33   52 1
    54   33   53 1
    55   34   35 am
    56   35   36 2
    57   35   54 1
@<TRIPOS>MOLECULE
ZINC18456279
   55    57     0     0     0
SMALL
USER_CHARGES

@<TRIPOS>ATOM
      1 C1         -0.0061    1.3906    0.0565 C.ar      1 <0>        -0.0153
      2 C2          1.1761    2.0945    0.0388 C.ar      1 <0>        -0.2032
      3 C3          2.3917    1.4162    0.0165 C.ar      1 <0>         0.2253
      4 C4          2.4153    0.0242    0.0122 C.ar      1 <0>        -0.2063
      5 C5          1.2365   -0.6855    0.0294 C.ar      1 <0>        -0.0375
      6 C6          0.0143   -0.0072    0.0522 C.ar      1 <0>        -0.1652
      7 C7         -1.2513   -0.7650    0.0717 C.2       1 <0>         0.5572
      8 O1         -2.3137   -0.1737    0.0915 O.2       1 <0>        -0.5609
      9 N1         -1.2300   -2.1125    0.0675 N.am      1 <0>        -0.6802
     10 C8         -2.4868   -2.8650    0.0868 C.3       1 <0>         0.0734
     11 H1         -3.2409   -2.3277   -0.4883 H         1 <0>         0.0769
     12 C9         -2.2634   -4.2470   -0.5306 C.3       1 <0>        -0.0797
     13 C10        -1.9067   -4.0927   -2.0105 C.3       1 <0>        -0.1777
     14 C11        -1.6867   -5.4539   -2.6186 C.2       1 <0>         0.4912
     15 O2         -1.8042   -6.4546   -1.9321 O.co2     1 <0>        -0.6975
     16 O3         -1.3911   -5.5544   -3.7972 O.co2     1 <0>        -0.7214
     17 C12        -2.9572   -3.0208    1.5101 C.2       1 <0>         0.4954
     18 O4         -2.3032   -2.5472    2.4235 O.co2     1 <0>        -0.6967
     19 O5         -3.9917   -3.6205    1.7480 O.co2     1 <0>        -0.7020
     20 N2          3.5846    2.1304   -0.0018 N.pl3     1 <0>        -0.7411
     21 C13         4.8645    1.4181   -0.0252 C.3       1 <0>         0.1231
     22 C14         6.0114    2.4306   -0.0421 C.3       1 <0>         0.0943
     23 H2          6.0167    2.9973    0.8891 H         1 <0>         0.1235
     24 C15         7.3503    1.6966   -0.2113 C.3       1 <0>         0.1292
     25 N3          7.3502    1.0390   -1.5262 N.pl3     1 <0>        -0.7271
     26 C16         6.9119    1.7414   -2.6287 C.2       1 <0>         0.4073
     27 C17         6.1687    2.8775   -2.4733 C.2       1 <0>        -0.1029
     28 C18         5.7301    3.5719   -3.6197 C.2       1 <0>         0.5514
     29 N4          6.0535    3.1046   -4.8369 N.2       1 <0>        -0.6188
     30 C19         6.7719    2.0111   -4.9747 C.2       1 <0>         0.6630
     31 N5          7.0822    1.5670   -6.2339 N.pl3     1 <0>        -0.8183
     32 N6          7.2141    1.3112   -3.8941 N.pl3     1 <0>        -0.6379
     33 H3          7.7431    0.5080   -4.0199 H         1 <0>         0.4170
     34 O6          5.0614    4.5897   -3.5069 O.2       1 <0>        -0.5243
     35 N7          5.8496    3.3475   -1.1820 N.am      1 <0>        -0.5288
     36 C20         5.4076    4.6069   -0.9955 C.2       1 <0>         0.4940
     37 O7          5.0447    4.9657    0.1051 O.2       1 <0>        -0.5496
     38 H4         -0.9487    1.9174    0.0783 H         1 <0>         0.1332
     39 H5          1.1610    3.1744    0.0418 H         1 <0>         0.1195
     40 H6          3.3598   -0.4992   -0.0051 H         1 <0>         0.1169
     41 H7          1.2554   -1.7653    0.0253 H         1 <0>         0.1261
     42 H8         -0.3825   -2.5842    0.0517 H         1 <0>         0.3871
     43 H9         -1.4478   -4.7496   -0.0108 H         1 <0>         0.0539
     44 H10        -3.1739   -4.8387   -0.4361 H         1 <0>         0.0782
     45 H11        -2.7223   -3.5901   -2.5303 H         1 <0>         0.0523
     46 H12        -0.9962   -3.5010   -2.1050 H         1 <0>         0.0501
     47 H13         3.5692    3.1003    0.0009 H         1 <0>         0.4024
     48 H14         4.9472    0.7902    0.8619 H         1 <0>         0.0716
     49 H15         4.9171    0.7947   -0.9178 H         1 <0>         0.0608
     50 H16         8.1711    2.4118   -0.1579 H         1 <0>         0.0819
     51 H17         7.4616    0.9488    0.5739 H         1 <0>         0.1106
     52 H18         7.6543    0.1224   -1.6169 H         1 <0>         0.4097
     53 H19         6.7728    2.0578   -7.0113 H         1 <0>         0.4334
     54 H20         5.3764    5.2968   -1.8259 H         1 <0>         0.1703
     55 H21         7.6113    0.7619   -6.3476 H         1 <0>         0.4123
@<TRIPOS>BOND
     1    1    6 ar
     2    1    2 ar
     3    1   38 1
     4    2    3 ar
     5    2   39 1
     6    3    4 ar
     7    3   20 1
     8    4    5 ar
     9    4   40 1
    10    5    6 ar
    11    5   41 1
    12    6    7 1
    13    7    8 2
    14    7    9 am
    15    9   10 1
    16    9   42 1
    17   10   11 1
    18   10   12 1
    19   10   17 1
    20   12   13 1
    21   12   43 1
    22   12   44 1
    23   13   14 1
    24   13   45 1
    25   13   46 1
    26   14   15 2
    27   14   16 1
    28   17   18 2
    29   17   19 1
    30   20   21 1
    31   20   47 1
    32   21   22 1
    33   21   48 1
    34   21   49 1
    35   22   23 1
    36   22   35 1
    37   22   24 1
    38   24   25 1
    39   24   50 1
    40   24   51 1
    41   25   26 1
    42   25   52 1
    43   26   32 1
    44   26   27 2
    45   27   28 1
    46   27   35 1
    47   28   29 1
    48   28   34 2
    49   29   30 2
    50   30   31 1
    51   30   32 1
    52   31   53 1
    53   31   55 1
    54   32   33 1
    55   35   36 am
    56   36   37 2
    57   36   54 1
@<TRIPOS>MOLECULE
ZINC72105910
   36    37     0     0     0
SMALL
USER_CHARGES

@<TRIPOS>ATOM
      1 C1         -0.0187    1.5258    0.0104 C.3       1 <0>        -0.1779
      2 C2          0.0021   -0.0041    0.0020 C.3       1 <0>         0.4064
      3 N1         -1.3722   -0.5176    0.0402 N.pl3     1 <0>        -0.6960
      4 C3         -1.6421   -1.6351    0.6610 C.cat     1 <0>         0.7273
      5 N2         -0.6985   -2.3297    1.3191 N.2       1 <0>        -0.6257
      6 C4          0.4789   -1.7935    1.5825 C.2       1 <0>         0.7310
      7 N3          0.7126   -0.4969    1.1921 N.pl3     1 <0>        -0.5187
      8 O1          1.6060    0.3352    1.9095 O.3       1 <0>        -0.1039
      9 C5          0.9884    1.0821    2.9596 C.3       1 <0>         0.0629
     10 C6          2.0260    1.9279    3.6518 C.ar      1 <0>        -0.1099
     11 C7          2.7246    1.4192    4.7307 C.ar      1 <0>        -0.0938
     12 C8          3.6764    2.1950    5.3657 C.ar      1 <0>        -0.1179
     13 C9          3.9298    3.4793    4.9215 C.ar      1 <0>        -0.0953
     14 C10         3.2318    3.9876    3.8420 C.ar      1 <0>        -0.1178
     15 C11         2.2831    3.2103    3.2043 C.ar      1 <0>        -0.0917
     16 N4          1.4446   -2.5127    2.2292 N.pl3     1 <0>        -0.7608
     17 N5         -2.9356   -2.1165    0.6405 N.pl3     1 <0>        -0.7890
     18 C12         0.7051   -0.5032   -1.2619 C.3       1 <0>        -0.1775
     19 H1          1.0039    1.9031    0.0027 H         1 <0>         0.1090
     20 H2         -0.5459    1.8868   -0.8726 H         1 <0>         0.1036
     21 H3         -0.5289    1.8773    0.9072 H         1 <0>         0.0801
     22 H4          0.2150    1.7261    2.5410 H         1 <0>         0.0800
     23 H5          0.5403    0.3961    3.6784 H         1 <0>         0.0728
     24 H6          2.5267    0.4159    5.0778 H         1 <0>         0.1235
     25 H7          4.2217    1.7979    6.2091 H         1 <0>         0.1317
     26 H8          4.6729    4.0857    5.4180 H         1 <0>         0.1318
     27 H9          3.4295    4.9911    3.4952 H         1 <0>         0.1320
     28 H10         1.7404    3.6061    2.3586 H         1 <0>         0.1248
     29 H11         1.2686   -3.4274    2.4999 H         1 <0>         0.4413
     30 H12         2.3060   -2.1085    2.4174 H         1 <0>         0.4362
     31 H13        -3.6281   -1.6265    0.1701 H         1 <0>         0.4303
     32 H14        -3.1520   -2.9447    1.0966 H         1 <0>         0.4419
     33 H15         1.7282   -0.1279   -1.2809 H         1 <0>         0.1028
     34 H16         0.7178   -1.5932   -1.2642 H         1 <0>         0.0731
     35 H17         0.1700   -0.1443   -2.1411 H         1 <0>         0.0998
     36 H18        -2.0837   -0.0250   -0.3980 H         1 <0>         0.4335
@<TRIPOS>BOND
     1    1    2 1
     2    1   19 1
     3    1   20 1
     4    1   21 1
     5    2    7 1
     6    2    3 1
     7    2   18 1
     8    3    4 2
     9    3   36 1
    10    4    5 1
    11    4   17 1
    12    5    6 2
    13    6    7 1
    14    6   16 1
    15    7    8 1
    16    8    9 1
    17    9   10 1
    18    9   22 1
    19    9   23 1
    20   10   15 ar
    21   10   11 ar
    22   11   12 ar
    23   11   24 1
    24   12   13 ar
    25   12   25 1
    26   13   14 ar
    27   13   26 1
    28   14   15 ar
    29   14   27 1
    30   15   28 1
    31   16   29 1
    32   16   30 1
    33   17   31 1
    34   17   32 1
    35   18   33 1
    36   18   34 1
    37   18   35 1
@<TRIPOS>MOLECULE
ZINC05115792
   31    32     0     0     0
SMALL
USER_CHARGES
5-[(3-methoxyphenyl)methyl]pyrimidine-2,4-diamine
@<TRIPOS>ATOM
      1 C1         -0.0127    1.0858    0.0080 C.3       1 <0>         0.0269
      2 O1         -0.6816    1.5467    1.1837 O.3       1 <0>        -0.3172
      3 C2         -0.7874    2.8918    1.3462 C.ar      1 <0>         0.1317
      4 C3         -0.2533    3.7506    0.3962 C.ar      1 <0>        -0.2133
      5 C4         -0.3676    5.1173    0.5606 C.ar      1 <0>        -0.0751
      6 C5         -1.0029    5.6299    1.6768 C.ar      1 <0>        -0.1567
      7 C6         -1.5309    4.7764    2.6275 C.ar      1 <0>        -0.0380
      8 C7         -1.4245    3.4085    2.4647 C.ar      1 <0>        -0.1464
      9 C8         -2.2225    5.3384    3.8427 C.3       1 <0>        -0.0159
     10 C9         -1.2157    5.5388    4.9460 C.ar      1 <0>        -0.3072
     11 C10        -1.0266    4.5717    5.9139 C.ar      1 <0>         0.2243
     12 N1         -0.1334    4.7779    6.8704 N.ar      1 <0>        -0.6051
     13 C11         0.5772    5.8955    6.9093 C.ar      1 <0>         0.6017
     14 N2          0.4263    6.8468    6.0003 N.ar      1 <0>        -0.6277
     15 C12        -0.4487    6.7039    5.0098 C.ar      1 <0>         0.4880
     16 N3         -0.6008    7.6985    4.0575 N.pl3     1 <0>        -0.8352
     17 N4          1.5004    6.0731    7.9249 N.pl3     1 <0>        -0.8217
     18 H1          0.0021   -0.0041    0.0020 H         1 <0>         0.1014
     19 H2          1.0099    1.4631    0.0003 H         1 <0>         0.0553
     20 H3         -0.5399    1.4469   -0.8751 H         1 <0>         0.0560
     21 H4          0.2475    3.3508   -0.4731 H         1 <0>         0.1271
     22 H5          0.0438    5.7861   -0.1809 H         1 <0>         0.1247
     23 H6         -1.0870    6.6989    1.8059 H         1 <0>         0.1172
     24 H7         -1.8375    2.7421    3.2075 H         1 <0>         0.1313
     25 H8         -2.6803    6.2949    3.5904 H         1 <0>         0.0770
     26 H9         -2.9933    4.6435    4.1760 H         1 <0>         0.0889
     27 H10        -1.6005    3.6570    5.8910 H         1 <0>         0.1643
     28 H11        -1.2438    7.5884    3.3397 H         1 <0>         0.4096
     29 H12        -0.0643    8.5050    4.1086 H         1 <0>         0.4062
     30 H13         1.6209    5.3839    8.5968 H         1 <0>         0.4152
     31 H14         2.0270    6.8867    7.9648 H         1 <0>         0.4128
@<TRIPOS>BOND
     1    1    2 1
     2    1   18 1
     3    1   19 1
     4    1   20 1
     5    2    3 1
     6    3    8 ar
     7    3    4 ar
     8    4    5 ar
     9    4   21 1
    10    5    6 ar
    11    5   22 1
    12    6    7 ar
    13    6   23 1
    14    7    8 ar
    15    7    9 1
    16    8   24 1
    17    9   10 1
    18    9   25 1
    19    9   26 1
    20   10   15 ar
    21   10   11 ar
    22   11   12 ar
    23   11   27 1
    24   12   13 ar
    25   13   14 ar
    26   13   17 1
    27   14   15 ar
    28   15   16 1
    29   16   28 1
    30   16   29 1
    31   17   30 1
    32   17   31 1
@<TRIPOS>MOLECULE
ZINC05115792
   32    33     0     0     0
SMALL
USER_CHARGES
5-[(3-methoxyphenyl)methyl]pyrimidine-2,4-diamine
@<TRIPOS>ATOM
      1 C1         -0.0127    1.0858    0.0080 C.3       1 <0>         0.0230
      2 O1         -0.6816    1.5467    1.1837 O.3       1 <0>        -0.3126
      3 C2         -0.7874    2.8918    1.3462 C.ar      1 <0>         0.1424
      4 C3         -0.2533    3.7506    0.3962 C.ar      1 <0>        -0.1981
      5 C4         -0.3676    5.1173    0.5606 C.ar      1 <0>        -0.0665
      6 C5         -1.0029    5.6299    1.6768 C.ar      1 <0>        -0.1635
      7 C6         -1.5309    4.7764    2.6275 C.ar      1 <0>        -0.0708
      8 C7         -1.4245    3.4085    2.4647 C.ar      1 <0>        -0.1427
      9 C8         -2.2225    5.3384    3.8427 C.3       1 <0>        -0.0256
     10 C9         -1.2157    5.5388    4.9460 C.ar      1 <0>        -0.2712
     11 C10        -1.0266    4.5717    5.9139 C.ar      1 <0>         0.2565
     12 C11         0.5772    5.8955    6.9093 C.ar      1 <0>         0.5805
     13 N1          0.4263    6.8468    6.0003 N.ar      1 <0>        -0.5252
     14 C12        -0.4487    6.7039    5.0098 C.ar      1 <0>         0.3647
     15 N2         -0.6008    7.6985    4.0575 N.pl3     1 <0>        -0.7708
     16 N3          1.5004    6.0731    7.9249 N.pl3     1 <0>        -0.7386
     17 H1          0.0021   -0.0041    0.0020 H         1 <0>         0.1086
     18 H2          1.0099    1.4631    0.0003 H         1 <0>         0.0593
     19 H3         -0.5399    1.4469   -0.8751 H         1 <0>         0.0615
     20 H4          0.2475    3.3508   -0.4731 H         1 <0>         0.1364
     21 H5          0.0438    5.7861   -0.1809 H         1 <0>         0.1338
     22 H6         -1.0870    6.6989    1.8059 H         1 <0>         0.1160
     23 H7         -1.8375    2.7421    3.2075 H         1 <0>         0.1378
     24 H8         -2.6803    6.2949    3.5904 H         1 <0>         0.1049
     25 H9         -2.9933    4.6435    4.1760 H         1 <0>         0.1259
     26 H10        -1.6005    3.6570    5.8910 H         1 <0>         0.2201
     27 H11        -1.2438    7.5884    3.3397 H         1 <0>         0.4502
     28 H12        -0.0643    8.5050    4.1086 H         1 <0>         0.4468
     29 H13         1.6209    5.3839    8.5968 H         1 <0>         0.4497
     30 H14         2.0270    6.8867    7.9648 H         1 <0>         0.4368
     31 N4         -0.1230    4.7259    6.9228 N.ar      1 <0>        -0.4881
     32 H15        -0.2369    6.7311    5.2608 H         1 <0>         0.4188
@<TRIPOS>BOND
     1    1    2 1
     2    1   17 1
     3    1   18 1
     4    1   19 1
     5    2    3 1
     6    3    8 ar
     7    3    4 ar
     8    4    5 ar
     9    4   20 1
    10    5    6 ar
    11    5   21 1
    12    6    7 ar
    13    6   22 1
    14    7    8 ar
    15    7    9 1
    16    8   23 1
    17    9   10 1
    18    9   24 1
    19    9   25 1
    20   10   14 ar
    21   10   11 ar
    22   11   26 1
    23   11   31 ar
    24   12   13 ar
    25   12   16 1
    26   12   31 ar
    27   13   14 ar
    28   13   32 1
    29   14   15 1
    30   15   27 1
    31   15   28 1
    32   16   29 1
    33   16   30 1
@<TRIPOS>MOLECULE
ZINC05115792
   32    33     0     0     0
SMALL
USER_CHARGES
5-[(3-methoxyphenyl)methyl]pyrimidine-2,4-diamine
@<TRIPOS>ATOM
      1 C1         -0.0127    1.0858    0.0080 C.3       1 <0>         0.0238
      2 O1         -0.6816    1.5467    1.1837 O.3       1 <0>        -0.3152
      3 C2         -0.7874    2.8918    1.3462 C.ar      1 <0>         0.1390
      4 C3         -0.2533    3.7506    0.3962 C.ar      1 <0>        -0.2012
      5 C4         -0.3676    5.1173    0.5606 C.ar      1 <0>        -0.0673
      6 C5         -1.0029    5.6299    1.6768 C.ar      1 <0>        -0.1590
      7 C6         -1.5309    4.7764    2.6275 C.ar      1 <0>        -0.0629
      8 C7         -1.4245    3.4085    2.4647 C.ar      1 <0>        -0.1472
      9 C8         -2.2225    5.3384    3.8427 C.3       1 <0>        -0.0280
     10 C9         -1.2157    5.5388    4.9460 C.ar      1 <0>        -0.2189
     11 C10        -1.0266    4.5717    5.9139 C.ar      1 <0>         0.2061
     12 C11         0.5772    5.8955    6.9093 C.ar      1 <0>         0.6681
     13 N1          0.4263    6.8468    6.0003 N.ar      1 <0>        -0.5675
     14 C12        -0.4487    6.7039    5.0098 C.ar      1 <0>         0.5395
     15 N2         -0.6008    7.6985    4.0575 N.pl3     1 <0>        -0.7753
     16 N3          1.5004    6.0731    7.9249 N.pl3     1 <0>        -0.7922
     17 H1          0.0021   -0.0041    0.0020 H         1 <0>         0.1071
     18 H2          1.0099    1.4631    0.0003 H         1 <0>         0.0586
     19 H3         -0.5399    1.4469   -0.8751 H         1 <0>         0.0609
     20 H4          0.2475    3.3508   -0.4731 H         1 <0>         0.1343
     21 H5          0.0438    5.7861   -0.1809 H         1 <0>         0.1319
     22 H6         -1.0870    6.6989    1.8059 H         1 <0>         0.1169
     23 H7         -1.8375    2.7421    3.2075 H         1 <0>         0.1332
     24 H8         -2.6803    6.2949    3.5904 H         1 <0>         0.0995
     25 H9         -2.9933    4.6435    4.1760 H         1 <0>         0.1111
     26 H10        -1.6005    3.6570    5.8910 H         1 <0>         0.2055
     27 H11        -1.2438    7.5884    3.3397 H         1 <0>         0.4297
     28 H12        -0.0643    8.5050    4.1086 H         1 <0>         0.4287
     29 H13         1.6209    5.3839    8.5968 H         1 <0>         0.4305
     30 H14         2.0270    6.8867    7.9648 H         1 <0>         0.4425
     31 N4         -0.1230    4.7259    6.9228 N.ar      1 <0>        -0.5950
     32 H15        -0.0107    4.0060    7.6078 H         1 <0>         0.4626
@<TRIPOS>BOND
     1    1    2 1
     2    1   17 1
     3    1   18 1
     4    1   19 1
     5    2    3 1
     6    3    8 ar
     7    3    4 ar
     8    4    5 ar
     9    4   20 1
    10    5    6 ar
    11    5   21 1
    12    6    7 ar
    13    6   22 1
    14    7    8 ar
    15    7    9 1
    16    8   23 1
    17    9   10 1
    18    9   24 1
    19    9   25 1
    20   10   14 ar
    21   10   11 ar
    22   11   26 1
    23   11   31 ar
    24   12   13 ar
    25   12   16 1
    26   12   31 ar
    27   13   14 ar
    28   14   15 1
    29   15   27 1
    30   15   28 1
    31   16   29 1
    32   16   30 1
    33   31   32 1
@<TRIPOS>MOLECULE
ZINC06627681
   39    40     0     0     0
SMALL
USER_CHARGES

@<TRIPOS>ATOM
      1 C1         -0.0173    1.4248    0.0099 C.3       1 <0>         0.0239
      2 O1          0.0021   -0.0041    0.0020 O.3       1 <0>        -0.3021
      3 C2         -1.2011   -0.6379    0.0101 C.ar      1 <0>         0.1549
      4 C3         -2.3748    0.1005    0.0195 C.ar      1 <0>        -0.2271
      5 C4         -3.5982   -0.5428    0.0277 C.ar      1 <0>        -0.0020
      6 C5         -3.6572   -1.9238    0.0266 C.ar      1 <0>        -0.2327
      7 C6         -2.4882   -2.6696    0.0172 C.ar      1 <0>         0.1543
      8 C7         -1.2561   -2.0266    0.0032 C.ar      1 <0>         0.0227
      9 O2         -0.1065   -2.7549   -0.0117 O.3       1 <0>        -0.3126
     10 C8          0.4536   -3.1089    1.2544 C.3       1 <0>         0.0351
     11 O3         -2.5472   -4.0282    0.0166 O.3       1 <0>        -0.3013
     12 C9         -3.8474   -4.6211    0.0259 C.3       1 <0>         0.0236
     13 C10        -4.8712    0.2637    0.0384 C.3       1 <0>        -0.0163
     14 C11        -5.3062    0.5346   -1.3789 C.ar      1 <0>        -0.3083
     15 C12        -4.9545    1.7101   -2.0132 C.ar      1 <0>         0.2250
     16 N1         -5.3522    1.9181   -3.2597 N.ar      1 <0>        -0.6043
     17 C13        -6.0798    1.0161   -3.9019 C.ar      1 <0>         0.6032
     18 N2         -6.4382   -0.1231   -3.3293 N.ar      1 <0>        -0.6263
     19 C14        -6.0690   -0.3996   -2.0826 C.ar      1 <0>         0.4894
     20 N3         -6.4404   -1.5946   -1.4883 N.pl3     1 <0>        -0.8360
     21 N4         -6.4756    1.2708   -5.2034 N.pl3     1 <0>        -0.8207
     22 H1          1.0053    1.8021    0.0021 H         1 <0>         0.1035
     23 H2         -0.5445    1.7859   -0.8732 H         1 <0>         0.0589
     24 H3         -0.5275    1.7763    0.9067 H         1 <0>         0.0581
     25 H4         -2.3329    1.1797    0.0207 H         1 <0>         0.1363
     26 H5         -4.6151   -2.4227    0.0334 H         1 <0>         0.1280
     27 H6         -0.2648   -3.7070    1.8151 H         1 <0>         0.0438
     28 H7          1.3650   -3.6864    1.0998 H         1 <0>         0.0924
     29 H8          0.6878   -2.2033    1.8141 H         1 <0>         0.0441
     30 H9         -4.3845   -4.3050    0.9202 H         1 <0>         0.0570
     31 H10        -4.3978   -4.3036   -0.8597 H         1 <0>         0.0568
     32 H11        -3.7517   -5.7069    0.0243 H         1 <0>         0.1041
     33 H12        -5.6506   -0.2944    0.5572 H         1 <0>         0.0773
     34 H13        -4.6980    1.2092    0.5523 H         1 <0>         0.0904
     35 H14        -4.3619    2.4519   -1.4984 H         1 <0>         0.1633
     36 H15        -6.1706   -1.7873   -0.5767 H         1 <0>         0.4079
     37 H16        -6.2200    2.1014   -5.6342 H         1 <0>         0.4156
     38 H17        -7.0085    0.6187   -5.6847 H         1 <0>         0.4133
     39 H18        -6.9704   -2.2385   -1.9837 H         1 <0>         0.4067
@<TRIPOS>BOND
     1    1    2 1
     2    1   22 1
     3    1   23 1
     4    1   24 1
     5    2    3 1
     6    3    8 ar
     7    3    4 ar
     8    4    5 ar
     9    4   25 1
    10    5    6 ar
    11    5   13 1
    12    6    7 ar
    13    6   26 1
    14    7    8 ar
    15    7   11 1
    16    8    9 1
    17    9   10 1
    18   10   27 1
    19   10   28 1
    20   10   29 1
    21   11   12 1
    22   12   30 1
    23   12   31 1
    24   12   32 1
    25   13   14 1
    26   13   33 1
    27   13   34 1
    28   14   19 ar
    29   14   15 ar
    30   15   16 ar
    31   15   35 1
    32   16   17 ar
    33   17   18 ar
    34   17   21 1
    35   18   19 ar
    36   19   20 1
    37   20   36 1
    38   20   39 1
    39   21   37 1
    40   21   38 1
@<TRIPOS>MOLECULE
ZINC06627681
   40    41     0     0     0
SMALL
USER_CHARGES

@<TRIPOS>ATOM
      1 C1         -0.0173    1.4248    0.0099 C.3       1 <0>         0.0236
      2 O1          0.0021   -0.0041    0.0020 O.3       1 <0>        -0.2966
      3 C2          0.6062   -0.6075   -1.0565 C.ar      1 <0>         0.1590
      4 C3          1.1731    0.1601   -2.0626 C.ar      1 <0>        -0.2276
      5 C4          1.7874   -0.4523   -3.1388 C.ar      1 <0>        -0.0278
      6 C5          1.8393   -1.8314   -3.2169 C.ar      1 <0>        -0.2351
      7 C6          1.2749   -2.6062   -2.2150 C.ar      1 <0>         0.1601
      8 C7          0.6613   -1.9944   -1.1284 C.ar      1 <0>         0.0371
      9 O2          0.1111   -2.7512   -0.1402 O.3       1 <0>        -0.3127
     10 C8         -1.2598   -3.1236   -0.2953 C.3       1 <0>         0.0346
     11 O3          1.3261   -3.9630   -2.2930 O.3       1 <0>        -0.2955
     12 C9          1.9770   -4.5231   -3.4352 C.3       1 <0>         0.0221
     13 C10         2.4017    0.3858   -4.2302 C.3       1 <0>        -0.0295
     14 C11         3.8422    0.6725   -3.8928 C.ar      1 <0>        -0.2227
     15 C12         4.1975    1.8410   -3.2477 C.ar      1 <0>         0.2105
     16 N1          5.4726    2.0633   -2.9647 N.ar      1 <0>        -0.5697
     17 C13         6.4065    1.1822   -3.2920 C.ar      1 <0>         0.6625
     18 N2          6.1075    0.0504   -3.9114 N.ar      1 <0>        -0.5720
     19 C14         4.8475   -0.2398   -4.2201 C.ar      1 <0>         0.5372
     20 N3          4.5370   -1.4272   -4.8628 N.pl3     1 <0>        -0.7792
     21 N4          7.7275    1.4516   -2.9793 N.pl3     1 <0>        -0.7906
     22 H1          1.0053    1.8021    0.0021 H         1 <0>         0.0555
     23 H2         -0.5445    1.7859   -0.8732 H         1 <0>         0.0607
     24 H3         -0.5275    1.7763    0.9067 H         1 <0>         0.1087
     25 H4          1.1343    1.2379   -2.0054 H         1 <0>         0.1378
     26 H5          2.3199   -2.3061   -4.0596 H         1 <0>         0.1268
     27 H6         -1.3771   -3.7054   -1.2095 H         1 <0>         0.0473
     28 H7         -1.5724   -3.7233    0.5596 H         1 <0>         0.0987
     29 H8         -1.8756   -2.2262   -0.3542 H         1 <0>         0.0474
     30 H9          1.4660   -4.1967   -4.3410 H         1 <0>         0.0599
     31 H10         3.0141   -4.1888   -3.4626 H         1 <0>         0.0544
     32 H11         1.9474   -5.6109   -3.3732 H         1 <0>         0.1103
     33 H12         2.3506   -0.1544   -5.1756 H         1 <0>         0.0994
     34 H13         1.8554    1.3249   -4.3183 H         1 <0>         0.1128
     35 H14         3.4440    2.5659   -2.9772 H         1 <0>         0.2147
     36 H15         3.6157   -1.6298   -5.0887 H         1 <0>         0.4275
     37 H16         7.9600    2.2771   -2.5260 H         1 <0>         0.4311
     38 H17         8.4208    0.8149   -3.2134 H         1 <0>         0.4453
     39 H18         5.2409   -2.0558   -5.0868 H         1 <0>         0.4288
     40 H19         5.7260    2.8827   -2.5117 H         1 <0>         0.4452
@<TRIPOS>BOND
     1    1    2 1
     2    1   22 1
     3    1   23 1
     4    1   24 1
     5    2    3 1
     6    3    8 ar
     7    3    4 ar
     8    4    5 ar
     9    4   25 1
    10    5    6 ar
    11    5   13 1
    12    6    7 ar
    13    6   26 1
    14    7    8 ar
    15    7   11 1
    16    8    9 1
    17    9   10 1
    18   10   27 1
    19   10   28 1
    20   10   29 1
    21   11   12 1
    22   12   30 1
    23   12   31 1
    24   12   32 1
    25   13   14 1
    26   13   33 1
    27   13   34 1
    28   14   19 ar
    29   14   15 ar
    30   15   16 ar
    31   15   35 1
    32   16   17 ar
    33   16   40 1
    34   17   18 ar
    35   17   21 1
    36   18   19 ar
    37   19   20 1
    38   20   36 1
    39   20   39 1
    40   21   37 1
    41   21   38 1
@<TRIPOS>MOLECULE
ZINC01540998
   50    52     0     0     0
SMALL
USER_CHARGES

@<TRIPOS>ATOM
      1 C1         -0.0167    1.3794    0.0096 C.ar      1 <0>        -0.1237
      2 C2          1.1667    2.0884    0.0021 C.ar      1 <0>        -0.0650
      3 C3          2.3848    1.4070   -0.0132 C.ar      1 <0>        -0.1108
      4 C4          2.3966    0.0113   -0.0208 C.ar      1 <0>        -0.0853
      5 C5          1.2061   -0.6856   -0.0132 C.ar      1 <0>        -0.1248
      6 C6          0.0021   -0.0041    0.0020 C.ar      1 <0>        -0.0756
      7 C7         -1.2946   -0.7719    0.0103 C.3       1 <0>        -0.0645
      8 C8         -1.7472   -1.0241   -1.4293 C.3       1 <0>        -0.0478
      9 C9         -3.0439   -1.7919   -1.4210 C.2       1 <0>        -0.0685
     10 C10        -3.1874   -3.1243   -1.5149 C.2       1 <0>        -0.0065
     11 N1         -4.5200   -3.4490   -1.4711 N.pl3     1 <0>        -0.5467
     12 H1         -4.8743   -4.3505   -1.5209 H         1 <0>         0.4184
     13 C11        -5.2735   -2.3187   -1.3465 C.2       1 <0>         0.3387
     14 C12        -4.3891   -1.2318   -1.3029 C.2       1 <0>        -0.3095
     15 C13        -4.9114    0.0734   -1.1699 C.2       1 <0>         0.5795
     16 O1         -4.1726    1.0423   -1.1322 O.2       1 <0>        -0.5172
     17 N2         -6.2532    0.2199   -1.0861 N.am      1 <0>        -0.6639
     18 H2         -6.6382    1.1055   -0.9942 H         1 <0>         0.4126
     19 C14        -7.0663   -0.8737   -1.1307 C.2       1 <0>         0.6511
     20 N3         -6.5926   -2.0916   -1.2621 N.2       1 <0>        -0.5927
     21 N4         -8.4242   -0.6953   -1.0434 N.pl3     1 <0>        -0.8265
     22 C15         3.6569    2.1603   -0.0218 C.2       1 <0>         0.5510
     23 O2          3.6435    3.3757   -0.0155 O.2       1 <0>        -0.5556
     24 N5          4.8314    1.4994   -0.0366 N.am      1 <0>        -0.6767
     25 C16         6.0919    2.2459   -0.0451 C.3       1 <0>         0.0726
     26 H3          5.9814    3.1523    0.5501 H         1 <0>         0.0776
     27 C17         7.2027    1.3778    0.5494 C.3       1 <0>        -0.0801
     28 C18         6.9032    1.1060    2.0250 C.3       1 <0>        -0.1779
     29 C19         7.9973    0.2510    2.6105 C.2       1 <0>         0.4911
     30 O3          8.9302   -0.1078    1.9123 O.co2     1 <0>        -0.6973
     31 O4          7.9496   -0.0820    3.7824 O.co2     1 <0>        -0.7205
     32 C20         6.4472    2.6155   -1.4622 C.2       1 <0>         0.4957
     33 O5          5.7154    2.2860   -2.3799 O.co2     1 <0>        -0.6965
     34 O6          7.4666    3.2441   -1.6909 O.co2     1 <0>        -0.7009
     35 H4         -0.9598    1.9054    0.0260 H         1 <0>         0.1238
     36 H5          1.1508    3.1682    0.0077 H         1 <0>         0.1319
     37 H6          3.3358   -0.5219   -0.0330 H         1 <0>         0.1274
     38 H7          1.2138   -1.7656   -0.0191 H         1 <0>         0.1227
     39 H8         -1.1489   -1.7256    0.5176 H         1 <0>         0.0683
     40 H9         -2.0557   -0.1941    0.5345 H         1 <0>         0.0708
     41 H10        -1.8929   -0.0704   -1.9367 H         1 <0>         0.0817
     42 H11        -0.9861   -1.6019   -1.9536 H         1 <0>         0.0745
     43 H12        -2.3774   -3.8322   -1.6109 H         1 <0>         0.1800
     44 H13        -8.7912    0.1979   -0.9515 H         1 <0>         0.4143
     45 H14        -9.0171   -1.4624   -1.0735 H         1 <0>         0.4255
     46 H15         4.8421    0.5294   -0.0416 H         1 <0>         0.3891
     47 H16         7.2537    0.4325    0.0090 H         1 <0>         0.0548
     48 H17         8.1565    1.8981    0.4621 H         1 <0>         0.0788
     49 H18         6.8522    2.0513    2.5654 H         1 <0>         0.0521
     50 H19         5.9494    0.5857    2.1123 H         1 <0>         0.0504
@<TRIPOS>BOND
     1    1    6 ar
     2    1    2 ar
     3    1   35 1
     4    2    3 ar
     5    2   36 1
     6    3    4 ar
     7    3   22 1
     8    4    5 ar
     9    4   37 1
    10    5    6 ar
    11    5   38 1
    12    6    7 1
    13    7    8 1
    14    7   39 1
    15    7   40 1
    16    8    9 1
    17    8   41 1
    18    8   42 1
    19    9   14 1
    20    9   10 2
    21   10   11 1
    22   10   43 1
    23   11   12 1
    24   11   13 1
    25   13   20 1
    26   13   14 2
    27   14   15 1
    28   15   16 2
    29   15   17 am
    30   17   18 1
    31   17   19 1
    32   19   20 2
    33   19   21 1
    34   21   44 1
    35   21   45 1
    36   22   23 2
    37   22   24 am
    38   24   25 1
    39   24   46 1
    40   25   26 1
    41   25   27 1
    42   25   32 1
    43   27   28 1
    44   27   47 1
    45   27   48 1
    46   28   29 1
    47   28   49 1
    48   28   50 1
    49   29   30 2
    50   29   31 1
    51   32   33 2
    52   32   34 1
@<TRIPOS>MOLECULE
ZINC00598590
   49    51     0     0     0
SMALL
USER_CHARGES
5-[(3,5-diethoxy-4-pyrrol-1-yl-phenyl)methyl]pyrimidine-2,4-diamine
@<TRIPOS>ATOM
      1 C1         -0.0127    1.0858    0.0080 C.3       1 <0>        -0.1530
      2 C2         -0.7288    1.5792    1.2668 C.3       1 <0>         0.0531
      3 O1         -0.0377    1.1059    2.4245 O.3       1 <0>        -0.2982
      4 C3         -0.5477    1.4576    3.6347 C.ar      1 <0>         0.1851
      5 C4         -1.6858    2.2464    3.7059 C.ar      1 <0>        -0.2381
      6 C5         -2.2086    2.5999    4.9357 C.ar      1 <0>         0.0133
      7 C6         -1.5937    2.1789    6.1000 C.ar      1 <0>        -0.2322
      8 C7         -0.4519    1.3946    6.0391 C.ar      1 <0>         0.1852
      9 C8          0.0748    1.0314    4.8037 C.ar      1 <0>         0.0357
     10 N1          1.2319    0.2371    4.7367 N.pl3     1 <0>        -0.3807
     11 C9          1.2985   -1.0311    4.2368 C.2       1 <0>         0.0012
     12 C10         2.5738   -1.4587    4.3406 C.2       1 <0>        -0.2005
     13 C11         3.3201   -0.4216    4.9344 C.2       1 <0>        -0.2005
     14 C12         2.4745    0.6037    5.1662 C.2       1 <0>         0.0015
     15 O2          0.1523    0.9815    7.1848 O.3       1 <0>        -0.2991
     16 C13        -0.4437    1.3922    8.4170 C.3       1 <0>         0.0529
     17 C14         0.3696    0.8357    9.5873 C.3       1 <0>        -0.1527
     18 C15        -3.4493    3.4522    5.0075 C.3       1 <0>        -0.0184
     19 C16        -3.0585    4.9075    5.0301 C.ar      1 <0>        -0.3101
     20 C17        -2.9281    5.5854    6.2265 C.ar      1 <0>         0.2260
     21 N2         -2.5826    6.8643    6.2125 N.ar      1 <0>        -0.6039
     22 C18        -2.3619    7.4977    5.0699 C.ar      1 <0>         0.6040
     23 N3         -2.4758    6.8839    3.9019 N.ar      1 <0>        -0.6261
     24 C19        -2.8143    5.5998    3.8422 C.ar      1 <0>         0.4900
     25 N4         -2.9278    4.9590    2.6192 N.pl3     1 <0>        -0.8361
     26 N5         -2.0028    8.8340    5.0976 N.pl3     1 <0>        -0.8202
     27 H1          0.0021   -0.0041    0.0020 H         1 <0>         0.0689
     28 H2          1.0099    1.4631    0.0003 H         1 <0>         0.0680
     29 H3         -0.5399    1.4469   -0.8751 H         1 <0>         0.0813
     30 H4         -0.7436    2.6691    1.2728 H         1 <0>         0.0634
     31 H5         -1.7514    1.2020    1.2746 H         1 <0>         0.0650
     32 H6         -2.1669    2.5817    2.7990 H         1 <0>         0.1308
     33 H7         -2.0031    2.4617    7.0585 H         1 <0>         0.1392
     34 H8          0.4733   -1.5941    3.8263 H         1 <0>         0.1541
     35 H9          2.9524   -2.4212    4.0298 H         1 <0>         0.1347
     36 H10         4.3755   -0.4434    5.1623 H         1 <0>         0.1346
     37 H11         2.7357    1.5510    5.6143 H         1 <0>         0.1534
     38 H12        -0.4570    2.4809    8.4690 H         1 <0>         0.0659
     39 H13        -1.4643    1.0134    8.4710 H         1 <0>         0.0662
     40 H14        -0.0850    1.1490   10.5272 H         1 <0>         0.0816
     41 H15         0.3829   -0.2530    9.5353 H         1 <0>         0.0677
     42 H16         1.3902    1.2145    9.5333 H         1 <0>         0.0678
     43 H17        -4.0748    3.2575    4.1363 H         1 <0>         0.0792
     44 H18        -4.0040    3.2109    5.9143 H         1 <0>         0.0925
     45 H19        -3.1054    5.0781    7.1633 H         1 <0>         0.1635
     46 H20        -3.1786    4.0227    2.5837 H         1 <0>         0.4077
     47 H21        -2.7566    5.4467    1.7984 H         1 <0>         0.4071
     48 H22        -1.9156    9.2952    5.9465 H         1 <0>         0.4159
     49 H23        -1.8383    9.3093    4.2682 H         1 <0>         0.4136
@<TRIPOS>BOND
     1    1    2 1
     2    1   27 1
     3    1   28 1
     4    1   29 1
     5    2    3 1
     6    2   30 1
     7    2   31 1
     8    3    4 1
     9    4    9 ar
    10    4    5 ar
    11    5    6 ar
    12    5   32 1
    13    6    7 ar
    14    6   18 1
    15    7    8 ar
    16    7   33 1
    17    8    9 ar
    18    8   15 1
    19    9   10 1
    20   10   14 1
    21   10   11 1
    22   11   12 2
    23   11   34 1
    24   12   13 1
    25   12   35 1
    26   13   14 2
    27   13   36 1
    28   14   37 1
    29   15   16 1
    30   16   17 1
    31   16   38 1
    32   16   39 1
    33   17   40 1
    34   17   41 1
    35   17   42 1
    36   18   19 1
    37   18   43 1
    38   18   44 1
    39   19   24 ar
    40   19   20 ar
    41   20   21 ar
    42   20   45 1
    43   21   22 ar
    44   22   23 ar
    45   22   26 1
    46   23   24 ar
    47   24   25 1
    48   25   46 1
    49   25   47 1
    50   26   48 1
    51   26   49 1
@<TRIPOS>MOLECULE
ZINC00394310
   24    25     0     0     0
SMALL
USER_CHARGES
6,7-dimethylpteridine-2,4-diamine
@<TRIPOS>ATOM
      1 C1          1.5036    1.5690    2.4146 C.3       1 <0>        -0.0974
      2 C2          0.0152    1.8050    2.4109 C.ar      1 <0>         0.0486
      3 C3         -0.7181    1.5718    1.2479 C.ar      1 <0>         0.1693
      4 N1         -2.0179    1.7762    1.2185 N.ar      1 <0>        -0.4449
      5 C4         -2.6429    2.2017    2.3192 C.ar      1 <0>         0.3742
      6 C5         -1.8928    2.4371    3.4984 C.ar      1 <0>        -0.0971
      7 N2         -0.5800    2.2296    3.5052 N.ar      1 <0>        -0.3828
      8 C6         -2.6117    2.9092    4.6831 C.ar      1 <0>         0.5430
      9 N3         -3.9214    3.0873    4.5788 N.ar      1 <0>        -0.6288
     10 C7         -4.5619    2.8464    3.4392 C.ar      1 <0>         0.6389
     11 N4         -3.9634    2.4207    2.3446 N.ar      1 <0>        -0.6027
     12 N5         -5.9277    3.0526    3.4001 N.pl3     1 <0>        -0.8075
     13 N6         -1.9504    3.1593    5.8654 N.pl3     1 <0>        -0.7928
     14 C8         -0.0127    1.0858    0.0080 C.3       1 <0>        -0.1119
     15 H1          2.0174    2.4850    2.1227 H         1 <0>         0.0821
     16 H2          1.8226    1.2765    3.4149 H         1 <0>         0.0797
     17 H3          1.7473    0.7750    1.7087 H         1 <0>         0.0834
     18 H4         -6.4203    2.8844    2.5816 H         1 <0>         0.4195
     19 H5         -6.3938    3.3656    4.1911 H         1 <0>         0.4169
     20 H6         -0.9917    3.0229    5.9232 H         1 <0>         0.4255
     21 H7         -2.4434    3.4717    6.6402 H         1 <0>         0.4160
     22 H8          0.0021   -0.0041    0.0020 H         1 <0>         0.0923
     23 H9          1.0099    1.4631    0.0003 H         1 <0>         0.0892
     24 H10        -0.5399    1.4469   -0.8751 H         1 <0>         0.0874
@<TRIPOS>BOND
     1    1    2 1
     2    1   15 1
     3    1   16 1
     4    1   17 1
     5    2    7 ar
     6    2    3 ar
     7    3    4 ar
     8    3   14 1
     9    4    5 ar
    10    5   11 ar
    11    5    6 ar
    12    6    7 ar
    13    6    8 ar
    14    8    9 ar
    15    8   13 1
    16    9   10 ar
    17   10   11 ar
    18   10   12 1
    19   12   18 1
    20   12   19 1
    21   13   20 1
    22   13   21 1
    23   14   22 1
    24   14   23 1
    25   14   24 1
@<TRIPOS>MOLECULE
ZINC00394310
   25    26     0     0     0
SMALL
USER_CHARGES
6,7-dimethylpteridine-2,4-diamine
@<TRIPOS>ATOM
      1 C1          1.5036    1.5690    2.4146 C.3       1 <0>        -0.1149
      2 C2          0.0152    1.8050    2.4109 C.ar      1 <0>         0.1007
      3 C3         -0.7181    1.5718    1.2479 C.ar      1 <0>         0.1984
      4 N1         -2.0179    1.7762    1.2185 N.ar      1 <0>        -0.4524
      5 C4         -2.6429    2.2017    2.3192 C.ar      1 <0>         0.3383
      6 C5         -1.8928    2.4371    3.4984 C.ar      1 <0>        -0.0223
      7 N2         -0.5800    2.2296    3.5052 N.ar      1 <0>        -0.3682
      8 C6         -2.6117    2.9092    4.6831 C.ar      1 <0>         0.5811
      9 N3         -3.9214    3.0873    4.5788 N.ar      1 <0>        -0.5762
     10 C7         -4.5619    2.8464    3.4392 C.ar      1 <0>         0.7105
     11 N4         -5.9277    3.0526    3.4001 N.pl3     1 <0>        -0.7768
     12 N5         -1.9504    3.1593    5.8654 N.pl3     1 <0>        -0.7326
     13 C8         -0.0127    1.0858    0.0080 C.3       1 <0>        -0.1257
     14 H1          2.0174    2.4850    2.1227 H         1 <0>         0.1019
     15 H2          1.8226    1.2765    3.4149 H         1 <0>         0.0960
     16 H3          1.7473    0.7750    1.7087 H         1 <0>         0.0990
     17 H4         -6.4203    2.8844    2.5816 H         1 <0>         0.4339
     18 H5         -6.3938    3.3656    4.1911 H         1 <0>         0.4460
     19 H6         -0.9917    3.0229    5.9232 H         1 <0>         0.4435
     20 H7         -2.4434    3.4717    6.6402 H         1 <0>         0.4365
     21 H8          0.0021   -0.0041    0.0020 H         1 <0>         0.1104
     22 H9          1.0099    1.4631    0.0003 H         1 <0>         0.1055
     23 H10        -0.5399    1.4469   -0.8751 H         1 <0>         0.1002
     24 N6         -4.0047    2.4085    2.2822 N.ar      1 <0>        -0.5946
     25 H11        -4.5139    2.2359    1.4390 H         1 <0>         0.4618
@<TRIPOS>BOND
     1    1    2 1
     2    1   14 1
     3    1   15 1
     4    1   16 1
     5    2    7 ar
     6    2    3 ar
     7    3    4 ar
     8    3   13 1
     9    4    5 ar
    10    5    6 ar
    11    5   24 ar
    12    6    7 ar
    13    6    8 ar
    14    8    9 ar
    15    8   12 1
    16    9   10 ar
    17   10   11 1
    18   10   24 ar
    19   11   17 1
    20   11   18 1
    21   12   19 1
    22   12   20 1
    23   13   21 1
    24   13   22 1
    25   13   23 1
    26   24   25 1
@<TRIPOS>MOLECULE
ZINC00394310
   25    26     0     0     0
SMALL
USER_CHARGES
6,7-dimethylpteridine-2,4-diamine
@<TRIPOS>ATOM
      1 C1          1.5036    1.5690    2.4146 C.3       1 <0>        -0.1182
      2 C2          0.0152    1.8050    2.4109 C.ar      1 <0>         0.1295
      3 C3         -0.7181    1.5718    1.2479 C.ar      1 <0>         0.2263
      4 N1         -2.0179    1.7762    1.2185 N.ar      1 <0>        -0.4179
      5 C4         -2.6429    2.2017    2.3192 C.ar      1 <0>         0.3627
      6 C5         -1.8928    2.4371    3.4984 C.ar      1 <0>        -0.1323
      7 N2         -0.5800    2.2296    3.5052 N.ar      1 <0>        -0.3787
      8 C6         -2.6117    2.9092    4.6831 C.ar      1 <0>         0.4551
      9 N3         -3.9214    3.0873    4.5788 N.ar      1 <0>        -0.5020
     10 C7         -4.5619    2.8464    3.4392 C.ar      1 <0>         0.5743
     11 N4         -5.9277    3.0526    3.4001 N.pl3     1 <0>        -0.7413
     12 N5         -1.9504    3.1593    5.8654 N.pl3     1 <0>        -0.7133
     13 C8         -0.0127    1.0858    0.0080 C.3       1 <0>        -0.1310
     14 H1          2.0174    2.4850    2.1227 H         1 <0>         0.1073
     15 H2          1.8226    1.2765    3.4149 H         1 <0>         0.0990
     16 H3          1.7473    0.7750    1.7087 H         1 <0>         0.1043
     17 H4         -6.4203    2.8844    2.5816 H         1 <0>         0.4501
     18 H5         -6.3938    3.3656    4.1911 H         1 <0>         0.4357
     19 H6         -0.9917    3.0229    5.9232 H         1 <0>         0.4662
     20 H7         -2.4434    3.4717    6.6402 H         1 <0>         0.4547
     21 H8          0.0021   -0.0041    0.0020 H         1 <0>         0.1176
     22 H9          1.0099    1.4631    0.0003 H         1 <0>         0.1091
     23 H10        -0.5399    1.4469   -0.8751 H         1 <0>         0.1069
     24 N6         -4.0047    2.4085    2.2822 N.ar      1 <0>        -0.4700
     25 H11        -2.9331    2.9464    4.6363 H         1 <0>         0.4056
@<TRIPOS>BOND
     1    1    2 1
     2    1   14 1
     3    1   15 1
     4    1   16 1
     5    2    7 ar
     6    2    3 ar
     7    3    4 ar
     8    3   13 1
     9    4    5 ar
    10    5    6 ar
    11    5   24 ar
    12    6    7 ar
    13    6    8 ar
    14    8    9 ar
    15    8   12 1
    16    9   10 ar
    17    9   25 1
    18   10   11 1
    19   10   24 ar
    20   11   17 1
    21   11   18 1
    22   12   19 1
    23   12   20 1
    24   13   21 1
    25   13   22 1
    26   13   23 1
@<TRIPOS>MOLECULE
ZINC13762607
   32    33     0     0     0
SMALL
USER_CHARGES
5-(3-azido-4-chloro-phenyl)-6-ethyl-pyrimidine-2,4-diamine
@<TRIPOS>ATOM
      1 C1         -0.7508    2.5330    2.8946 C.3       1 <0>        -0.1419
      2 C2         -0.8145    1.7467    1.5837 C.3       1 <0>        -0.0812
      3 C3         -2.1406    1.0371    1.4874 C.ar      1 <0>         0.2727
      4 C4         -2.2972   -0.2415    2.0189 C.ar      1 <0>        -0.2952
      5 C5         -3.5557   -0.8611    1.9037 C.ar      1 <0>         0.4995
      6 N1         -4.5393   -0.2072    1.2966 N.ar      1 <0>        -0.6294
      7 C6         -4.3434    1.0077    0.8064 C.ar      1 <0>         0.6130
      8 N2         -3.1728    1.6222    0.9021 N.ar      1 <0>        -0.6013
      9 N3         -5.3929    1.6565    0.1813 N.pl3     1 <0>        -0.8171
     10 N4         -3.7646   -2.1294    2.4146 N.pl3     1 <0>        -0.8308
     11 C7         -1.1682   -0.9307    2.6885 C.ar      1 <0>         0.0290
     12 C8         -0.0679   -1.3531    1.9321 C.ar      1 <0>        -0.1078
     13 C9          1.0058   -1.9942    2.5255 C.ar      1 <0>        -0.0759
     14 C10         1.0084   -2.2415    3.8806 C.ar      1 <0>        -0.0197
     15 C11        -0.1356   -1.8132    4.6892 C.ar      1 <0>         0.1204
     16 C12        -1.2155   -1.1546    4.0523 C.ar      1 <0>        -0.1696
     17 N5         -0.1593   -2.0379    5.9951 N.2       1 <0>        -0.3114
     18 N6         -1.0416   -1.7049    6.6067 N.1       1 <0>         0.2763
     19 N7         -1.9239   -1.3719    7.2183 N.1       1 <0>        -0.1162
     20 Cl1         2.3524   -3.0525    4.6220 Cl        1 <0>        -0.0379
     21 H1         -1.5706    3.2506    2.9281 H         1 <0>         0.0599
     22 H2          0.1993    3.0638    2.9541 H         1 <0>         0.0675
     23 H3         -0.8358    1.8448    3.7356 H         1 <0>         0.0529
     24 H4         -0.7075    2.4323    0.7431 H         1 <0>         0.0897
     25 H5         -0.0079    1.0140    1.5599 H         1 <0>         0.0884
     26 H6         -6.2568    1.2216    0.1070 H         1 <0>         0.4147
     27 H7         -5.2651    2.5465   -0.1827 H         1 <0>         0.4167
     28 H8         -3.0404   -2.5995    2.8568 H         1 <0>         0.4113
     29 H9         -4.6352   -2.5488    2.3307 H         1 <0>         0.4092
     30 H10        -0.0550   -1.1717    0.8675 H         1 <0>         0.1382
     31 H11         1.8447   -2.3067    1.9214 H         1 <0>         0.1489
     32 H12        -2.0696   -0.8292    4.6277 H         1 <0>         0.1273
@<TRIPOS>BOND
     1    1    2 1
     2    1   21 1
     3    1   22 1
     4    1   23 1
     5    2    3 1
     6    2   24 1
     7    2   25 1
     8    3    8 ar
     9    3    4 ar
    10    4    5 ar
    11    4   11 1
    12    5    6 ar
    13    5   10 1
    14    6    7 ar
    15    7    8 ar
    16    7    9 1
    17    9   26 1
    18    9   27 1
    19   10   28 1
    20   10   29 1
    21   11   16 ar
    22   11   12 ar
    23   12   13 ar
    24   12   30 1
    25   13   14 ar
    26   13   31 1
    27   14   15 ar
    28   14   20 1
    29   15   16 ar
    30   15   17 1
    31   16   32 1
    32   17   18 2
    33   18   19 2
@<TRIPOS>MOLECULE
ZINC13762607
   33    34     0     0     0
SMALL
USER_CHARGES
5-(3-azido-4-chloro-phenyl)-6-ethyl-pyrimidine-2,4-diamine
@<TRIPOS>ATOM
      1 C1         -0.7508    2.5330    2.8946 C.3       1 <0>        -0.1538
      2 C2         -0.8145    1.7467    1.5837 C.3       1 <0>        -0.1140
      3 C3         -2.1406    1.0371    1.4874 C.ar      1 <0>         0.2573
      4 C4         -2.2972   -0.2415    2.0189 C.ar      1 <0>        -0.1962
      5 C5         -3.5557   -0.8611    1.9037 C.ar      1 <0>         0.5446
      6 N1         -4.5393   -0.2072    1.2966 N.ar      1 <0>        -0.5669
      7 C6         -4.3434    1.0077    0.8064 C.ar      1 <0>         0.6734
      8 N2         -5.3929    1.6565    0.1813 N.pl3     1 <0>        -0.7887
      9 N3         -3.7646   -2.1294    2.4146 N.pl3     1 <0>        -0.7713
     10 C7         -1.1682   -0.9307    2.6885 C.ar      1 <0>        -0.0239
     11 C8         -0.0679   -1.3531    1.9321 C.ar      1 <0>        -0.0978
     12 C9          1.0058   -1.9942    2.5255 C.ar      1 <0>        -0.0718
     13 C10         1.0084   -2.2415    3.8806 C.ar      1 <0>        -0.0036
     14 C11        -0.1356   -1.8132    4.6892 C.ar      1 <0>         0.1369
     15 C12        -1.2155   -1.1546    4.0523 C.ar      1 <0>        -0.1703
     16 N4         -0.1593   -2.0379    5.9951 N.2       1 <0>        -0.3126
     17 N5         -1.0416   -1.7049    6.6067 N.1       1 <0>         0.2761
     18 N6         -1.9239   -1.3719    7.2183 N.1       1 <0>        -0.0943
     19 Cl1         2.3524   -3.0525    4.6220 Cl        1 <0>        -0.0138
     20 H1         -1.5706    3.2506    2.9281 H         1 <0>         0.0633
     21 H2          0.1993    3.0638    2.9541 H         1 <0>         0.0899
     22 H3         -0.8358    1.8448    3.7356 H         1 <0>         0.0680
     23 H4         -0.7075    2.4323    0.7431 H         1 <0>         0.1072
     24 H5         -0.0079    1.0140    1.5599 H         1 <0>         0.1225
     25 H6         -6.2568    1.2216    0.1070 H         1 <0>         0.4439
     26 H7         -5.2651    2.5465   -0.1827 H         1 <0>         0.4311
     27 H8         -3.0404   -2.5995    2.8568 H         1 <0>         0.4315
     28 H9         -4.6352   -2.5488    2.3307 H         1 <0>         0.4306
     29 H10        -0.0550   -1.1717    0.8675 H         1 <0>         0.1438
     30 H11         1.8447   -2.3067    1.9214 H         1 <0>         0.1588
     31 H12        -2.0696   -0.8292    4.6277 H         1 <0>         0.1320
     32 N7         -3.1649    1.6916    0.8738 N.ar      1 <0>        -0.5930
     33 H13        -3.0231    2.6120    0.5093 H         1 <0>         0.4607
@<TRIPOS>BOND
     1    1    2 1
     2    1   20 1
     3    1   21 1
     4    1   22 1
     5    2    3 1
     6    2   23 1
     7    2   24 1
     8    3    4 ar
     9    3   32 ar
    10    4    5 ar
    11    4   10 1
    12    5    6 ar
    13    5    9 1
    14    6    7 ar
    15    7    8 1
    16    7   32 ar
    17    8   25 1
    18    8   26 1
    19    9   27 1
    20    9   28 1
    21   10   15 ar
    22   10   11 ar
    23   11   12 ar
    24   11   29 1
    25   12   13 ar
    26   12   30 1
    27   13   14 ar
    28   13   19 1
    29   14   15 ar
    30   14   16 1
    31   15   31 1
    32   16   17 2
    33   17   18 2
    34   32   33 1
@<TRIPOS>MOLECULE
ZINC13762607
   33    34     0     0     0
SMALL
USER_CHARGES
5-(3-azido-4-chloro-phenyl)-6-ethyl-pyrimidine-2,4-diamine
@<TRIPOS>ATOM
      1 C1         -0.7508    2.5330    2.8946 C.3       1 <0>        -0.1490
      2 C2         -0.8145    1.7467    1.5837 C.3       1 <0>        -0.0969
      3 C3         -2.1406    1.0371    1.4874 C.ar      1 <0>         0.2952
      4 C4         -2.2972   -0.2415    2.0189 C.ar      1 <0>        -0.2416
      5 C5         -3.5557   -0.8611    1.9037 C.ar      1 <0>         0.3761
      6 N1         -4.5393   -0.2072    1.2966 N.ar      1 <0>        -0.5292
      7 C6         -4.3434    1.0077    0.8064 C.ar      1 <0>         0.5861
      8 N2         -5.3929    1.6565    0.1813 N.pl3     1 <0>        -0.7352
      9 N3         -3.7646   -2.1294    2.4146 N.pl3     1 <0>        -0.7663
     10 C7         -1.1682   -0.9307    2.6885 C.ar      1 <0>        -0.0342
     11 C8         -0.0679   -1.3531    1.9321 C.ar      1 <0>        -0.0865
     12 C9          1.0058   -1.9942    2.5255 C.ar      1 <0>        -0.0705
     13 C10         1.0084   -2.2415    3.8806 C.ar      1 <0>         0.0034
     14 C11        -0.1356   -1.8132    4.6892 C.ar      1 <0>         0.1404
     15 C12        -1.2155   -1.1546    4.0523 C.ar      1 <0>        -0.1716
     16 N4         -0.1593   -2.0379    5.9951 N.2       1 <0>        -0.3116
     17 N5         -1.0416   -1.7049    6.6067 N.1       1 <0>         0.2758
     18 N6         -1.9239   -1.3719    7.2183 N.1       1 <0>        -0.0901
     19 Cl1         2.3524   -3.0525    4.6220 Cl        1 <0>        -0.0075
     20 H1         -1.5706    3.2506    2.9281 H         1 <0>         0.0686
     21 H2          0.1993    3.0638    2.9541 H         1 <0>         0.0902
     22 H3         -0.8358    1.8448    3.7356 H         1 <0>         0.0612
     23 H4         -0.7075    2.4323    0.7431 H         1 <0>         0.1182
     24 H5         -0.0079    1.0140    1.5599 H         1 <0>         0.1130
     25 H6         -6.2568    1.2216    0.1070 H         1 <0>         0.4376
     26 H7         -5.2651    2.5465   -0.1827 H         1 <0>         0.4502
     27 H8         -3.0404   -2.5995    2.8568 H         1 <0>         0.4527
     28 H9         -4.6352   -2.5488    2.3307 H         1 <0>         0.4486
     29 H10        -0.0550   -1.1717    0.8675 H         1 <0>         0.1484
     30 H11         1.8447   -2.3067    1.9214 H         1 <0>         0.1632
     31 H12        -2.0696   -0.8292    4.6277 H         1 <0>         0.1335
     32 N7         -3.1649    1.6916    0.8738 N.ar      1 <0>        -0.4899
     33 H13        -3.7939   -0.6850    1.7614 H         1 <0>         0.4176
@<TRIPOS>BOND
     1    1    2 1
     2    1   20 1
     3    1   21 1
     4    1   22 1
     5    2    3 1
     6    2   23 1
     7    2   24 1
     8    3    4 ar
     9    3   32 ar
    10    4    5 ar
    11    4   10 1
    12    5    6 ar
    13    5    9 1
    14    6    7 ar
    15    6   33 1
    16    7    8 1
    17    7   32 ar
    18    8   25 1
    19    8   26 1
    20    9   27 1
    21    9   28 1
    22   10   15 ar
    23   10   11 ar
    24   11   12 ar
    25   11   29 1
    26   12   13 ar
    27   12   30 1
    28   13   14 ar
    29   13   19 1
    30   14   15 ar
    31   14   16 1
    32   15   31 1
    33   16   17 2
    34   17   18 2
@<TRIPOS>MOLECULE
ZINC13726702
   28    29     0     0     0
SMALL
USER_CHARGES
3-[(2,4-diaminopyrimidin-5-yl)methyl]phenol
@<TRIPOS>ATOM
      1 C1          1.1737    1.7832    0.0004 C.ar      1 <0>        -0.0979
      2 C2          1.1556    3.1660    0.0081 C.ar      1 <0>        -0.1225
      3 C3         -0.0491    3.8437    0.0233 C.ar      1 <0>        -0.0610
      4 C4         -1.2386    3.1407    0.0313 C.ar      1 <0>        -0.1455
      5 C5         -1.2232    1.7538    0.0174 C.ar      1 <0>         0.1089
      6 C6         -0.0126    1.0758    0.0080 C.ar      1 <0>        -0.1506
      7 O1         -2.3918    1.0600    0.0191 O.3       1 <0>        -0.4997
      8 C7         -0.0652    5.3506    0.0316 C.3       1 <0>        -0.0158
      9 C8         -0.0841    5.8606   -1.3864 C.ar      1 <0>        -0.3088
     10 C9          1.0887    6.2096   -2.0272 C.ar      1 <0>         0.2238
     11 N1          1.0384    6.6542   -3.2743 N.ar      1 <0>        -0.6053
     12 C10        -0.1181    6.7675   -3.9108 C.ar      1 <0>         0.6023
     13 N2         -1.2644    6.4431   -3.3322 N.ar      1 <0>        -0.6274
     14 C11        -1.2871    5.9856   -2.0843 C.ar      1 <0>         0.4882
     15 N3         -2.4872    5.6423   -1.4833 N.pl3     1 <0>        -0.8347
     16 N4         -0.1285    7.2360   -5.2130 N.pl3     1 <0>        -0.8213
     17 H1          2.1162    1.2560   -0.0118 H         1 <0>         0.1282
     18 H2          2.0843    3.7173    0.0018 H         1 <0>         0.1267
     19 H3         -2.1795    3.6707    0.0436 H         1 <0>         0.1217
     20 H4          0.0021   -0.0041    0.0020 H         1 <0>         0.1279
     21 H5         -2.7258    0.8544    0.9029 H         1 <0>         0.3910
     22 H6         -0.9540    5.7016    0.5558 H         1 <0>         0.0748
     23 H7          0.8258    5.7207    0.5389 H         1 <0>         0.0891
     24 H8          2.0366    6.1207   -1.5173 H         1 <0>         0.1641
     25 H9         -2.4959    5.3124   -0.5712 H         1 <0>         0.4089
     26 H10        -3.3187    5.7319   -1.9747 H         1 <0>         0.4067
     27 H11         0.7041    7.4768   -5.6484 H         1 <0>         0.4153
     28 H12        -0.9684    7.3237   -5.6902 H         1 <0>         0.4131
@<TRIPOS>BOND
     1    1    6 ar
     2    1    2 ar
     3    1   17 1
     4    2    3 ar
     5    2   18 1
     6    3    4 ar
     7    3    8 1
     8    4    5 ar
     9    4   19 1
    10    5    6 ar
    11    5    7 1
    12    6   20 1
    13    7   21 1
    14    8    9 1
    15    8   22 1
    16    8   23 1
    17    9   14 ar
    18    9   10 ar
    19   10   11 ar
    20   10   24 1
    21   11   12 ar
    22   12   13 ar
    23   12   16 1
    24   13   14 ar
    25   14   15 1
    26   15   25 1
    27   15   26 1
    28   16   27 1
    29   16   28 1
@<TRIPOS>MOLECULE
ZINC13726702
   29    30     0     0     0
SMALL
USER_CHARGES
3-[(2,4-diaminopyrimidin-5-yl)methyl]phenol
@<TRIPOS>ATOM
      1 C1          1.1737    1.7832    0.0004 C.ar      1 <0>        -0.0923
      2 C2          1.1556    3.1660    0.0081 C.ar      1 <0>        -0.1213
      3 C3         -0.0491    3.8437    0.0233 C.ar      1 <0>        -0.0863
      4 C4         -1.2386    3.1407    0.0313 C.ar      1 <0>        -0.1480
      5 C5         -1.2232    1.7538    0.0174 C.ar      1 <0>         0.1191
      6 C6         -0.0126    1.0758    0.0080 C.ar      1 <0>        -0.1372
      7 O1         -2.3918    1.0600    0.0191 O.3       1 <0>        -0.4984
      8 C7         -0.0652    5.3506    0.0316 C.3       1 <0>        -0.0280
      9 C8         -0.0841    5.8606   -1.3864 C.ar      1 <0>        -0.2199
     10 C9          1.0887    6.2096   -2.0272 C.ar      1 <0>         0.2057
     11 C10        -0.1181    6.7675   -3.9108 C.ar      1 <0>         0.6685
     12 N1         -1.2644    6.4431   -3.3322 N.ar      1 <0>        -0.5671
     13 C11        -1.2871    5.9856   -2.0843 C.ar      1 <0>         0.5392
     14 N2         -2.4872    5.6423   -1.4833 N.pl3     1 <0>        -0.7747
     15 N3         -0.1285    7.2360   -5.2130 N.pl3     1 <0>        -0.7917
     16 H1          2.1162    1.2560   -0.0118 H         1 <0>         0.1346
     17 H2          2.0843    3.7173    0.0018 H         1 <0>         0.1287
     18 H3         -2.1795    3.6707    0.0436 H         1 <0>         0.1214
     19 H4          0.0021   -0.0041    0.0020 H         1 <0>         0.1356
     20 H5         -2.7258    0.8544    0.9029 H         1 <0>         0.3993
     21 H6         -0.9540    5.7016    0.5558 H         1 <0>         0.0973
     22 H7          0.8258    5.7207    0.5389 H         1 <0>         0.1114
     23 H8          2.0366    6.1207   -1.5173 H         1 <0>         0.2054
     24 H9         -2.4959    5.3124   -0.5712 H         1 <0>         0.4289
     25 H10        -3.3187    5.7319   -1.9747 H         1 <0>         0.4293
     26 H11         0.7041    7.4768   -5.6484 H         1 <0>         0.4306
     27 H12        -0.9684    7.3237   -5.6902 H         1 <0>         0.4428
     28 N4          1.1015    6.6731   -3.3092 N.ar      1 <0>        -0.5953
     29 H13         1.9684    6.9170   -3.7440 H         1 <0>         0.4626
@<TRIPOS>BOND
     1    1    6 ar
     2    1    2 ar
     3    1   16 1
     4    2    3 ar
     5    2   17 1
     6    3    4 ar
     7    3    8 1
     8    4    5 ar
     9    4   18 1
    10    5    6 ar
    11    5    7 1
    12    6   19 1
    13    7   20 1
    14    8    9 1
    15    8   21 1
    16    8   22 1
    17    9   13 ar
    18    9   10 ar
    19   10   23 1
    20   10   28 ar
    21   11   12 ar
    22   11   15 1
    23   11   28 ar
    24   12   13 ar
    25   13   14 1
    26   14   24 1
    27   14   25 1
    28   15   26 1
    29   15   27 1
    30   28   29 1
@<TRIPOS>MOLECULE
ZINC13726702
   29    30     0     0     0
SMALL
USER_CHARGES
3-[(2,4-diaminopyrimidin-5-yl)methyl]phenol
@<TRIPOS>ATOM
      1 C1          1.1737    1.7832    0.0004 C.ar      1 <0>        -0.0897
      2 C2          1.1556    3.1660    0.0081 C.ar      1 <0>        -0.1158
      3 C3         -0.0491    3.8437    0.0233 C.ar      1 <0>        -0.0947
      4 C4         -1.2386    3.1407    0.0313 C.ar      1 <0>        -0.1520
      5 C5         -1.2232    1.7538    0.0174 C.ar      1 <0>         0.1197
      6 C6         -0.0126    1.0758    0.0080 C.ar      1 <0>        -0.1329
      7 O1         -2.3918    1.0600    0.0191 O.3       1 <0>        -0.4980
      8 C7         -0.0652    5.3506    0.0316 C.3       1 <0>        -0.0253
      9 C8         -0.0841    5.8606   -1.3864 C.ar      1 <0>        -0.2737
     10 C9          1.0887    6.2096   -2.0272 C.ar      1 <0>         0.2562
     11 C10        -0.1181    6.7675   -3.9108 C.ar      1 <0>         0.5809
     12 N1         -1.2644    6.4431   -3.3322 N.ar      1 <0>        -0.5247
     13 C11        -1.2871    5.9856   -2.0843 C.ar      1 <0>         0.3656
     14 N2         -2.4872    5.6423   -1.4833 N.pl3     1 <0>        -0.7701
     15 N3         -0.1285    7.2360   -5.2130 N.pl3     1 <0>        -0.7380
     16 H1          2.1162    1.2560   -0.0118 H         1 <0>         0.1377
     17 H2          2.0843    3.7173    0.0018 H         1 <0>         0.1334
     18 H3         -2.1795    3.6707    0.0436 H         1 <0>         0.1205
     19 H4          0.0021   -0.0041    0.0020 H         1 <0>         0.1378
     20 H5         -2.7258    0.8544    0.9029 H         1 <0>         0.4006
     21 H6         -0.9540    5.7016    0.5558 H         1 <0>         0.1025
     22 H7          0.8258    5.7207    0.5389 H         1 <0>         0.1261
     23 H8          2.0366    6.1207   -1.5173 H         1 <0>         0.2199
     24 H9         -2.4959    5.3124   -0.5712 H         1 <0>         0.4495
     25 H10        -3.3187    5.7319   -1.9747 H         1 <0>         0.4473
     26 H11         0.7041    7.4768   -5.6484 H         1 <0>         0.4498
     27 H12        -0.9684    7.3237   -5.6902 H         1 <0>         0.4370
     28 N4          1.1015    6.6731   -3.3092 N.ar      1 <0>        -0.4884
     29 H13        -1.2711    6.1025   -2.3920 H         1 <0>         0.4186
@<TRIPOS>BOND
     1    1    6 ar
     2    1    2 ar
     3    1   16 1
     4    2    3 ar
     5    2   17 1
     6    3    4 ar
     7    3    8 1
     8    4    5 ar
     9    4   18 1
    10    5    6 ar
    11    5    7 1
    12    6   19 1
    13    7   20 1
    14    8    9 1
    15    8   21 1
    16    8   22 1
    17    9   13 ar
    18    9   10 ar
    19   10   23 1
    20   10   28 ar
    21   11   12 ar
    22   11   15 1
    23   11   28 ar
    24   12   13 ar
    25   12   29 1
    26   13   14 1
    27   14   24 1
    28   14   25 1
    29   15   26 1
    30   15   27 1
@<TRIPOS>MOLECULE
ZINC01542008
   52    54     0     0     0
SMALL
USER_CHARGES
2-[4-[2-(2,4-diaminopteridin-6-yl)ethyl]benzoyl]amino-4-methylene-pentanedioic acid
@<TRIPOS>ATOM
      1 C1         -0.2956    0.4733   -3.1271 C.2       1 <0>        -0.1980
      2 C2          0.0141    1.5862   -2.4663 C.2       1 <0>        -0.1267
      3 C3         -0.7578    1.9676   -1.2295 C.3       1 <0>        -0.0620
      4 C4         -0.0178    1.4608    0.0101 C.3       1 <0>         0.1135
      5 H1          1.0048    1.8381    0.0023 H         1 <0>         0.0992
      6 C5         -0.7232    1.9468    1.2500 C.2       1 <0>         0.4663
      7 O1         -1.1640    1.1512    2.0453 O.co2     1 <0>        -0.6438
      8 N1          0.0021   -0.0041    0.0020 N.am      1 <0>        -0.6821
      9 C6          0.9736   -0.6685    0.6587 C.2       1 <0>         0.5491
     10 O2          1.8333   -0.0523    1.2576 O.2       1 <0>        -0.5435
     11 C7          0.9936   -2.1468    0.6506 C.ar      1 <0>        -0.1037
     12 C8          0.0046   -2.8574   -0.0314 C.ar      1 <0>        -0.0841
     13 C9          0.0322   -4.2367   -0.0394 C.ar      1 <0>        -0.1214
     14 C10         1.0309   -4.9157    0.6357 C.ar      1 <0>        -0.0812
     15 C11         2.0110   -4.2173    1.3184 C.ar      1 <0>        -0.1248
     16 C12         1.9983   -2.8379    1.3296 C.ar      1 <0>        -0.0637
     17 C13         1.0510   -6.4225    0.6279 C.3       1 <0>        -0.0684
     18 C14         0.2416   -6.9496    1.8145 C.3       1 <0>        -0.0600
     19 C15         0.2618   -8.4564    1.8066 C.ar      1 <0>         0.0605
     20 C16         1.3258   -9.1358    2.3990 C.ar      1 <0>         0.1455
     21 N2          1.3654  -10.4513    2.4051 N.ar      1 <0>        -0.4418
     22 C17         0.3744  -11.1428    1.8370 C.ar      1 <0>         0.3640
     23 C18        -0.7046  -10.4473    1.2363 C.ar      1 <0>        -0.0874
     24 N3         -0.7277   -9.1184    1.2455 N.ar      1 <0>        -0.3808
     25 C19        -1.7721  -11.2398    0.6236 C.ar      1 <0>         0.5426
     26 N4         -1.6626  -12.5604    0.6686 N.ar      1 <0>        -0.6311
     27 C20        -0.6207  -13.1470    1.2493 C.ar      1 <0>         0.6349
     28 N5          0.3663  -12.4814    1.8154 N.ar      1 <0>        -0.6025
     29 N6         -0.5697  -14.5279    1.2606 N.pl3     1 <0>        -0.8115
     30 N7         -2.8528  -10.6344    0.0208 N.pl3     1 <0>        -0.7916
     31 C21         1.1088    2.4430   -2.9426 C.2       1 <0>         0.4822
     32 O3          1.7312    2.1354   -3.9401 O.co2     1 <0>        -0.6515
     33 H2          0.2576    0.1999   -4.0135 H         1 <0>         0.0978
     34 H3         -1.1001   -0.1565   -2.7770 H         1 <0>         0.0804
     35 H4         -1.7507    1.5197   -1.2683 H         1 <0>         0.0490
     36 H5         -0.8503    3.0525   -1.1791 H         1 <0>         0.1004
     37 H6         -0.6840   -0.4958   -0.4759 H         1 <0>         0.3857
     38 H7         -0.7780   -2.3286   -0.5550 H         1 <0>         0.1266
     39 H8         -0.7300   -4.7877   -0.5704 H         1 <0>         0.1230
     40 H9          2.7878   -4.7533    1.8435 H         1 <0>         0.1242
     41 H10         2.7643   -2.2939    1.8623 H         1 <0>         0.1351
     42 H11         0.6129   -6.7869   -0.3013 H         1 <0>         0.0739
     43 H12         2.0804   -6.7725    0.7060 H         1 <0>         0.0740
     44 H13         0.6798   -6.5852    2.7437 H         1 <0>         0.0924
     45 H14        -0.7877   -6.5996    1.7363 H         1 <0>         0.0912
     46 H15         2.1271   -8.5757    2.8580 H         1 <0>         0.1826
     47 H16         0.1790  -14.9822    1.6778 H         1 <0>         0.4177
     48 H17        -1.2825  -15.0429    0.8513 H         1 <0>         0.4148
     49 H18        -3.5506  -11.1758   -0.3804 H         1 <0>         0.4147
     50 H19        -2.9160   -9.6668   -0.0026 H         1 <0>         0.4278
     51 O4         -0.8617    3.2635    1.4708 O.co2     1 <0>        -0.7618
     52 O5          1.4225    3.5703   -2.2733 O.co2     1 <0>        -0.7457
@<TRIPOS>BOND
     1    1    2 2
     2    1   33 1
     3    1   34 1
     4    2    3 1
     5    2   31 1
     6    3    4 1
     7    3   35 1
     8    3   36 1
     9    4    5 1
    10    4    6 1
    11    4    8 1
    12    6    7 2
    13    6   51 1
    14    8    9 am
    15    8   37 1
    16    9   10 2
    17    9   11 1
    18   11   16 ar
    19   11   12 ar
    20   12   13 ar
    21   12   38 1
    22   13   14 ar
    23   13   39 1
    24   14   15 ar
    25   14   17 1
    26   15   16 ar
    27   15   40 1
    28   16   41 1
    29   17   18 1
    30   17   42 1
    31   17   43 1
    32   18   19 1
    33   18   44 1
    34   18   45 1
    35   19   24 ar
    36   19   20 ar
    37   20   21 ar
    38   20   46 1
    39   21   22 ar
    40   22   28 ar
    41   22   23 ar
    42   23   24 ar
    43   23   25 ar
    44   25   26 ar
    45   25   30 1
    46   26   27 ar
    47   27   28 ar
    48   27   29 1
    49   29   47 1
    50   29   48 1
    51   30   49 1
    52   30   50 1
    53   31   32 2
    54   31   52 1
@<TRIPOS>MOLECULE
ZINC01542008
   53    55     0     0     0
SMALL
USER_CHARGES
2-[4-[2-(2,4-diaminopteridin-6-yl)ethyl]benzoyl]amino-4-methylene-pentanedioic acid
@<TRIPOS>ATOM
      1 C1         -0.3291    0.4878   -3.0943 C.2       1 <0>        -0.2012
      2 C2         -0.0193    1.5991   -2.4310 C.2       1 <0>        -0.1237
      3 C3         -0.7879    1.9752   -1.1906 C.3       1 <0>        -0.0629
      4 C4         -0.0431    1.4659    0.0451 C.3       1 <0>         0.1129
      5 H1          0.9788    1.8450    0.0352 H         1 <0>         0.1005
      6 C5         -0.7454    1.9466    1.2887 C.2       1 <0>         0.4664
      7 O1         -1.1822    1.1477    2.0829 O.co2     1 <0>        -0.6461
      8 N1         -0.0205    0.0010    0.0323 N.am      1 <0>        -0.6796
      9 C6          0.9543   -0.6637    0.6838 C.2       1 <0>         0.5449
     10 O2          1.8148   -0.0478    1.2818 O.2       1 <0>        -0.5393
     11 C7          0.9769   -2.1419    0.6709 C.ar      1 <0>        -0.0937
     12 C8         -0.0130   -2.8521   -0.0102 C.ar      1 <0>        -0.0842
     13 C9          0.0171   -4.2314   -0.0226 C.ar      1 <0>        -0.1200
     14 C10         1.0192   -4.9107    0.6471 C.ar      1 <0>        -0.0940
     15 C11         2.0002   -4.2126    1.3289 C.ar      1 <0>        -0.1220
     16 C12         1.9851   -2.8333    1.3445 C.ar      1 <0>        -0.0629
     17 C13         1.0420   -6.4174    0.6345 C.3       1 <0>        -0.0654
     18 C14         0.2374   -6.9497    1.8220 C.3       1 <0>        -0.0745
     19 C15         0.2603   -8.4564    1.8093 C.ar      1 <0>         0.1141
     20 C16         1.3274   -9.1358    2.3961 C.ar      1 <0>         0.1828
     21 N2          1.3692  -10.4512    2.3983 N.ar      1 <0>        -0.4196
     22 C17         0.3779  -11.1427    1.8308 C.ar      1 <0>         0.3404
     23 C18        -0.7043  -10.4473    1.2358 C.ar      1 <0>        -0.0526
     24 N3         -0.7271   -9.1184    1.2445 N.ar      1 <0>        -0.3791
     25 C19        -1.7726  -11.2398    0.6244 C.ar      1 <0>         0.5878
     26 N4         -1.6603  -12.5603    0.6645 N.ar      1 <0>        -0.5759
     27 C20        -0.6152  -13.1469    1.2396 C.ar      1 <0>         0.6118
     28 N5         -0.5614  -14.5277    1.2459 N.pl3     1 <0>        -0.7943
     29 N6         -2.8535  -10.6344    0.0221 N.pl3     1 <0>        -0.7439
     30 C21         1.0723    2.4594   -2.9081 C.2       1 <0>         0.4806
     31 O3          1.6921    2.1561   -3.9086 O.co2     1 <0>        -0.6506
     32 H2          0.2217    0.2182   -3.9834 H         1 <0>         0.0978
     33 H3         -1.1313   -0.1446   -2.7437 H         1 <0>         0.0790
     34 H4         -1.7802    1.5256   -1.2276 H         1 <0>         0.0491
     35 H5         -0.8823    3.0598   -1.1364 H         1 <0>         0.1021
     36 H6         -0.7073   -0.4904   -0.4450 H         1 <0>         0.3851
     37 H7         -0.7982   -2.3231   -0.5296 H         1 <0>         0.1288
     38 H8         -0.7458   -4.7821   -0.5529 H         1 <0>         0.1214
     39 H9          2.7797   -4.7489    1.8498 H         1 <0>         0.1248
     40 H10         2.7518   -2.2896    1.8765 H         1 <0>         0.1381
     41 H11         0.6016   -6.7797   -0.2944 H         1 <0>         0.0750
     42 H12         2.0723   -6.7658    0.7082 H         1 <0>         0.0774
     43 H13         0.6779   -6.5875    2.7510 H         1 <0>         0.1084
     44 H14        -0.7928   -6.6013    1.7482 H         1 <0>         0.1033
     45 H15         2.1292   -8.5757    2.8543 H         1 <0>         0.2073
     46 H16         0.1893  -14.9819    1.6595 H         1 <0>         0.4470
     47 H17        -1.2743  -15.0427    0.8366 H         1 <0>         0.4232
     48 H18        -3.5515  -11.1758   -0.3789 H         1 <0>         0.4331
     49 H19        -2.9167   -9.6668   -0.0013 H         1 <0>         0.4596
     50 O4         -0.8855    3.2624    1.5142 O.co2     1 <0>        -0.7574
     51 O5          1.3861    3.5852   -2.2362 O.co2     1 <0>        -0.7432
     52 N7          0.4294  -12.5196    1.8365 N.ar      1 <0>        -0.4684
     53 H20        -2.3815  -13.1168    0.2519 H         1 <0>         0.4515
@<TRIPOS>BOND
     1    1    2 2
     2    1   32 1
     3    1   33 1
     4    2    3 1
     5    2   30 1
     6    3    4 1
     7    3   34 1
     8    3   35 1
     9    4    5 1
    10    4    6 1
    11    4    8 1
    12    6    7 2
    13    6   50 1
    14    8    9 am
    15    8   36 1
    16    9   10 2
    17    9   11 1
    18   11   16 ar
    19   11   12 ar
    20   12   13 ar
    21   12   37 1
    22   13   14 ar
    23   13   38 1
    24   14   15 ar
    25   14   17 1
    26   15   16 ar
    27   15   39 1
    28   16   40 1
    29   17   18 1
    30   17   41 1
    31   17   42 1
    32   18   19 1
    33   18   43 1
    34   18   44 1
    35   19   24 ar
    36   19   20 ar
    37   20   21 ar
    38   20   45 1
    39   21   22 ar
    40   22   52 ar
    41   22   23 ar
    42   23   24 ar
    43   23   25 ar
    44   25   29 1
    45   25   26 ar
    46   26   53 1
    47   26   27 ar
    48   27   28 1
    49   27   52 ar
    50   28   46 1
    51   28   47 1
    52   29   48 1
    53   29   49 1
    54   30   31 2
    55   30   51 1
@<TRIPOS>MOLECULE
ZINC01542008
   53    55     0     0     0
SMALL
USER_CHARGES
2-[4-[2-(2,4-diaminopteridin-6-yl)ethyl]benzoyl]amino-4-methylene-pentanedioic acid
@<TRIPOS>ATOM
      1 C1         -0.2956    0.4733   -3.1271 C.2       1 <0>        -0.2009
      2 C2          0.0141    1.5862   -2.4663 C.2       1 <0>        -0.1241
      3 C3         -0.7578    1.9676   -1.2295 C.3       1 <0>        -0.0630
      4 C4         -0.0178    1.4608    0.0101 C.3       1 <0>         0.1129
      5 H1          1.0048    1.8381    0.0023 H         1 <0>         0.1005
      6 C5         -0.7232    1.9468    1.2500 C.2       1 <0>         0.4664
      7 O1         -1.1640    1.1512    2.0453 O.co2     1 <0>        -0.6462
      8 N1          0.0021   -0.0041    0.0020 N.am      1 <0>        -0.6792
      9 C6          0.9736   -0.6685    0.6587 C.2       1 <0>         0.5447
     10 O2          1.8333   -0.0523    1.2576 O.2       1 <0>        -0.5395
     11 C7          0.9936   -2.1468    0.6506 C.ar      1 <0>        -0.0929
     12 C8          0.0046   -2.8574   -0.0314 C.ar      1 <0>        -0.0838
     13 C9          0.0322   -4.2367   -0.0394 C.ar      1 <0>        -0.1191
     14 C10         1.0309   -4.9157    0.6357 C.ar      1 <0>        -0.0951
     15 C11         2.0110   -4.2173    1.3184 C.ar      1 <0>        -0.1223
     16 C12         1.9983   -2.8379    1.3296 C.ar      1 <0>        -0.0633
     17 C13         1.0510   -6.4225    0.6279 C.3       1 <0>        -0.0650
     18 C14         0.2416   -6.9496    1.8145 C.3       1 <0>        -0.0765
     19 C15         0.2618   -8.4564    1.8066 C.ar      1 <0>         0.1137
     20 C16         1.3258   -9.1358    2.3990 C.ar      1 <0>         0.1706
     21 N2          1.3654  -10.4513    2.4051 N.ar      1 <0>        -0.4448
     22 C17         0.3744  -11.1428    1.8370 C.ar      1 <0>         0.3232
     23 C18        -0.7046  -10.4473    1.2363 C.ar      1 <0>        -0.0100
     24 N3         -0.7277   -9.1184    1.2455 N.ar      1 <0>        -0.3663
     25 C19        -1.7721  -11.2398    0.6236 C.ar      1 <0>         0.5807
     26 N4         -1.6626  -12.5604    0.6686 N.ar      1 <0>        -0.5784
     27 C20        -0.6207  -13.1470    1.2493 C.ar      1 <0>         0.7100
     28 N5         -0.5697  -14.5279    1.2606 N.pl3     1 <0>        -0.7816
     29 N6         -2.8528  -10.6344    0.0208 N.pl3     1 <0>        -0.7295
     30 C21         1.1088    2.4430   -2.9426 C.2       1 <0>         0.4807
     31 O3          1.7312    2.1354   -3.9401 O.co2     1 <0>        -0.6506
     32 H2          0.2576    0.1999   -4.0135 H         1 <0>         0.0979
     33 H3         -1.1001   -0.1565   -2.7770 H         1 <0>         0.0791
     34 H4         -1.7507    1.5197   -1.2683 H         1 <0>         0.0493
     35 H5         -0.8503    3.0525   -1.1791 H         1 <0>         0.1021
     36 H6         -0.6840   -0.4958   -0.4759 H         1 <0>         0.3853
     37 H7         -0.7780   -2.3286   -0.5550 H         1 <0>         0.1295
     38 H8         -0.7300   -4.7877   -0.5704 H         1 <0>         0.1225
     39 H9          2.7878   -4.7533    1.8435 H         1 <0>         0.1239
     40 H10         2.7643   -2.2939    1.8623 H         1 <0>         0.1380
     41 H11         0.6129   -6.7869   -0.3013 H         1 <0>         0.0763
     42 H12         2.0804   -6.7725    0.7060 H         1 <0>         0.0765
     43 H13         0.6798   -6.5852    2.7437 H         1 <0>         0.1088
     44 H14        -0.7877   -6.5996    1.7363 H         1 <0>         0.1060
     45 H15         2.1271   -8.5757    2.8580 H         1 <0>         0.2091
     46 H16         0.1790  -14.9822    1.6778 H         1 <0>         0.4323
     47 H17        -1.2825  -15.0429    0.8513 H         1 <0>         0.4442
     48 H18        -3.5506  -11.1758   -0.3804 H         1 <0>         0.4356
     49 H19        -2.9160   -9.6668   -0.0026 H         1 <0>         0.4460
     50 O4         -0.8617    3.2635    1.4708 O.co2     1 <0>        -0.7572
     51 O5          1.4225    3.5703   -2.2733 O.co2     1 <0>        -0.7434
     52 N7          0.4234  -12.5198    1.8472 N.ar      1 <0>        -0.5937
     53 H20         1.1946  -12.9895    2.2769 H         1 <0>         0.4606
@<TRIPOS>BOND
     1    1    2 2
     2    1   32 1
     3    1   33 1
     4    2    3 1
     5    2   30 1
     6    3    4 1
     7    3   34 1
     8    3   35 1
     9    4    5 1
    10    4    6 1
    11    4    8 1
    12    6    7 2
    13    6   50 1
    14    8    9 am
    15    8   36 1
    16    9   10 2
    17    9   11 1
    18   11   16 ar
    19   11   12 ar
    20   12   13 ar
    21   12   37 1
    22   13   14 ar
    23   13   38 1
    24   14   15 ar
    25   14   17 1
    26   15   16 ar
    27   15   39 1
    28   16   40 1
    29   17   18 1
    30   17   41 1
    31   17   42 1
    32   18   19 1
    33   18   43 1
    34   18   44 1
    35   19   24 ar
    36   19   20 ar
    37   20   21 ar
    38   20   45 1
    39   21   22 ar
    40   22   23 ar
    41   22   52 ar
    42   23   24 ar
    43   23   25 ar
    44   25   26 ar
    45   25   29 1
    46   26   27 ar
    47   27   28 1
    48   27   52 ar
    49   28   46 1
    50   28   47 1
    51   29   48 1
    52   29   49 1
    53   30   31 2
    54   30   51 1
    55   52   53 1
@<TRIPOS>MOLECULE
ZINC00172636
   31    33     0     0     0
SMALL
USER_CHARGES
5-(4-chlorophenyl)sulfanylquinazoline-2,4-diamine
@<TRIPOS>ATOM
      1 C1         -1.4650    5.7183    0.8455 C.ar      1 <0>        -0.0459
      2 C2         -2.6051    4.9692    0.7842 C.ar      1 <0>        -0.1311
      3 C3         -2.5229    3.5881    0.5697 C.ar      1 <0>         0.2433
      4 C4         -1.2530    2.9834    0.4043 C.ar      1 <0>        -0.2087
      5 C5         -0.0933    3.7767    0.4584 C.ar      1 <0>        -0.0374
      6 C6         -0.2153    5.1380    0.6790 C.ar      1 <0>        -0.1586
      7 S1          1.4964    3.0469    0.2474 S.3       1 <0>         0.0265
      8 C7          2.6176    4.3704    0.5571 C.ar      1 <0>        -0.1628
      9 C8          3.0782    5.1531   -0.4946 C.ar      1 <0>        -0.0514
     10 C9          3.9523    6.1932   -0.2480 C.ar      1 <0>        -0.1204
     11 C10         4.3790    6.4490    1.0435 C.ar      1 <0>        -0.0050
     12 C11         3.9264    5.6675    2.0923 C.ar      1 <0>        -0.1201
     13 C12         3.0474    4.6299    1.8527 C.ar      1 <0>        -0.0480
     14 Cl1         5.4837    7.7530    1.3486 Cl        1 <0>        -0.0574
     15 C13        -1.1967    1.5883    0.1829 C.ar      1 <0>         0.5089
     16 N1         -2.3351    0.9092    0.1514 N.ar      1 <0>        -0.6100
     17 C14        -3.5078    1.5143    0.3172 C.ar      1 <0>         0.6047
     18 N2         -3.6178    2.8132    0.5210 N.ar      1 <0>        -0.5967
     19 N3         -4.6598    0.7503    0.2738 N.pl3     1 <0>        -0.8176
     20 N4          0.0126    0.9486    0.0095 N.pl3     1 <0>        -0.8335
     21 H1         -1.5376    6.7822    1.0165 H         1 <0>         0.1339
     22 H2         -3.5684    5.4393    0.9159 H         1 <0>         0.1399
     23 H3          0.6706    5.7543    0.7223 H         1 <0>         0.1266
     24 H4          2.7493    4.9510   -1.5033 H         1 <0>         0.1425
     25 H5          4.3066    6.8052   -1.0644 H         1 <0>         0.1417
     26 H6          4.2609    5.8697    3.0991 H         1 <0>         0.1416
     27 H7          2.6940    4.0209    2.6716 H         1 <0>         0.1421
     28 H8         -4.6020   -0.2065    0.1248 H         1 <0>         0.4141
     29 H9         -5.5257    1.1712    0.3922 H         1 <0>         0.4165
     30 H10         0.6893    1.3384   -0.5659 H         1 <0>         0.4092
     31 H11         0.1880    0.1110    0.4660 H         1 <0>         0.4132
@<TRIPOS>BOND
     1    1    6 ar
     2    1    2 ar
     3    1   21 1
     4    2    3 ar
     5    2   22 1
     6    3   18 ar
     7    3    4 ar
     8    4    5 ar
     9    4   15 ar
    10    5    6 ar
    11    5    7 1
    12    6   23 1
    13    7    8 1
    14    8   13 ar
    15    8    9 ar
    16    9   10 ar
    17    9   24 1
    18   10   11 ar
    19   10   25 1
    20   11   12 ar
    21   11   14 1
    22   12   13 ar
    23   12   26 1
    24   13   27 1
    25   15   16 ar
    26   15   20 1
    27   16   17 ar
    28   17   18 ar
    29   17   19 1
    30   19   28 1
    31   19   29 1
    32   20   30 1
    33   20   31 1
@<TRIPOS>MOLECULE
ZINC05891528
   26    27     0     0     0
SMALL
USER_CHARGES
(2,4-diamino-5-methyl-pyrido[5,6-e]pyrimidin-6-yl)methanol
@<TRIPOS>ATOM
      1 C1         -2.5562    1.5032    1.0734 C.3       1 <0>        -0.1524
      2 C2         -1.2225    2.2025    1.0163 C.ar      1 <0>         0.0371
      3 C3         -1.1246    3.5532    1.2264 C.ar      1 <0>        -0.1962
      4 C4          0.1175    4.1734    1.1737 C.ar      1 <0>         0.2140
      5 N1          1.2174    3.4996    0.9207 N.ar      1 <0>        -0.4911
      6 C5          1.1876    2.1847    0.7027 C.ar      1 <0>         0.4090
      7 C6         -0.0480    1.4926    0.7424 C.ar      1 <0>        -0.2776
      8 C7         -0.0494    0.0953    0.5073 C.ar      1 <0>         0.5220
      9 N2          1.1084   -0.5007    0.2606 N.ar      1 <0>        -0.6165
     10 C8          2.2468    0.1862    0.2323 C.ar      1 <0>         0.6215
     11 N3          2.3033    1.4877    0.4439 N.ar      1 <0>        -0.5900
     12 N4          3.4216   -0.4921   -0.0304 N.pl3     1 <0>        -0.8119
     13 N5         -1.2235   -0.6248    0.5340 N.pl3     1 <0>        -0.8466
     14 C9         -2.3610    4.3632    1.5202 C.3       1 <0>         0.1310
     15 O1         -1.9999    5.7333    1.7060 O.3       1 <0>        -0.5701
     16 H1         -2.6884    1.0527    2.0572 H         1 <0>         0.0873
     17 H2         -3.3529    2.2251    0.8943 H         1 <0>         0.0806
     18 H3         -2.5918    0.7259    0.3101 H         1 <0>         0.1010
     19 H4          0.1810    5.2379    1.3448 H         1 <0>         0.1759
     20 H5          3.4041   -1.4488   -0.1893 H         1 <0>         0.4156
     21 H6          4.2638   -0.0115   -0.0559 H         1 <0>         0.4185
     22 H7         -1.3853   -1.3134   -0.1296 H         1 <0>         0.4102
     23 H8         -1.8884   -0.4431    1.2165 H         1 <0>         0.4178
     24 H9         -3.0563    4.2808    0.6848 H         1 <0>         0.0614
     25 H10        -2.8354    3.9863    2.4263 H         1 <0>         0.0611
     26 H11        -2.7482    6.3145    1.8992 H         1 <0>         0.3885
@<TRIPOS>BOND
     1    1    2 1
     2    1   16 1
     3    1   17 1
     4    1   18 1
     5    2    7 ar
     6    2    3 ar
     7    3    4 ar
     8    3   14 1
     9    4    5 ar
    10    4   19 1
    11    5    6 ar
    12    6   11 ar
    13    6    7 ar
    14    7    8 ar
    15    8    9 ar
    16    8   13 1
    17    9   10 ar
    18   10   11 ar
    19   10   12 1
    20   12   20 1
    21   12   21 1
    22   13   22 1
    23   13   23 1
    24   14   15 1
    25   14   24 1
    26   14   25 1
    27   15   26 1
@<TRIPOS>MOLECULE
ZINC05891528
   27    28     0     0     0
SMALL
USER_CHARGES
(2,4-diamino-5-methyl-pyrido[5,6-e]pyrimidin-6-yl)methanol
@<TRIPOS>ATOM
      1 C1         -2.5562    1.5032    1.0734 C.3       1 <0>        -0.1674
      2 C2         -1.2225    2.2025    1.0163 C.ar      1 <0>         0.0481
      3 C3         -1.1246    3.5532    1.2264 C.ar      1 <0>        -0.1365
      4 C4          0.1175    4.1734    1.1737 C.ar      1 <0>         0.2436
      5 N1          1.2174    3.4996    0.9207 N.ar      1 <0>        -0.4499
      6 C5          1.1876    2.1847    0.7027 C.ar      1 <0>         0.3547
      7 C6         -0.0480    1.4926    0.7424 C.ar      1 <0>        -0.2547
      8 C7         -0.0494    0.0953    0.5073 C.ar      1 <0>         0.5529
      9 N2          1.1084   -0.5007    0.2606 N.ar      1 <0>        -0.5517
     10 C8          2.2468    0.1862    0.2323 C.ar      1 <0>         0.4931
     11 N3          3.4216   -0.4921   -0.0304 N.pl3     1 <0>        -0.7530
     12 N4         -1.2235   -0.6248    0.5340 N.pl3     1 <0>        -0.7711
     13 C9         -2.3610    4.3632    1.5202 C.3       1 <0>         0.1161
     14 O1         -1.9999    5.7333    1.7060 O.3       1 <0>        -0.5697
     15 H1         -2.6884    1.0527    2.0572 H         1 <0>         0.1093
     16 H2         -3.3529    2.2251    0.8943 H         1 <0>         0.1070
     17 H3         -2.5918    0.7259    0.3101 H         1 <0>         0.1046
     18 H4          0.1810    5.2379    1.3448 H         1 <0>         0.2055
     19 H5          3.4041   -1.4488   -0.1893 H         1 <0>         0.4498
     20 H6          4.2638   -0.0115   -0.0559 H         1 <0>         0.4585
     21 H7         -1.3853   -1.3134   -0.1296 H         1 <0>         0.4381
     22 H8         -1.8884   -0.4431    1.2165 H         1 <0>         0.4471
     23 H9         -3.0563    4.2808    0.6848 H         1 <0>         0.0810
     24 H10        -2.8354    3.9863    2.4263 H         1 <0>         0.0809
     25 H11        -2.7482    6.3145    1.8992 H         1 <0>         0.4039
     26 N5          2.3671    1.5214    0.4415 N.ar      1 <0>        -0.4622
     27 H12         1.9528    0.0348    0.2437 H         1 <0>         0.4218
@<TRIPOS>BOND
     1    1    2 1
     2    1   15 1
     3    1   16 1
     4    1   17 1
     5    2    7 ar
     6    2    3 ar
     7    3    4 ar
     8    3   13 1
     9    4    5 ar
    10    4   18 1
    11    5    6 ar
    12    6    7 ar
    13    6   26 ar
    14    7    8 ar
    15    8    9 ar
    16    8   12 1
    17    9   10 ar
    18    9   27 1
    19   10   11 1
    20   10   26 ar
    21   11   19 1
    22   11   20 1
    23   12   21 1
    24   12   22 1
    25   13   14 1
    26   13   23 1
    27   13   24 1
    28   14   25 1
@<TRIPOS>MOLECULE
ZINC05891528
   27    28     0     0     0
SMALL
USER_CHARGES
(2,4-diamino-5-methyl-pyrido[5,6-e]pyrimidin-6-yl)methanol
@<TRIPOS>ATOM
      1 C1         -2.5562    1.5032    1.0734 C.3       1 <0>        -0.1656
      2 C2         -1.2225    2.2025    1.0163 C.ar      1 <0>         0.0567
      3 C3         -1.1246    3.5532    1.2264 C.ar      1 <0>        -0.1548
      4 C4          0.1175    4.1734    1.1737 C.ar      1 <0>         0.2406
      5 N1          1.2174    3.4996    0.9207 N.ar      1 <0>        -0.5007
      6 C5          1.1876    2.1847    0.7027 C.ar      1 <0>         0.3973
      7 C6         -0.0480    1.4926    0.7424 C.ar      1 <0>        -0.2302
      8 C7         -0.0494    0.0953    0.5073 C.ar      1 <0>         0.5804
      9 N2          1.1084   -0.5007    0.2606 N.ar      1 <0>        -0.5720
     10 C8          2.2468    0.1862    0.2323 C.ar      1 <0>         0.6927
     11 N3          3.4216   -0.4921   -0.0304 N.pl3     1 <0>        -0.7791
     12 N4         -1.2235   -0.6248    0.5340 N.pl3     1 <0>        -0.8036
     13 C9         -2.3610    4.3632    1.5202 C.3       1 <0>         0.1183
     14 O1         -1.9999    5.7333    1.7060 O.3       1 <0>        -0.5715
     15 H1         -2.6884    1.0527    2.0572 H         1 <0>         0.1071
     16 H2         -3.3529    2.2251    0.8943 H         1 <0>         0.1019
     17 H3         -2.5918    0.7259    0.3101 H         1 <0>         0.1070
     18 H4          0.1810    5.2379    1.3448 H         1 <0>         0.1999
     19 H5          3.4041   -1.4488   -0.1893 H         1 <0>         0.4456
     20 H6          4.2638   -0.0115   -0.0559 H         1 <0>         0.4332
     21 H7         -1.3853   -1.3134   -0.1296 H         1 <0>         0.4307
     22 H8         -1.8884   -0.4431    1.2165 H         1 <0>         0.4360
     23 H9         -3.0563    4.2808    0.6848 H         1 <0>         0.0776
     24 H10        -2.8354    3.9863    2.4263 H         1 <0>         0.0774
     25 H11        -2.7482    6.3145    1.8992 H         1 <0>         0.4022
     26 N5          2.3671    1.5214    0.4415 N.ar      1 <0>        -0.5883
     27 H12         3.2673    1.9549    0.4001 H         1 <0>         0.4611
@<TRIPOS>BOND
     1    1    2 1
     2    1   15 1
     3    1   16 1
     4    1   17 1
     5    2    7 ar
     6    2    3 ar
     7    3    4 ar
     8    3   13 1
     9    4    5 ar
    10    4   18 1
    11    5    6 ar
    12    6    7 ar
    13    6   26 ar
    14    7    8 ar
    15    8    9 ar
    16    8   12 1
    17    9   10 ar
    18   10   11 1
    19   10   26 ar
    20   11   19 1
    21   11   20 1
    22   12   21 1
    23   12   22 1
    24   13   14 1
    25   13   23 1
    26   13   24 1
    27   14   25 1
    28   26   27 1
@<TRIPOS>MOLECULE
ZINC00005824
   35    36     0     0     0
SMALL
USER_CHARGES
5-[(4-bromo-3,5-dimethoxy-phenyl)methyl]pyrimidine-2,4-diamine
@<TRIPOS>ATOM
      1 C1         -0.0347   -2.7070   -0.0139 C.3       1 <0>         0.0240
      2 O1          1.2300   -2.0417   -0.0220 O.3       1 <0>        -0.2986
      3 C2          1.2122   -0.6827   -0.0136 C.ar      1 <0>         0.1986
      4 C3          0.0021   -0.0041    0.0020 C.ar      1 <0>        -0.2351
      5 C4         -0.0167    1.3776    0.0096 C.ar      1 <0>         0.0170
      6 C5          1.1690    2.0873    0.0021 C.ar      1 <0>        -0.2410
      7 C6          2.3821    1.4138   -0.0130 C.ar      1 <0>         0.1982
      8 C7          2.4038    0.0271   -0.0212 C.ar      1 <0>        -0.1703
      9 Br1         4.0550   -0.8942   -0.0418 Br        1 <0>        -0.0233
     10 O2          3.5479    2.1125   -0.0200 O.3       1 <0>        -0.2978
     11 C8          3.4500    3.5381   -0.0109 C.3       1 <0>         0.0237
     12 C9         -1.3326    2.1119    0.0198 C.3       1 <0>        -0.0186
     13 C10        -1.7646    2.3490    1.4440 C.ar      1 <0>        -0.3098
     14 C11        -2.6286    1.4751    2.0748 C.ar      1 <0>         0.2259
     15 N1         -2.9890    1.7113    3.3277 N.ar      1 <0>        -0.6041
     16 C12        -2.5326    2.7707    3.9795 C.ar      1 <0>         0.6038
     17 N2         -1.7026    3.6320    3.4108 N.ar      1 <0>        -0.6262
     18 C13        -1.2959    3.4538    2.1579 C.ar      1 <0>         0.4898
     19 N3         -0.4238    4.3537    1.5673 N.pl3     1 <0>        -0.8360
     20 N4         -2.9328    2.9823    5.2873 N.pl3     1 <0>        -0.8203
     21 H1          0.1222   -3.7857   -0.0219 H         1 <0>         0.1060
     22 H2         -0.5869   -2.4269    0.8831 H         1 <0>         0.0602
     23 H3         -0.6039   -2.4161   -0.8968 H         1 <0>         0.0606
     24 H4         -0.9261   -0.5563    0.0079 H         1 <0>         0.1390
     25 H5          1.1515    3.1672    0.0077 H         1 <0>         0.1306
     26 H6          4.4503    3.9710   -0.0178 H         1 <0>         0.1066
     27 H7          2.9042    3.8704   -0.8939 H         1 <0>         0.0595
     28 H8          2.9208    3.8602    0.8859 H         1 <0>         0.0580
     29 H9         -1.2187    3.0689   -0.4894 H         1 <0>         0.0792
     30 H10        -2.0860    1.5146   -0.4937 H         1 <0>         0.0923
     31 H11        -3.0060    0.6085    1.5524 H         1 <0>         0.1636
     32 H12        -0.1343    4.2187    0.6514 H         1 <0>         0.4079
     33 H13        -0.1026    5.1187    2.0697 H         1 <0>         0.4070
     34 H14        -3.5401    2.3589    5.7155 H         1 <0>         0.4158
     35 H15        -2.6059    3.7541    5.7756 H         1 <0>         0.4135
@<TRIPOS>BOND
     1    1    2 1
     2    1   21 1
     3    1   22 1
     4    1   23 1
     5    2    3 1
     6    3    8 ar
     7    3    4 ar
     8    4    5 ar
     9    4   24 1
    10    5    6 ar
    11    5   12 1
    12    6    7 ar
    13    6   25 1
    14    7    8 ar
    15    7   10 1
    16    8    9 1
    17   10   11 1
    18   11   26 1
    19   11   27 1
    20   11   28 1
    21   12   13 1
    22   12   29 1
    23   12   30 1
    24   13   18 ar
    25   13   14 ar
    26   14   15 ar
    27   14   31 1
    28   15   16 ar
    29   16   17 ar
    30   16   20 1
    31   17   18 ar
    32   18   19 1
    33   19   32 1
    34   19   33 1
    35   20   34 1
    36   20   35 1
@<TRIPOS>MOLECULE
ZINC03157274
   37    38     0     0     0
SMALL
USER_CHARGES
5-[(4-propoxyphenyl)methyl]pyrimidine-2,4-diamine
@<TRIPOS>ATOM
      1 C1          3.7145   -4.8608   -0.0606 C.3       1 <0>        -0.1507
      2 C2          2.3407   -4.1875   -0.0438 C.3       1 <0>        -0.1242
      3 C3          2.5176   -2.6678   -0.0368 C.3       1 <0>         0.0586
      4 O1          1.2345   -2.0389   -0.0212 O.3       1 <0>        -0.3164
      5 C4          1.2134   -0.6801   -0.0132 C.ar      1 <0>         0.1272
      6 C5          0.0021   -0.0041    0.0020 C.ar      1 <0>        -0.1477
      7 C6         -0.0167    1.3772    0.0096 C.ar      1 <0>        -0.0724
      8 C7          1.1705    2.0859    0.0021 C.ar      1 <0>        -0.1158
      9 C8          2.3791    1.4145   -0.0132 C.ar      1 <0>        -0.0778
     10 C9          2.4032    0.0333   -0.0208 C.ar      1 <0>        -0.2049
     11 C10         1.1472    3.5927    0.0100 C.3       1 <0>        -0.0109
     12 C11         1.1527    4.0878    1.4333 C.ar      1 <0>        -0.3053
     13 C12        -0.0289    4.3991    2.0774 C.ar      1 <0>         0.2218
     14 N1          0.0097    4.8315    3.3292 N.ar      1 <0>        -0.6051
     15 C13         1.1628    4.9681    3.9673 C.ar      1 <0>         0.6008
     16 N2          2.3173    4.6800    3.3856 N.ar      1 <0>        -0.6276
     17 C14         2.3520    4.2367    2.1329 C.ar      1 <0>         0.4864
     18 N3          3.5607    3.9314    1.5287 N.pl3     1 <0>        -0.8363
     19 N4          1.1609    5.4228    5.2744 N.pl3     1 <0>        -0.8221
     20 H1          4.2752   -4.5644    0.8259 H         1 <0>         0.0576
     21 H2          3.5884   -5.9435   -0.0656 H         1 <0>         0.0659
     22 H3          4.2585   -4.5542   -0.9540 H         1 <0>         0.0579
     23 H4          1.7967   -4.4941    0.8496 H         1 <0>         0.0738
     24 H5          1.7799   -4.4839   -0.9303 H         1 <0>         0.0742
     25 H6          3.0616   -2.3612   -0.9302 H         1 <0>         0.0621
     26 H7          3.0783   -2.3714    0.8496 H         1 <0>         0.0612
     27 H8         -0.9255   -0.5572    0.0076 H         1 <0>         0.1310
     28 H9         -0.9594    1.9040    0.0169 H         1 <0>         0.1303
     29 H10         3.3051    1.9703   -0.0194 H         1 <0>         0.1172
     30 H11         3.3475   -0.4907   -0.0323 H         1 <0>         0.1263
     31 H12         2.0265    3.9725   -0.5102 H         1 <0>         0.0724
     32 H13         0.2469    3.9448   -0.4937 H         1 <0>         0.0859
     33 H14        -0.9741    4.2909    1.5663 H         1 <0>         0.1638
     34 H15         3.5781    3.6116    0.6131 H         1 <0>         0.4090
     35 H16         4.3896    4.0374    2.0212 H         1 <0>         0.4059
     36 H17         0.3222    5.6370    5.7122 H         1 <0>         0.4152
     37 H18         1.9982    5.5272    5.7528 H         1 <0>         0.4127
@<TRIPOS>BOND
     1    1    2 1
     2    1   20 1
     3    1   21 1
     4    1   22 1
     5    2    3 1
     6    2   23 1
     7    2   24 1
     8    3    4 1
     9    3   25 1
    10    3   26 1
    11    4    5 1
    12    5   10 ar
    13    5    6 ar
    14    6    7 ar
    15    6   27 1
    16    7    8 ar
    17    7   28 1
    18    8    9 ar
    19    8   11 1
    20    9   10 ar
    21    9   29 1
    22   10   30 1
    23   11   12 1
    24   11   31 1
    25   11   32 1
    26   12   17 ar
    27   12   13 ar
    28   13   14 ar
    29   13   33 1
    30   14   15 ar
    31   15   16 ar
    32   15   19 1
    33   16   17 ar
    34   17   18 1
    35   18   34 1
    36   18   35 1
    37   19   36 1
    38   19   37 1
@<TRIPOS>MOLECULE
ZINC03157274
   38    39     0     0     0
SMALL
USER_CHARGES
5-[(4-propoxyphenyl)methyl]pyrimidine-2,4-diamine
@<TRIPOS>ATOM
      1 C1          3.7145   -4.8608   -0.0606 C.3       1 <0>        -0.1520
      2 C2          2.3407   -4.1875   -0.0438 C.3       1 <0>        -0.1252
      3 C3          2.5176   -2.6678   -0.0368 C.3       1 <0>         0.0573
      4 O1          1.2345   -2.0389   -0.0212 O.3       1 <0>        -0.3114
      5 C4          1.2134   -0.6801   -0.0132 C.ar      1 <0>         0.1459
      6 C5          0.0021   -0.0041    0.0020 C.ar      1 <0>        -0.1465
      7 C6         -0.0167    1.3772    0.0096 C.ar      1 <0>        -0.0684
      8 C7          1.1705    2.0859    0.0021 C.ar      1 <0>        -0.1463
      9 C8          2.3791    1.4145   -0.0132 C.ar      1 <0>        -0.0750
     10 C9          2.4032    0.0333   -0.0208 C.ar      1 <0>        -0.2034
     11 C10         1.1472    3.5927    0.0100 C.3       1 <0>        -0.0224
     12 C11         1.1527    4.0878    1.4333 C.ar      1 <0>        -0.2168
     13 C12        -0.0289    4.3991    2.0774 C.ar      1 <0>         0.2027
     14 C13         1.1628    4.9681    3.9673 C.ar      1 <0>         0.6677
     15 N1          2.3173    4.6800    3.3856 N.ar      1 <0>        -0.5677
     16 C14         2.3520    4.2367    2.1329 C.ar      1 <0>         0.5386
     17 N2          3.5607    3.9314    1.5287 N.pl3     1 <0>        -0.7767
     18 N3          1.1609    5.4228    5.2744 N.pl3     1 <0>        -0.7925
     19 H1          4.2752   -4.5644    0.8259 H         1 <0>         0.0578
     20 H2          3.5884   -5.9435   -0.0656 H         1 <0>         0.0692
     21 H3          4.2585   -4.5542   -0.9540 H         1 <0>         0.0591
     22 H4          1.7967   -4.4941    0.8496 H         1 <0>         0.0752
     23 H5          1.7799   -4.4839   -0.9303 H         1 <0>         0.0766
     24 H6          3.0616   -2.3612   -0.9302 H         1 <0>         0.0659
     25 H7          3.0783   -2.3714    0.8496 H         1 <0>         0.0635
     26 H8         -0.9255   -0.5572    0.0076 H         1 <0>         0.1372
     27 H9         -0.9594    1.9040    0.0169 H         1 <0>         0.1320
     28 H10         3.3051    1.9703   -0.0194 H         1 <0>         0.1167
     29 H11         3.3475   -0.4907   -0.0323 H         1 <0>         0.1332
     30 H12         2.0265    3.9725   -0.5102 H         1 <0>         0.0947
     31 H13         0.2469    3.9448   -0.4937 H         1 <0>         0.1080
     32 H14        -0.9741    4.2909    1.5663 H         1 <0>         0.2050
     33 H15         3.5781    3.6116    0.6131 H         1 <0>         0.4291
     34 H16         4.3896    4.0374    2.0212 H         1 <0>         0.4285
     35 H17         0.3222    5.6370    5.7122 H         1 <0>         0.4305
     36 H18         1.9982    5.5272    5.7528 H         1 <0>         0.4424
     37 N4         -0.0539    4.8484    3.3642 N.ar      1 <0>        -0.5950
     38 H19        -0.9269    5.0649    3.8013 H         1 <0>         0.4622
@<TRIPOS>BOND
     1    1    2 1
     2    1   19 1
     3    1   20 1
     4    1   21 1
     5    2    3 1
     6    2   22 1
     7    2   23 1
     8    3    4 1
     9    3   24 1
    10    3   25 1
    11    4    5 1
    12    5   10 ar
    13    5    6 ar
    14    6    7 ar
    15    6   26 1
    16    7    8 ar
    17    7   27 1
    18    8    9 ar
    19    8   11 1
    20    9   10 ar
    21    9   28 1
    22   10   29 1
    23   11   12 1
    24   11   30 1
    25   11   31 1
    26   12   16 ar
    27   12   13 ar
    28   13   32 1
    29   13   37 ar
    30   14   15 ar
    31   14   18 1
    32   14   37 ar
    33   15   16 ar
    34   16   17 1
    35   17   33 1
    36   17   34 1
    37   18   35 1
    38   18   36 1
    39   37   38 1
@<TRIPOS>MOLECULE
ZINC01529323
   53    55     0     0     0
SMALL
USER_CHARGES

@<TRIPOS>ATOM
      1 C1         -0.0178    1.4608    0.0101 C.3       1 <0>         0.0943
      2 N1          0.0021   -0.0041    0.0020 N.pl3     1 <0>        -0.6229
      3 C2          0.0241   -0.7433    1.2666 C.3       1 <0>         0.1846
      4 C3         -1.3889   -1.0161    1.7137 C.ar      1 <0>         0.0299
      5 C4         -1.9892   -2.2351    1.3999 C.ar      1 <0>         0.1556
      6 N2         -3.2219   -2.4965    1.7797 N.ar      1 <0>        -0.4373
      7 C5         -3.9051   -1.5830    2.4739 C.ar      1 <0>         0.3718
      8 C6         -3.2902   -0.3458    2.7901 C.ar      1 <0>        -0.0918
      9 N3         -2.0425   -0.1038    2.4012 N.ar      1 <0>        -0.3728
     10 C7         -4.0706    0.6301    3.5527 C.ar      1 <0>         0.5432
     11 N4         -5.3055    0.2953    3.9004 N.ar      1 <0>        -0.6300
     12 C8         -5.8196   -0.8850    3.5693 C.ar      1 <0>         0.6362
     13 N5         -5.1609   -1.7987    2.8845 N.ar      1 <0>        -0.5990
     14 N6         -7.1130   -1.1692    3.9639 N.pl3     1 <0>        -0.8099
     15 N7         -3.5402    1.8539    3.8976 N.pl3     1 <0>        -0.7943
     16 C9          0.0000   -0.6928   -1.2059 C.ar      1 <0>         0.2179
     17 C10         0.0132   -2.0849   -1.2118 C.ar      1 <0>        -0.2113
     18 C11         0.0112   -2.7693   -2.4056 C.ar      1 <0>        -0.0159
     19 C12        -0.0041   -2.0653   -3.6133 C.ar      1 <0>        -0.1590
     20 C13        -0.0173   -0.6674   -3.6040 C.ar      1 <0>        -0.0366
     21 C14        -0.0210    0.0112   -2.4068 C.ar      1 <0>        -0.1985
     22 C15        -0.0058   -2.7960   -4.8948 C.2       1 <0>         0.5556
     23 O1          0.0061   -4.0119   -4.9015 O.2       1 <0>        -0.5600
     24 N8         -0.0205   -2.1158   -6.0583 N.am      1 <0>        -0.6793
     25 C16        -0.0222   -2.8414   -7.3310 C.3       1 <0>         0.0733
     26 H1         -0.6020   -3.7584   -7.2256 H         1 <0>         0.0773
     27 C17        -0.6480   -1.9644   -8.4172 C.3       1 <0>        -0.0801
     28 C18        -2.1222   -1.7198   -8.0888 C.3       1 <0>        -0.1777
     29 C19        -2.7386   -0.8559   -9.1588 C.2       1 <0>         0.4909
     30 O2         -2.0616   -0.4715  -10.0971 O.co2     1 <0>        -0.6975
     31 O3         -3.9143   -0.5414   -9.0862 O.co2     1 <0>        -0.7207
     32 C20         1.3940   -3.1839   -7.7158 C.2       1 <0>         0.4958
     33 O4          2.3190   -2.8526   -6.9939 O.co2     1 <0>        -0.6970
     34 O5          1.6147   -3.7923   -8.7491 O.co2     1 <0>        -0.7014
     35 H2          1.0048    1.8381    0.0023 H         1 <0>         0.0502
     36 H3         -0.5450    1.8219   -0.8730 H         1 <0>         0.0690
     37 H4         -0.5280    1.8123    0.9069 H         1 <0>         0.0657
     38 H5          0.5496   -1.6879    1.1262 H         1 <0>         0.1015
     39 H6          0.5371   -0.1514    2.0246 H         1 <0>         0.0948
     40 H7         -1.4361   -2.9733    0.8382 H         1 <0>         0.1815
     41 H8         -7.6209   -0.5150    4.4689 H         1 <0>         0.4148
     42 H9         -7.5132   -2.0229    3.7358 H         1 <0>         0.4190
     43 H10        -2.6346    2.0814    3.6347 H         1 <0>         0.4250
     44 H11        -4.0722    2.4880    4.4032 H         1 <0>         0.4139
     45 H12         0.0253   -2.6282   -0.2785 H         1 <0>         0.1208
     46 H13         0.0217   -3.8493   -2.4096 H         1 <0>         0.1351
     47 H14        -0.0287   -0.1208   -4.5353 H         1 <0>         0.1282
     48 H15        -0.0359    1.0910   -2.3989 H         1 <0>         0.1244
     49 H16        -0.0300   -1.1459   -6.0530 H         1 <0>         0.3877
     50 H17        -0.1225   -1.0104   -8.4615 H         1 <0>         0.0543
     51 H18        -0.5691   -2.4677   -9.3808 H         1 <0>         0.0783
     52 H19        -2.6477   -2.6737   -8.0445 H         1 <0>         0.0522
     53 H20        -2.2011   -1.2164   -7.1252 H         1 <0>         0.0501
@<TRIPOS>BOND
     1    1    2 1
     2    1   35 1
     3    1   36 1
     4    1   37 1
     5    2    3 1
     6    2   16 1
     7    3    4 1
     8    3   38 1
     9    3   39 1
    10    4    9 ar
    11    4    5 ar
    12    5    6 ar
    13    5   40 1
    14    6    7 ar
    15    7   13 ar
    16    7    8 ar
    17    8    9 ar
    18    8   10 ar
    19   10   11 ar
    20   10   15 1
    21   11   12 ar
    22   12   13 ar
    23   12   14 1
    24   14   41 1
    25   14   42 1
    26   15   43 1
    27   15   44 1
    28   16   21 ar
    29   16   17 ar
    30   17   18 ar
    31   17   45 1
    32   18   19 ar
    33   18   46 1
    34   19   20 ar
    35   19   22 1
    36   20   21 ar
    37   20   47 1
    38   21   48 1
    39   22   23 2
    40   22   24 am
    41   24   25 1
    42   24   49 1
    43   25   26 1
    44   25   27 1
    45   25   32 1
    46   27   28 1
    47   27   50 1
    48   27   51 1
    49   28   29 1
    50   28   52 1
    51   28   53 1
    52   29   30 2
    53   29   31 1
    54   32   33 2
    55   32   34 1
@<TRIPOS>MOLECULE
ZINC00289771
   34    35     0     0     0
SMALL
USER_CHARGES
5-[(4-ethoxyphenyl)methyl]pyrimidine-2,4-diamine
@<TRIPOS>ATOM
      1 C1          2.3407   -4.1875   -0.0438 C.3       1 <0>        -0.1534
      2 C2          2.5176   -2.6678   -0.0368 C.3       1 <0>         0.0546
      3 O1          1.2345   -2.0389   -0.0212 O.3       1 <0>        -0.3168
      4 C3          1.2134   -0.6801   -0.0132 C.ar      1 <0>         0.1267
      5 C4          0.0021   -0.0041    0.0020 C.ar      1 <0>        -0.1478
      6 C5         -0.0167    1.3772    0.0096 C.ar      1 <0>        -0.0724
      7 C6          1.1705    2.0859    0.0021 C.ar      1 <0>        -0.1159
      8 C7          2.3791    1.4145   -0.0132 C.ar      1 <0>        -0.0778
      9 C8          2.4032    0.0333   -0.0208 C.ar      1 <0>        -0.2049
     10 C9          1.1472    3.5927    0.0100 C.3       1 <0>        -0.0110
     11 C10         1.1527    4.0878    1.4333 C.ar      1 <0>        -0.3053
     12 C11        -0.0289    4.3991    2.0774 C.ar      1 <0>         0.2218
     13 N1          0.0097    4.8315    3.3292 N.ar      1 <0>        -0.6051
     14 C12         1.1628    4.9681    3.9673 C.ar      1 <0>         0.6008
     15 N2          2.3173    4.6800    3.3856 N.ar      1 <0>        -0.6277
     16 C13         2.3520    4.2367    2.1329 C.ar      1 <0>         0.4864
     17 N3          3.5607    3.9314    1.5287 N.pl3     1 <0>        -0.8362
     18 N4          1.1609    5.4228    5.2744 N.pl3     1 <0>        -0.8221
     19 H1          1.7799   -4.4839   -0.9303 H         1 <0>         0.0671
     20 H2          3.3194   -4.6672   -0.0558 H         1 <0>         0.0791
     21 H3          1.7967   -4.4941    0.8496 H         1 <0>         0.0667
     22 H4          3.0616   -2.3612   -0.9302 H         1 <0>         0.0620
     23 H5          3.0783   -2.3714    0.8496 H         1 <0>         0.0611
     24 H6         -0.9255   -0.5572    0.0076 H         1 <0>         0.1310
     25 H7         -0.9594    1.9040    0.0169 H         1 <0>         0.1303
     26 H8          3.3051    1.9703   -0.0194 H         1 <0>         0.1172
     27 H9          3.3475   -0.4907   -0.0323 H         1 <0>         0.1265
     28 H10         2.0265    3.9725   -0.5102 H         1 <0>         0.0724
     29 H11         0.2469    3.9448   -0.4937 H         1 <0>         0.0859
     30 H12        -0.9741    4.2909    1.5663 H         1 <0>         0.1638
     31 H13         3.5781    3.6116    0.6131 H         1 <0>         0.4090
     32 H14         4.3896    4.0374    2.0212 H         1 <0>         0.4059
     33 H15         0.3222    5.6370    5.7122 H         1 <0>         0.4152
     34 H16         1.9982    5.5272    5.7528 H         1 <0>         0.4127
@<TRIPOS>BOND
     1    1    2 1
     2    1   19 1
     3    1   20 1
     4    1   21 1
     5    2    3 1
     6    2   22 1
     7    2   23 1
     8    3    4 1
     9    4    9 ar
    10    4    5 ar
    11    5    6 ar
    12    5   24 1
    13    6    7 ar
    14    6   25 1
    15    7    8 ar
    16    7   10 1
    17    8    9 ar
    18    8   26 1
    19    9   27 1
    20   10   11 1
    21   10   28 1
    22   10   29 1
    23   11   16 ar
    24   11   12 ar
    25   12   13 ar
    26   12   30 1
    27   13   14 ar
    28   14   15 ar
    29   14   18 1
    30   15   16 ar
    31   16   17 1
    32   17   31 1
    33   17   32 1
    34   18   33 1
    35   18   34 1
@<TRIPOS>MOLECULE
ZINC00289771
   35    36     0     0     0
SMALL
USER_CHARGES
5-[(4-ethoxyphenyl)methyl]pyrimidine-2,4-diamine
@<TRIPOS>ATOM
      1 C1          2.3407   -4.1875   -0.0438 C.3       1 <0>        -0.1560
      2 C2          2.5176   -2.6678   -0.0368 C.3       1 <0>         0.0536
      3 O1          1.2345   -2.0389   -0.0212 O.3       1 <0>        -0.3118
      4 C3          1.2134   -0.6801   -0.0132 C.ar      1 <0>         0.1455
      5 C4          0.0021   -0.0041    0.0020 C.ar      1 <0>        -0.1466
      6 C5         -0.0167    1.3772    0.0096 C.ar      1 <0>        -0.0684
      7 C6          1.1705    2.0859    0.0021 C.ar      1 <0>        -0.1463
      8 C7          2.3791    1.4145   -0.0132 C.ar      1 <0>        -0.0751
      9 C8          2.4032    0.0333   -0.0208 C.ar      1 <0>        -0.2034
     10 C9          1.1472    3.5927    0.0100 C.3       1 <0>        -0.0224
     11 C10         1.1527    4.0878    1.4333 C.ar      1 <0>        -0.2168
     12 C11        -0.0289    4.3991    2.0774 C.ar      1 <0>         0.2027
     13 C12         1.1628    4.9681    3.9673 C.ar      1 <0>         0.6677
     14 N1          2.3173    4.6800    3.3856 N.ar      1 <0>        -0.5677
     15 C13         2.3520    4.2367    2.1329 C.ar      1 <0>         0.5386
     16 N2          3.5607    3.9314    1.5287 N.pl3     1 <0>        -0.7766
     17 N3          1.1609    5.4228    5.2744 N.pl3     1 <0>        -0.7925
     18 H1          1.7799   -4.4839   -0.9303 H         1 <0>         0.0698
     19 H2          3.3194   -4.6672   -0.0558 H         1 <0>         0.0833
     20 H3          1.7967   -4.4941    0.8496 H         1 <0>         0.0684
     21 H4          3.0616   -2.3612   -0.9302 H         1 <0>         0.0658
     22 H5          3.0783   -2.3714    0.8496 H         1 <0>         0.0634
     23 H6         -0.9255   -0.5572    0.0076 H         1 <0>         0.1371
     24 H7         -0.9594    1.9040    0.0169 H         1 <0>         0.1320
     25 H8          3.3051    1.9703   -0.0194 H         1 <0>         0.1168
     26 H9          3.3475   -0.4907   -0.0323 H         1 <0>         0.1334
     27 H10         2.0265    3.9725   -0.5102 H         1 <0>         0.0947
     28 H11         0.2469    3.9448   -0.4937 H         1 <0>         0.1080
     29 H12        -0.9741    4.2909    1.5663 H         1 <0>         0.2049
     30 H13         3.5781    3.6116    0.6131 H         1 <0>         0.4291
     31 H14         4.3896    4.0374    2.0212 H         1 <0>         0.4285
     32 H15         0.3222    5.6370    5.7122 H         1 <0>         0.4305
     33 H16         1.9982    5.5272    5.7528 H         1 <0>         0.4424
     34 N4         -0.0539    4.8484    3.3642 N.ar      1 <0>        -0.5949
     35 H17        -0.9269    5.0649    3.8013 H         1 <0>         0.4623
@<TRIPOS>BOND
     1    1    2 1
     2    1   18 1
     3    1   19 1
     4    1   20 1
     5    2    3 1
     6    2   21 1
     7    2   22 1
     8    3    4 1
     9    4    9 ar
    10    4    5 ar
    11    5    6 ar
    12    5   23 1
    13    6    7 ar
    14    6   24 1
    15    7    8 ar
    16    7   10 1
    17    8    9 ar
    18    8   25 1
    19    9   26 1
    20   10   11 1
    21   10   27 1
    22   10   28 1
    23   11   15 ar
    24   11   12 ar
    25   12   29 1
    26   12   34 ar
    27   13   14 ar
    28   13   17 1
    29   13   34 ar
    30   14   15 ar
    31   15   16 1
    32   16   30 1
    33   16   31 1
    34   17   32 1
    35   17   33 1
    36   34   35 1
@<TRIPOS>MOLECULE
ZINC00289771
   35    36     0     0     0
SMALL
USER_CHARGES
5-[(4-ethoxyphenyl)methyl]pyrimidine-2,4-diamine
@<TRIPOS>ATOM
      1 C1          2.3407   -4.1875   -0.0438 C.3       1 <0>        -0.1566
      2 C2          2.5176   -2.6678   -0.0368 C.3       1 <0>         0.0533
      3 O1          1.2345   -2.0389   -0.0212 O.3       1 <0>        -0.3099
      4 C3          1.2134   -0.6801   -0.0132 C.ar      1 <0>         0.1502
      5 C4          0.0021   -0.0041    0.0020 C.ar      1 <0>        -0.1445
      6 C5         -0.0167    1.3772    0.0096 C.ar      1 <0>        -0.0630
      7 C6          1.1705    2.0859    0.0021 C.ar      1 <0>        -0.1554
      8 C7          2.3791    1.4145   -0.0132 C.ar      1 <0>        -0.0780
      9 C8          2.4032    0.0333   -0.0208 C.ar      1 <0>        -0.2041
     10 C9          1.1472    3.5927    0.0100 C.3       1 <0>        -0.0199
     11 C10         1.1527    4.0878    1.4333 C.ar      1 <0>        -0.2685
     12 C11        -0.0289    4.3991    2.0774 C.ar      1 <0>         0.2548
     13 C12         1.1628    4.9681    3.9673 C.ar      1 <0>         0.5800
     14 N1          2.3173    4.6800    3.3856 N.ar      1 <0>        -0.5255
     15 C13         2.3520    4.2367    2.1329 C.ar      1 <0>         0.3614
     16 N2          3.5607    3.9314    1.5287 N.pl3     1 <0>        -0.7728
     17 N3          1.1609    5.4228    5.2744 N.pl3     1 <0>        -0.7391
     18 H1          1.7799   -4.4839   -0.9303 H         1 <0>         0.0704
     19 H2          3.3194   -4.6672   -0.0558 H         1 <0>         0.0838
     20 H3          1.7967   -4.4941    0.8496 H         1 <0>         0.0689
     21 H4          3.0616   -2.3612   -0.9302 H         1 <0>         0.0664
     22 H5          3.0783   -2.3714    0.8496 H         1 <0>         0.0637
     23 H6         -0.9255   -0.5572    0.0076 H         1 <0>         0.1402
     24 H7         -0.9594    1.9040    0.0169 H         1 <0>         0.1367
     25 H8          3.3051    1.9703   -0.0194 H         1 <0>         0.1160
     26 H9          3.3475   -0.4907   -0.0323 H         1 <0>         0.1353
     27 H10         2.0265    3.9725   -0.5102 H         1 <0>         0.1002
     28 H11         0.2469    3.9448   -0.4937 H         1 <0>         0.1229
     29 H12        -0.9741    4.2909    1.5663 H         1 <0>         0.2197
     30 H13         3.5781    3.6116    0.6131 H         1 <0>         0.4495
     31 H14         4.3896    4.0374    2.0212 H         1 <0>         0.4464
     32 H15         0.3222    5.6370    5.7122 H         1 <0>         0.4496
     33 H16         1.9982    5.5272    5.7528 H         1 <0>         0.4366
     34 N4         -0.0539    4.8484    3.3642 N.ar      1 <0>        -0.4880
     35 H17         2.3330    4.3500    2.4418 H         1 <0>         0.4192
@<TRIPOS>BOND
     1    1    2 1
     2    1   18 1
     3    1   19 1
     4    1   20 1
     5    2    3 1
     6    2   21 1
     7    2   22 1
     8    3    4 1
     9    4    9 ar
    10    4    5 ar
    11    5    6 ar
    12    5   23 1
    13    6    7 ar
    14    6   24 1
    15    7    8 ar
    16    7   10 1
    17    8    9 ar
    18    8   25 1
    19    9   26 1
    20   10   11 1
    21   10   27 1
    22   10   28 1
    23   11   15 ar
    24   11   12 ar
    25   12   29 1
    26   12   34 ar
    27   13   14 ar
    28   13   17 1
    29   13   34 ar
    30   14   15 ar
    31   14   35 1
    32   15   16 1
    33   16   30 1
    34   16   31 1
    35   17   32 1
    36   17   33 1
@<TRIPOS>MOLECULE
ZINC29250560
   55    57     0     0     0
SMALL
USER_CHARGES
(2S)-2-[[4-[(2-amino-4-hydroxy-quinazolin-6-yl)methyl-(cyanomethyl)amino]benzoyl]amino]pentanedioic acid
@<TRIPOS>ATOM
      1 C1          2.4720    1.4175   -0.0082 C.ar      1 <0>        -0.0380
      2 C2          3.6525    2.1245   -0.0215 C.ar      1 <0>        -0.1965
      3 C3          3.6319    3.5166   -0.0143 C.ar      1 <0>         0.2176
      4 C4          2.4178    4.1976    0.0015 C.ar      1 <0>        -0.2015
      5 C5          1.2339    3.4963    0.0091 C.ar      1 <0>        -0.0179
      6 C6          1.2512    2.0985    0.0014 C.ar      1 <0>        -0.1539
      7 C7         -0.0162    1.3436    0.0094 C.2       1 <0>         0.5563
      8 O1         -1.0774    1.9372    0.0177 O.2       1 <0>        -0.5612
      9 N1          0.0021   -0.0041    0.0020 N.am      1 <0>        -0.6943
     10 C8         -1.2565   -0.7538    0.0100 C.3       1 <0>         0.1044
     11 H1         -1.9906   -0.1755   -0.5703 H         1 <0>         0.0837
     12 C9         -1.0316   -2.1346   -0.6092 C.3       1 <0>        -0.0844
     13 C10        -0.6634   -1.9775   -2.0859 C.3       1 <0>        -0.1518
     14 C11        -0.4418   -3.3377   -2.6958 C.2       1 <0>         0.4612
     15 O2         -0.5657   -4.3308   -2.0189 O.co2     1 <0>        -0.6391
     16 O3         -0.1069   -3.4459   -3.9912 O.co2     1 <0>        -0.7915
     17 C12        -1.7380   -0.9120    1.4292 C.2       1 <0>         0.4643
     18 O4         -1.0956   -0.4464    2.3405 O.co2     1 <0>        -0.6397
     19 O5         -2.8803   -1.5703    1.6810 O.co2     1 <0>        -0.7713
     20 N2          4.8265    4.2281   -0.0224 N.pl3     1 <0>        -0.6148
     21 C13         4.8066    5.6929   -0.0143 C.3       1 <0>         0.2133
     22 C14         4.8138    6.1761    1.3761 C.1       1 <0>         0.1857
     23 N3          4.8194    6.5490    2.4491 N.1       1 <0>        -0.4231
     24 C15         6.1050    3.5130   -0.0390 C.3       1 <0>         0.1617
     25 C16         6.5292    3.2754   -1.4654 C.ar      1 <0>        -0.1476
     26 C17         6.1360    2.1075   -2.1130 C.ar      1 <0>        -0.0308
     27 C18         6.4983    1.8641   -3.4044 C.ar      1 <0>        -0.1309
     28 C19         7.2881    2.7980   -4.0894 C.ar      1 <0>         0.2221
     29 C20         7.6918    3.9833   -3.4269 C.ar      1 <0>        -0.2280
     30 C21         7.2977    4.2048   -2.1021 C.ar      1 <0>        -0.0052
     31 C22         8.4883    4.9118   -4.1380 C.2       1 <0>         0.5212
     32 N4          8.8182    4.6291   -5.3874 N.am      1 <0>        -0.6224
     33 C23         8.4181    3.5037   -5.9736 C.2       1 <0>         0.6265
     34 N5          7.6751    2.6040   -5.3582 N.2       1 <0>        -0.5755
     35 N6          8.7967    3.2675   -7.2828 N.pl3     1 <0>        -0.8549
     36 O6          8.9018    6.0601   -3.5548 O.2       1 <0>        -0.5971
     37 H2          2.4886    0.3376   -0.0096 H         1 <0>         0.1307
     38 H3          4.5960    1.5990   -0.0334 H         1 <0>         0.1271
     39 H4          2.4051    5.2775    0.0074 H         1 <0>         0.1218
     40 H5          0.2923    4.0252    0.0206 H         1 <0>         0.1337
     41 H6          0.9621   -0.5411   -0.0100 H         1 <0>         0.4044
     42 H7         -0.2137   -2.6451   -0.0797 H         1 <0>         0.0579
     43 H8         -1.9525   -2.7299   -0.5222 H         1 <0>         0.0835
     44 H9         -1.4814   -1.4670   -2.6154 H         1 <0>         0.0595
     45 H10         0.2575   -1.3822   -2.1729 H         1 <0>         0.0585
     46 H11         5.6945    6.0746   -0.5397 H         1 <0>         0.1207
     47 H12         3.8984    6.0501   -0.5219 H         1 <0>         0.1247
     48 H13         6.8686    4.1151    0.4752 H         1 <0>         0.0867
     49 H14         5.9918    2.5474    0.4756 H         1 <0>         0.0963
     50 H15         5.5311    1.3848   -1.5854 H         1 <0>         0.1397
     51 H16         6.1824    0.9555   -3.8954 H         1 <0>         0.1433
     52 H17         7.6003    5.1050   -1.5878 H         1 <0>         0.1354
     53 H18         8.4785    2.3444   -7.7893 H         1 <0>         0.4560
     54 H19         9.4160    4.0028   -7.8174 H         1 <0>         0.4319
     55 H20         9.4366    5.3316   -5.9654 H         1 <0>         0.4414
@<TRIPOS>BOND
     1    1    6 ar
     2    1    2 ar
     3    1   37 1
     4    2    3 ar
     5    2   38 1
     6    3    4 ar
     7    3   20 1
     8    4    5 ar
     9    4   39 1
    10    5    6 ar
    11    5   40 1
    12    6    7 1
    13    7    8 2
    14    7    9 am
    15    9   10 1
    16    9   41 1
    17   10   11 1
    18   10   12 1
    19   10   17 1
    20   12   13 1
    21   12   42 1
    22   12   43 1
    23   13   14 1
    24   13   44 1
    25   13   45 1
    26   14   15 2
    27   14   16 1
    28   17   18 2
    29   17   19 1
    30   20   21 1
    31   20   24 1
    32   21   22 1
    33   21   46 1
    34   21   47 1
    35   22   23 3
    36   24   25 1
    37   24   48 1
    38   24   49 1
    39   25   30 ar
    40   25   26 ar
    41   26   27 ar
    42   26   50 1
    43   27   28 ar
    44   27   51 1
    45   28   34 1
    46   28   29 ar
    47   29   30 ar
    48   29   31 1
    49   30   52 1
    50   31   32 am
    51   31   36 2
    52   32   33 1
    53   32   55 1
    54   33   34 2
    55   33   35 1
    56   35   53 1
    57   35   54 1
@<TRIPOS>MOLECULE
ZINC13130015
   25    27     0     0     0
SMALL
USER_CHARGES

@<TRIPOS>ATOM
      1 C1         -0.0142    1.3947   -0.1693 C.ar      1 <0>         0.0106
      2 C2          1.1311    2.1233   -0.1155 C.ar      1 <0>        -0.1599
      3 C3          2.3867    1.4964   -0.0709 C.ar      1 <0>         0.2170
      4 C4          2.4618    0.0844   -0.0819 C.ar      1 <0>        -0.1612
      5 C5          1.2282   -0.6872   -0.1397 C.ar      1 <0>        -0.0359
      6 C6          0.0049   -0.0027   -0.1825 C.ar      1 <0>         0.0490
      7 N1         -0.9872   -0.9584   -0.2323 N.pl3     1 <0>        -0.5580
      8 H1         -1.9400   -0.7804   -0.2697 H         1 <0>         0.4334
      9 C7         -0.4108   -2.1970   -0.2213 C.2       1 <0>         0.1070
     10 C8          0.9270   -2.0690   -0.1657 C.2       1 <0>        -0.2228
     11 C9          3.7323   -0.5242   -0.0368 C.ar      1 <0>         0.5583
     12 N2          4.8038    0.2569    0.0140 N.ar      1 <0>        -0.5892
     13 C10         4.6928    1.5815    0.0227 C.ar      1 <0>         0.6800
     14 N3          3.5278    2.1998   -0.0180 N.ar      1 <0>        -0.5767
     15 N4          5.8469    2.3436    0.0772 N.pl3     1 <0>        -0.7941
     16 N5          3.8588   -1.8991   -0.0450 N.pl3     1 <0>        -0.7846
     17 H2         -0.9638    1.9084   -0.1981 H         1 <0>         0.1517
     18 H3          1.0750    3.2018   -0.1074 H         1 <0>         0.1596
     19 H4         -0.9466   -3.1342   -0.2521 H         1 <0>         0.1928
     20 H5          1.6433   -2.8770   -0.1453 H         1 <0>         0.1538
     21 H6          6.7138    1.9095    0.1080 H         1 <0>         0.4436
     22 H7          5.7888    3.3119    0.0845 H         1 <0>         0.4292
     23 H8          3.1416   -2.4501   -0.3955 H         1 <0>         0.4289
     24 H9          4.6649   -2.3140    0.2999 H         1 <0>         0.4275
     25 H10         3.4962    3.1692   -0.0099 H         1 <0>         0.4399
@<TRIPOS>BOND
     1    1    6 ar
     2    1    2 ar
     3    1   17 1
     4    2    3 ar
     5    2   18 1
     6    3   14 ar
     7    3    4 ar
     8    4    5 ar
     9    4   11 ar
    10    5   10 1
    11    5    6 ar
    12    6    7 1
    13    7    8 1
    14    7    9 1
    15    9   10 2
    16    9   19 1
    17   10   20 1
    18   11   12 ar
    19   11   16 1
    20   12   13 ar
    21   13   14 ar
    22   13   15 1
    23   14   25 1
    24   15   21 1
    25   15   22 1
    26   16   23 1
    27   16   24 1
@<TRIPOS>MOLECULE
ZINC13130015
   24    26     0     0     0
SMALL
USER_CHARGES

@<TRIPOS>ATOM
      1 C1         -0.0142    1.3947   -0.1693 C.ar      1 <0>        -0.0477
      2 C2          1.1311    2.1233   -0.1155 C.ar      1 <0>        -0.1143
      3 C3          2.3867    1.4964   -0.0709 C.ar      1 <0>         0.2364
      4 C4          2.4618    0.0844   -0.0819 C.ar      1 <0>        -0.2057
      5 C5          1.2282   -0.6872   -0.1397 C.ar      1 <0>        -0.0484
      6 C6          0.0049   -0.0027   -0.1825 C.ar      1 <0>         0.0325
      7 N1         -0.9872   -0.9584   -0.2323 N.pl3     1 <0>        -0.5658
      8 H1         -1.9400   -0.7804   -0.2697 H         1 <0>         0.4199
      9 C7         -0.4108   -2.1970   -0.2213 C.2       1 <0>         0.0564
     10 C8          0.9270   -2.0690   -0.1657 C.2       1 <0>        -0.2160
     11 C9          3.7323   -0.5242   -0.0368 C.ar      1 <0>         0.5041
     12 N2          4.8038    0.2569    0.0140 N.ar      1 <0>        -0.6281
     13 C10         4.6928    1.5815    0.0227 C.ar      1 <0>         0.6023
     14 N3          3.5278    2.1998   -0.0180 N.ar      1 <0>        -0.6008
     15 N4          5.8469    2.3436    0.0772 N.pl3     1 <0>        -0.8233
     16 N5          3.8588   -1.8991   -0.0450 N.pl3     1 <0>        -0.8335
     17 H2         -0.9638    1.9084   -0.1981 H         1 <0>         0.1279
     18 H3          1.0750    3.2018   -0.1074 H         1 <0>         0.1415
     19 H4         -0.9466   -3.1342   -0.2521 H         1 <0>         0.1752
     20 H5          1.6433   -2.8770   -0.1453 H         1 <0>         0.1416
     21 H6          6.7138    1.9095    0.1080 H         1 <0>         0.4119
     22 H7          5.7888    3.3119    0.0845 H         1 <0>         0.4143
     23 H8          3.1416   -2.4501   -0.3955 H         1 <0>         0.4125
     24 H9          4.6649   -2.3140    0.2999 H         1 <0>         0.4070
@<TRIPOS>BOND
     1    1    6 ar
     2    1    2 ar
     3    1   17 1
     4    2    3 ar
     5    2   18 1
     6    3   14 ar
     7    3    4 ar
     8    4    5 ar
     9    4   11 ar
    10    5   10 1
    11    5    6 ar
    12    6    7 1
    13    7    8 1
    14    7    9 1
    15    9   10 2
    16    9   19 1
    17   10   20 1
    18   11   12 ar
    19   11   16 1
    20   12   13 ar
    21   13   14 ar
    22   13   15 1
    23   15   21 1
    24   15   22 1
    25   16   23 1
    26   16   24 1
@<TRIPOS>MOLECULE
ZINC00057464
   31    32     0     0     0
SMALL
USER_CHARGES

@<TRIPOS>ATOM
      1 C1          0.8938   -1.6695   -0.2826 C.3       1 <0>        -0.1541
      2 C2          0.1058   -0.3830   -0.0280 C.3       1 <0>        -0.1059
      3 C3         -1.3705   -0.6715   -0.1204 C.ar      1 <0>         0.2540
      4 C4         -2.0171   -0.6541   -1.3543 C.ar      1 <0>        -0.1905
      5 C5         -3.3964   -0.9306   -1.3874 C.ar      1 <0>         0.5400
      6 N1         -4.0249   -1.1960   -0.2480 N.ar      1 <0>        -0.5746
      7 C6         -3.3681   -1.2013    0.9023 C.ar      1 <0>         0.6664
      8 N2         -2.0684   -0.9502    0.9687 N.ar      1 <0>        -0.5689
      9 N3         -4.0580   -1.4823    2.0680 N.pl3     1 <0>        -0.7902
     10 N4         -4.0862   -0.9256   -2.5867 N.pl3     1 <0>        -0.7725
     11 C7         -1.2715   -0.3515   -2.5998 C.ar      1 <0>        -0.0664
     12 C8         -0.7740    0.9313   -2.8230 C.ar      1 <0>        -0.0833
     13 C9         -0.0805    1.2075   -3.9835 C.ar      1 <0>        -0.1019
     14 C10         0.1212    0.2132   -4.9255 C.ar      1 <0>        -0.0159
     15 C11        -0.3708   -1.0625   -4.7087 C.ar      1 <0>        -0.1017
     16 C12        -1.0607   -1.3505   -3.5489 C.ar      1 <0>        -0.0895
     17 Cl1         0.9936    0.5676   -6.3840 Cl        1 <0>        -0.0435
     18 H1          1.9579   -1.4768   -0.1461 H         1 <0>         0.0889
     19 H2          0.5708   -2.4384    0.4193 H         1 <0>         0.0627
     20 H3          0.7140   -2.0099   -1.3023 H         1 <0>         0.0723
     21 H4          0.3403   -0.0041    0.9668 H         1 <0>         0.1048
     22 H5          0.3775    0.3633   -0.7745 H         1 <0>         0.1224
     23 H6         -5.0088   -1.6717    2.0352 H         1 <0>         0.4457
     24 H7         -3.5910   -1.4900    2.9181 H         1 <0>         0.4308
     25 H8         -3.6191   -0.7304   -3.4141 H         1 <0>         0.4323
     26 H9         -5.0370   -1.1173   -2.6001 H         1 <0>         0.4292
     27 H10        -0.9315    1.7078   -2.0891 H         1 <0>         0.1381
     28 H11         0.3054    2.2011   -4.1575 H         1 <0>         0.1461
     29 H12        -0.2111   -1.8346   -5.4468 H         1 <0>         0.1460
     30 H13        -1.4406   -2.3471   -3.3788 H         1 <0>         0.1372
     31 H14        -1.6224   -0.9677    1.8299 H         1 <0>         0.4421
@<TRIPOS>BOND
     1    1    2 1
     2    1   18 1
     3    1   19 1
     4    1   20 1
     5    2    3 1
     6    2   21 1
     7    2   22 1
     8    3    8 ar
     9    3    4 ar
    10    4    5 ar
    11    4   11 1
    12    5    6 ar
    13    5   10 1
    14    6    7 ar
    15    7    8 ar
    16    7    9 1
    17    8   31 1
    18    9   23 1
    19    9   24 1
    20   10   25 1
    21   10   26 1
    22   11   16 ar
    23   11   12 ar
    24   12   13 ar
    25   12   27 1
    26   13   14 ar
    27   13   28 1
    28   14   15 ar
    29   14   17 1
    30   15   16 ar
    31   15   29 1
    32   16   30 1
@<TRIPOS>MOLECULE
ZINC00057464
   30    31     0     0     0
SMALL
USER_CHARGES

@<TRIPOS>ATOM
      1 C1         -0.0187    1.5258    0.0104 C.3       1 <0>        -0.1415
      2 C2          0.0021   -0.0041    0.0020 C.3       1 <0>        -0.0814
      3 C3          0.7309   -0.5033    1.2229 C.ar      1 <0>         0.2684
      4 C4          2.1076   -0.7142    1.1859 C.ar      1 <0>        -0.2868
      5 C5          2.7415   -1.1805    2.3524 C.ar      1 <0>         0.4973
      6 N1          2.0075   -1.4004    3.4372 N.ar      1 <0>        -0.6305
      7 C6          0.7005   -1.1855    3.4254 C.ar      1 <0>         0.6107
      8 N2          0.0727   -0.7418    2.3457 N.ar      1 <0>        -0.6025
      9 N3         -0.0299   -1.4263    4.5753 N.pl3     1 <0>        -0.8186
     10 N4          4.1063   -1.4066    2.3689 N.pl3     1 <0>        -0.8307
     11 C7          2.8842   -0.4545   -0.0502 C.ar      1 <0>        -0.0061
     12 C8          2.6528   -1.2161   -1.1945 C.ar      1 <0>        -0.0980
     13 C9          3.3779   -0.9701   -2.3425 C.ar      1 <0>        -0.1043
     14 C10         4.3342    0.0308   -2.3589 C.ar      1 <0>        -0.0374
     15 C11         4.5679    0.7901   -1.2251 C.ar      1 <0>        -0.1042
     16 C12         3.8442    0.5559   -0.0737 C.ar      1 <0>        -0.1060
     17 Cl1         5.2438    0.3344   -3.8059 Cl        1 <0>        -0.0689
     18 H1          1.0039    1.9031    0.0027 H         1 <0>         0.0561
     19 H2         -0.5459    1.8868   -0.8726 H         1 <0>         0.0657
     20 H3         -0.5289    1.8773    0.9072 H         1 <0>         0.0593
     21 H4         -1.0205   -0.3814    0.0098 H         1 <0>         0.0875
     22 H5          0.5123   -0.3556   -0.8948 H         1 <0>         0.0875
     23 H6          0.4159   -1.7477    5.3746 H         1 <0>         0.4141
     24 H7         -0.9878   -1.2737    4.5823 H         1 <0>         0.4160
     25 H8          4.6346   -1.2437    1.5719 H         1 <0>         0.4128
     26 H9          4.5349   -1.7282    3.1775 H         1 <0>         0.4080
     27 H10         1.9075   -1.9977   -1.1826 H         1 <0>         0.1325
     28 H11         3.1993   -1.5597   -3.2296 H         1 <0>         0.1355
     29 H12         5.3153    1.5695   -1.2429 H         1 <0>         0.1350
     30 H13         4.0244    1.1515    0.8090 H         1 <0>         0.1304
@<TRIPOS>BOND
     1    1    2 1
     2    1   18 1
     3    1   19 1
     4    1   20 1
     5    2    3 1
     6    2   21 1
     7    2   22 1
     8    3    8 ar
     9    3    4 ar
    10    4    5 ar
    11    4   11 1
    12    5    6 ar
    13    5   10 1
    14    6    7 ar
    15    7    8 ar
    16    7    9 1
    17    9   23 1
    18    9   24 1
    19   10   25 1
    20   10   26 1
    21   11   16 ar
    22   11   12 ar
    23   12   13 ar
    24   12   27 1
    25   13   14 ar
    26   13   28 1
    27   14   15 ar
    28   14   17 1
    29   15   16 ar
    30   15   29 1
    31   16   30 1
@<TRIPOS>MOLECULE
ZINC02036915
   50    52     0     0     0
SMALL
USER_CHARGES

@<TRIPOS>ATOM
      1 C1         -0.0169    1.3937    0.0097 C.ar      1 <0>        -0.0179
      2 C2          1.1662    2.0965    0.0022 C.ar      1 <0>        -0.2028
      3 C3          2.3811    1.4169   -0.0131 C.ar      1 <0>         0.2226
      4 C4          2.4034    0.0249   -0.0208 C.ar      1 <0>        -0.2020
      5 C5          1.2237   -0.6836   -0.0138 C.ar      1 <0>        -0.0370
      6 C6          0.0021   -0.0041    0.0020 C.ar      1 <0>        -0.1610
      7 C7         -1.2644   -0.7605    0.0105 C.2       1 <0>         0.5557
      8 O1         -2.3263   -0.1682    0.0243 O.2       1 <0>        -0.5615
      9 N1         -1.2445   -2.1081    0.0031 N.am      1 <0>        -0.6792
     10 C8         -2.5022   -2.8593    0.0116 C.3       1 <0>         0.0733
     11 H1         -3.2516   -2.3197   -0.5676 H         1 <0>         0.0770
     12 C9         -2.2758   -4.2399   -0.6078 C.3       1 <0>        -0.0802
     13 C10        -1.9084   -4.0824   -2.0846 C.3       1 <0>        -0.1775
     14 C11        -1.6854   -5.4422   -2.6946 C.2       1 <0>         0.4908
     15 O2         -1.8089   -6.4445   -2.0115 O.co2     1 <0>        -0.6973
     16 O3         -1.3815   -5.5401   -3.8713 O.co2     1 <0>        -0.7210
     17 C12        -2.9829   -3.0182    1.4310 C.2       1 <0>         0.4954
     18 O4         -2.3350   -2.5475    2.3503 O.co2     1 <0>        -0.6969
     19 O5         -4.0198   -3.6173    1.6600 O.co2     1 <0>        -0.7016
     20 N2          3.5749    2.1299   -0.0211 N.pl3     1 <0>        -0.7422
     21 C13         4.8542    1.4162   -0.0371 C.3       1 <0>         0.1860
     22 C14         5.9850    2.4124   -0.0431 C.ar      1 <0>         0.0323
     23 C15         6.5885    2.7791    1.1594 C.ar      1 <0>         0.1582
     24 N3          7.5780    3.6467    1.1795 N.ar      1 <0>        -0.4425
     25 C16         8.0084    4.1816    0.0342 C.ar      1 <0>         0.3749
     26 C17         7.3916    3.8053   -1.1850 C.ar      1 <0>        -0.0916
     27 N4          6.3970    2.9236   -1.1837 N.ar      1 <0>        -0.3629
     28 C18         7.8914    4.4127   -2.4198 C.ar      1 <0>         0.5463
     29 N5          8.8911    5.2778   -2.3202 N.ar      1 <0>        -0.6312
     30 C19         9.4230    5.5849   -1.1413 C.ar      1 <0>         0.6396
     31 N6          9.0113    5.0678   -0.0009 N.ar      1 <0>        -0.6033
     32 N7         10.4628    6.4946   -1.1097 N.pl3     1 <0>        -0.8091
     33 N8          7.3422    4.0958   -3.6429 N.pl3     1 <0>        -0.7890
     34 H2         -0.9590    1.9215    0.0260 H         1 <0>         0.1328
     35 H3          1.1522    3.1764    0.0078 H         1 <0>         0.1188
     36 H4          3.3474   -0.4995   -0.0326 H         1 <0>         0.1232
     37 H5          1.2416   -1.7634   -0.0204 H         1 <0>         0.1282
     38 H6         -0.3974   -2.5806   -0.0078 H         1 <0>         0.3880
     39 H7         -1.4645   -4.7448   -0.0833 H         1 <0>         0.0545
     40 H8         -3.1876   -4.8309   -0.5212 H         1 <0>         0.0781
     41 H9         -2.7197   -3.5775   -2.6090 H         1 <0>         0.0519
     42 H10        -0.9966   -3.4914   -2.1711 H         1 <0>         0.0505
     43 H11         3.5606    3.0997   -0.0161 H         1 <0>         0.3970
     44 H12         4.9299    0.7860    0.8490 H         1 <0>         0.0856
     45 H13         4.9126    0.7950   -0.9309 H         1 <0>         0.0832
     46 H14         6.2395    2.3463    2.0853 H         1 <0>         0.1850
     47 H15        10.7858    6.8907   -1.9341 H         1 <0>         0.4158
     48 H16        10.8696    6.7369   -0.2632 H         1 <0>         0.4186
     49 H17         6.6114    3.4603   -3.6964 H         1 <0>         0.4286
     50 H18         7.6864    4.5083   -4.4505 H         1 <0>         0.4158
@<TRIPOS>BOND
     1    1    6 ar
     2    1    2 ar
     3    1   34 1
     4    2    3 ar
     5    2   35 1
     6    3    4 ar
     7    3   20 1
     8    4    5 ar
     9    4   36 1
    10    5    6 ar
    11    5   37 1
    12    6    7 1
    13    7    8 2
    14    7    9 am
    15    9   10 1
    16    9   38 1
    17   10   11 1
    18   10   12 1
    19   10   17 1
    20   12   13 1
    21   12   39 1
    22   12   40 1
    23   13   14 1
    24   13   41 1
    25   13   42 1
    26   14   15 2
    27   14   16 1
    28   17   18 2
    29   17   19 1
    30   20   21 1
    31   20   43 1
    32   21   22 1
    33   21   44 1
    34   21   45 1
    35   22   27 ar
    36   22   23 ar
    37   23   24 ar
    38   23   46 1
    39   24   25 ar
    40   25   31 ar
    41   25   26 ar
    42   26   27 ar
    43   26   28 ar
    44   28   29 ar
    45   28   33 1
    46   29   30 ar
    47   30   31 ar
    48   30   32 1
    49   32   47 1
    50   32   48 1
    51   33   49 1
    52   33   50 1
@<TRIPOS>MOLECULE
ZINC06920406
   53    55     0     0     0
SMALL
USER_CHARGES

@<TRIPOS>ATOM
      1 C1         -0.0178    1.4608    0.0101 C.3       1 <0>         0.0941
      2 N1          0.0021   -0.0041    0.0020 N.pl3     1 <0>        -0.6227
      3 C2          0.0241   -0.7433    1.2666 C.3       1 <0>         0.1846
      4 C3         -1.3889   -1.0161    1.7137 C.ar      1 <0>         0.0297
      5 C4         -1.9892   -2.2351    1.3999 C.ar      1 <0>         0.1557
      6 N2         -3.2219   -2.4965    1.7797 N.ar      1 <0>        -0.4368
      7 C5         -3.9051   -1.5830    2.4739 C.ar      1 <0>         0.3719
      8 C6         -3.2902   -0.3458    2.7901 C.ar      1 <0>        -0.0918
      9 N3         -2.0425   -0.1038    2.4012 N.ar      1 <0>        -0.3728
     10 C7         -4.0706    0.6301    3.5527 C.ar      1 <0>         0.5431
     11 N4         -5.3055    0.2953    3.9004 N.ar      1 <0>        -0.6300
     12 C8         -5.8196   -0.8850    3.5693 C.ar      1 <0>         0.6360
     13 N5         -5.1609   -1.7987    2.8845 N.ar      1 <0>        -0.5986
     14 N6         -7.1130   -1.1692    3.9639 N.pl3     1 <0>        -0.8100
     15 N7         -3.5402    1.8539    3.8976 N.pl3     1 <0>        -0.7944
     16 C9          0.0000   -0.6928   -1.2059 C.ar      1 <0>         0.2189
     17 C10         0.0132   -2.0849   -1.2118 C.ar      1 <0>        -0.2116
     18 C11         0.0112   -2.7693   -2.4056 C.ar      1 <0>        -0.0155
     19 C12        -0.0041   -2.0653   -3.6133 C.ar      1 <0>        -0.1616
     20 C13        -0.0173   -0.6674   -3.6040 C.ar      1 <0>        -0.0356
     21 C14        -0.0210    0.0112   -2.4068 C.ar      1 <0>        -0.1983
     22 C15        -0.0058   -2.7960   -4.8948 C.2       1 <0>         0.5487
     23 O1          0.0061   -4.0119   -4.9015 O.2       1 <0>        -0.5585
     24 N8         -0.0205   -2.1158   -6.0583 N.am      1 <0>        -0.6789
     25 C16        -0.0222   -2.8414   -7.3310 C.3       1 <0>         0.0745
     26 H1          0.5768   -3.7469   -7.2338 H         1 <0>         0.0773
     27 C17         0.5711   -1.9524   -8.4257 C.3       1 <0>        -0.0822
     28 C18         2.0446   -1.6789   -8.1177 C.3       1 <0>        -0.1766
     29 C19         2.6291   -0.8032   -9.1959 C.2       1 <0>         0.4909
     30 O2          1.9317   -0.4323  -10.1247 O.co2     1 <0>        -0.6980
     31 O3          3.7993   -0.4657   -9.1396 O.co2     1 <0>        -0.7201
     32 C20        -1.4367   -3.2117   -7.6962 C.2       1 <0>         0.4981
     33 O4         -2.3634   -2.5041   -7.3399 O.co2     1 <0>        -0.6991
     34 O5         -1.6542   -4.2188   -8.3480 O.co2     1 <0>        -0.7022
     35 H2          1.0048    1.8381    0.0023 H         1 <0>         0.0507
     36 H3         -0.5450    1.8219   -0.8730 H         1 <0>         0.0690
     37 H4         -0.5280    1.8123    0.9069 H         1 <0>         0.0658
     38 H5          0.5496   -1.6879    1.1262 H         1 <0>         0.1014
     39 H6          0.5371   -0.1514    2.0246 H         1 <0>         0.0950
     40 H7         -1.4361   -2.9733    0.8382 H         1 <0>         0.1814
     41 H8         -7.6209   -0.5150    4.4689 H         1 <0>         0.4147
     42 H9         -7.5132   -2.0229    3.7358 H         1 <0>         0.4190
     43 H10        -2.6346    2.0814    3.6347 H         1 <0>         0.4250
     44 H11        -4.0722    2.4880    4.4032 H         1 <0>         0.4139
     45 H12         0.0253   -2.6282   -0.2785 H         1 <0>         0.1211
     46 H13         0.0217   -3.8493   -2.4096 H         1 <0>         0.1354
     47 H14        -0.0287   -0.1208   -4.5353 H         1 <0>         0.1292
     48 H15        -0.0359    1.0910   -2.3989 H         1 <0>         0.1249
     49 H16        -0.0300   -1.1459   -6.0530 H         1 <0>         0.3899
     50 H17         0.4888   -2.4573   -9.3882 H         1 <0>         0.0717
     51 H18         0.0264   -1.0090   -8.4626 H         1 <0>         0.0594
     52 H19         2.1270   -1.1740   -7.1552 H         1 <0>         0.0514
     53 H20         2.5893   -2.6223   -8.0808 H         1 <0>         0.0527
@<TRIPOS>BOND
     1    1    2 1
     2    1   35 1
     3    1   36 1
     4    1   37 1
     5    2    3 1
     6    2   16 1
     7    3    4 1
     8    3   38 1
     9    3   39 1
    10    4    9 ar
    11    4    5 ar
    12    5    6 ar
    13    5   40 1
    14    6    7 ar
    15    7   13 ar
    16    7    8 ar
    17    8    9 ar
    18    8   10 ar
    19   10   11 ar
    20   10   15 1
    21   11   12 ar
    22   12   13 ar
    23   12   14 1
    24   14   41 1
    25   14   42 1
    26   15   43 1
    27   15   44 1
    28   16   21 ar
    29   16   17 ar
    30   17   18 ar
    31   17   45 1
    32   18   19 ar
    33   18   46 1
    34   19   20 ar
    35   19   22 1
    36   20   21 ar
    37   20   47 1
    38   21   48 1
    39   22   23 2
    40   22   24 am
    41   24   25 1
    42   24   49 1
    43   25   26 1
    44   25   27 1
    45   25   32 1
    46   27   28 1
    47   27   50 1
    48   27   51 1
    49   28   29 1
    50   28   52 1
    51   28   53 1
    52   29   30 2
    53   29   31 1
    54   32   33 2
    55   32   34 1
@<TRIPOS>MOLECULE
ZINC34801951
   68    73     0     0     0
SMALL
USER_CHARGES

@<TRIPOS>ATOM
      1 C1          1.4421    1.4789   -3.9746 C.ar      1 <0>        -0.0951
      2 C2          2.5867    2.1911   -3.7784 C.ar      1 <0>        -0.1246
      3 C3          3.8019    1.5159   -3.5816 C.ar      1 <0>         0.0823
      4 C4          5.0009    2.2267   -3.3757 C.ar      1 <0>        -0.7057
      5 C5          6.1668    1.5609   -3.1867 C.ar      1 <0>         0.0451
      6 C6          6.2055    0.1534   -3.1922 C.ar      1 <0>        -0.0711
      7 C7          5.0352   -0.5836   -3.3934 C.ar      1 <0>         0.3364
      8 C8          3.8164    0.0992   -3.5907 C.ar      1 <0>        -0.1308
      9 C9          2.6177   -0.6019   -3.7958 C.ar      1 <0>        -0.0928
     10 C10         1.4571    0.0865   -3.9835 C.ar      1 <0>        -0.1372
     11 N1          5.0714   -1.9683   -3.3987 N.pl3     1 <0>        -0.8336
     12 N2          7.3881   -0.4923   -3.0011 N.2       1 <0>        -0.1932
     13 N3          8.4701    0.1850   -2.8155 N.2       1 <0>        -0.2574
     14 C11         9.6564   -0.4627   -2.6238 C.ar      1 <0>         0.0738
     15 C12         9.7004   -1.8611   -2.6343 C.ar      1 <0>        -0.1157
     16 C13        10.8925   -2.5102   -2.4416 C.ar      1 <0>        -0.1091
     17 C14        12.0624   -1.7765   -2.2350 C.ar      1 <0>        -0.0369
     18 C15        12.0201   -0.3808   -2.2244 C.ar      1 <0>        -0.1081
     19 C16        10.8304    0.2712   -2.4225 C.ar      1 <0>        -0.0695
     20 C17        13.3492   -2.4791   -2.0266 C.ar      1 <0>        -0.0369
     21 C18        13.3923   -3.8747   -2.0425 C.ar      1 <0>        -0.1080
     22 C19        14.5829   -4.5266   -1.8501 C.ar      1 <0>        -0.0695
     23 C20        15.7551   -3.7928   -1.6377 C.ar      1 <0>         0.0738
     24 C21        15.7102   -2.3946   -1.6220 C.ar      1 <0>        -0.1157
     25 C22        14.5191   -1.7454   -1.8200 C.ar      1 <0>        -0.1091
     26 N4         16.9413   -4.4406   -1.4456 N.2       1 <0>        -0.2575
     27 N5         18.0217   -3.7634   -1.2498 N.2       1 <0>        -0.1932
     28 C23        19.2041   -4.4091   -1.0582 C.ar      1 <0>        -0.0711
     29 C24        20.3717   -3.6723   -0.8407 C.ar      1 <0>         0.3365
     30 C25        21.5905   -4.3552   -0.6436 C.ar      1 <0>        -0.1308
     31 C26        21.6079   -5.7717   -0.6698 C.ar      1 <0>         0.0823
     32 C27        20.4116   -6.4822   -0.8918 C.ar      1 <0>        -0.7057
     33 C28        19.2446   -5.8165   -1.0744 C.ar      1 <0>         0.0452
     34 S1         20.4311   -8.2438   -0.9254 S.o2      1 <0>         2.6986
     35 O1         20.3700   -8.6934    0.4567 O.2       1 <0>        -1.0620
     36 O2         19.2645   -8.6647   -1.6856 O.2       1 <0>        -1.0608
     37 O3         21.6726   -8.6403   -1.5714 O.3       1 <0>        -1.0606
     38 C29        22.8230   -6.4469   -0.4727 C.ar      1 <0>        -0.1245
     39 C30        23.9648   -5.7349   -0.2597 C.ar      1 <0>        -0.0951
     40 C31        23.9469   -4.3428   -0.2341 C.ar      1 <0>        -0.1372
     41 C32        22.7863   -3.6543   -0.4215 C.ar      1 <0>        -0.0928
     42 N6         20.3328   -2.2879   -0.8194 N.pl3     1 <0>        -0.8335
     43 S2          4.9852    3.9886   -3.3646 S.o2      1 <0>         2.6986
     44 O4          4.5839    4.3990   -2.0280 O.2       1 <0>        -1.0620
     45 O5          6.3355    4.4251   -3.6844 O.2       1 <0>        -1.0608
     46 O6          4.0251    4.4089   -4.3733 O.3       1 <0>        -1.0606
     47 H1          0.5085    2.0018   -4.1212 H         1 <0>         0.1260
     48 H2          2.5596    3.2708   -3.7745 H         1 <0>         0.1674
     49 H3          7.0787    2.1180   -3.0300 H         1 <0>         0.1511
     50 H4          2.6155   -1.6819   -3.8049 H         1 <0>         0.1184
     51 H5          0.5361   -0.4551   -4.1412 H         1 <0>         0.1214
     52 H6          5.9123   -2.4320   -3.2622 H         1 <0>         0.4127
     53 H7          4.2557   -2.4743   -3.5389 H         1 <0>         0.4017
     54 H8          8.7956   -2.4289   -2.7936 H         1 <0>         0.1314
     55 H9         10.9266   -3.5896   -2.4492 H         1 <0>         0.1275
     56 H10        12.9257    0.1854   -2.0641 H         1 <0>         0.1323
     57 H11        10.7988    1.3507   -2.4190 H         1 <0>         0.1380
     58 H12        12.4873   -4.4409   -2.2061 H         1 <0>         0.1323
     59 H13        14.6160   -5.6060   -1.8622 H         1 <0>         0.1380
     60 H14        16.6142   -1.8268   -1.4581 H         1 <0>         0.1314
     61 H15        14.4848   -0.6659   -1.8120 H         1 <0>         0.1275
     62 H16        18.3341   -6.3735   -1.2391 H         1 <0>         0.1510
     63 H17        22.8523   -7.5264   -0.4895 H         1 <0>         0.1674
     64 H18        24.8975   -6.2579   -0.1081 H         1 <0>         0.1260
     65 H19        24.8656   -3.8014   -0.0630 H         1 <0>         0.1214
     66 H20        22.7862   -2.5745   -0.3989 H         1 <0>         0.1184
     67 H21        19.4918   -1.8242   -0.9559 H         1 <0>         0.4128
     68 H22        21.1465   -1.7821   -0.6679 H         1 <0>         0.4017
@<TRIPOS>BOND
     1    1   10 ar
     2    1    2 ar
     3    1   47 1
     4    2    3 ar
     5    2   48 1
     6    3    8 ar
     7    3    4 ar
     8    4    5 ar
     9    4   43 1
    10    5    6 ar
    11    5   49 1
    12    6    7 ar
    13    6   12 1
    14    7    8 ar
    15    7   11 1
    16    8    9 ar
    17    9   10 ar
    18    9   50 1
    19   10   51 1
    20   11   52 1
    21   11   53 1
    22   12   13 2
    23   13   14 1
    24   14   19 ar
    25   14   15 ar
    26   15   16 ar
    27   15   54 1
    28   16   17 ar
    29   16   55 1
    30   17   18 ar
    31   17   20 1
    32   18   19 ar
    33   18   56 1
    34   19   57 1
    35   20   25 ar
    36   20   21 ar
    37   21   22 ar
    38   21   58 1
    39   22   23 ar
    40   22   59 1
    41   23   24 ar
    42   23   26 1
    43   24   25 ar
    44   24   60 1
    45   25   61 1
    46   26   27 2
    47   27   28 1
    48   28   33 ar
    49   28   29 ar
    50   29   30 ar
    51   29   42 1
    52   30   41 ar
    53   30   31 ar
    54   31   32 ar
    55   31   38 ar
    56   32   33 ar
    57   32   34 1
    58   33   62 1
    59   34   35 2
    60   34   36 2
    61   34   37 1
    62   38   39 ar
    63   38   63 1
    64   39   40 ar
    65   39   64 1
    66   40   41 ar
    67   40   65 1
    68   41   66 1
    69   42   67 1
    70   42   68 1
    71   43   44 2
    72   43   45 2
    73   43   46 1
@<TRIPOS>MOLECULE
ZINC00089763
   27    28     0     0     0
SMALL
USER_CHARGES

@<TRIPOS>ATOM
      1 C1         -0.0184    1.5028    0.0103 C.3       1 <0>        -0.0753
      2 C2          0.0021   -0.0041    0.0020 C.2       1 <0>         0.0345
      3 C3         -1.0761   -0.8071    0.0026 C.2       1 <0>        -0.2715
      4 C4         -0.6252   -2.1469   -0.0076 C.2       1 <0>         0.3859
      5 N1          0.6837   -2.1300   -0.0140 N.2       1 <0>        -0.4533
      6 O1          1.0999   -0.7764   -0.0131 O.3       1 <0>        -0.1203
      7 N2         -1.4296   -3.2817   -0.0100 N.2       1 <0>        -1.0529
      8 S1         -0.7384   -4.7865   -0.0224 S.o2      1 <0>         2.6208
      9 O2         -0.0749   -4.9184   -1.2721 O.2       1 <0>        -1.0265
     10 O3         -0.0617   -4.9329    1.2185 O.2       1 <0>        -1.0265
     11 C5         -2.0505   -5.9625   -0.0223 C.ar      1 <0>        -0.6699
     12 C6         -2.5617   -6.4257    1.1762 C.ar      1 <0>         0.0231
     13 C7         -3.5901   -7.3474    1.1799 C.ar      1 <0>        -0.2217
     14 C8         -4.1111   -7.8093   -0.0221 C.ar      1 <0>         0.2448
     15 C9         -3.5952   -7.3419   -1.2243 C.ar      1 <0>        -0.2217
     16 C10        -2.5706   -6.4160   -1.2207 C.ar      1 <0>         0.0230
     17 N3         -5.1509   -8.7418   -0.0221 N.pl3     1 <0>        -0.8771
     18 H1          1.0042    1.8801    0.0026 H         1 <0>         0.0724
     19 H2         -0.5455    1.8639   -0.8728 H         1 <0>         0.0813
     20 H3         -0.5286    1.8543    0.9071 H         1 <0>         0.0813
     21 H4         -2.1069   -0.4849    0.0099 H         1 <0>         0.1395
     22 H5         -2.1560   -6.0665    2.1104 H         1 <0>         0.1354
     23 H6         -3.9886   -7.7090    2.1163 H         1 <0>         0.1225
     24 H7         -3.9977   -7.6993   -2.1606 H         1 <0>         0.1225
     25 H8         -2.1721   -6.0489   -2.1550 H         1 <0>         0.1354
     26 H9         -5.5100   -9.0677    0.8180 H         1 <0>         0.3971
     27 H10        -5.5138   -9.0636   -0.8621 H         1 <0>         0.3971
@<TRIPOS>BOND
     1    1    2 1
     2    1   18 1
     3    1   19 1
     4    1   20 1
     5    2    6 1
     6    2    3 2
     7    3    4 1
     8    3   21 1
     9    4    5 2
    10    4    7 1
    11    5    6 1
    12    7    8 1
    13    8    9 2
    14    8   10 2
    15    8   11 1
    16   11   16 ar
    17   11   12 ar
    18   12   13 ar
    19   12   22 1
    20   13   14 ar
    21   13   23 1
    22   14   15 ar
    23   14   17 1
    24   15   16 ar
    25   15   24 1
    26   16   25 1
    27   17   26 1
    28   17   27 1
@<TRIPOS>MOLECULE
ZINC04228265
   51    53     0     0     0
SMALL
USER_CHARGES

@<TRIPOS>ATOM
      1 C1         -0.0169    1.3937    0.0097 C.ar      1 <0>        -0.0160
      2 C2          1.1662    2.0965    0.0022 C.ar      1 <0>        -0.2056
      3 C3          2.3811    1.4169   -0.0131 C.ar      1 <0>         0.2283
      4 C4          2.4034    0.0249   -0.0208 C.ar      1 <0>        -0.2094
      5 C5          1.2237   -0.6836   -0.0138 C.ar      1 <0>        -0.0353
      6 C6          0.0021   -0.0041    0.0020 C.ar      1 <0>        -0.1712
      7 C7         -1.2644   -0.7605    0.0105 C.2       1 <0>         0.5506
      8 O1         -2.3263   -0.1682    0.0243 O.2       1 <0>        -0.5615
      9 N1         -1.2445   -2.1081    0.0031 N.am      1 <0>        -0.6803
     10 C8         -2.5022   -2.8593    0.0116 C.3       1 <0>         0.0747
     11 H1         -3.2516   -2.3197   -0.5676 H         1 <0>         0.0764
     12 C9         -2.2758   -4.2399   -0.6078 C.3       1 <0>        -0.0818
     13 C10        -1.9084   -4.0824   -2.0846 C.3       1 <0>        -0.1769
     14 C11        -1.6854   -5.4422   -2.6946 C.2       1 <0>         0.4913
     15 O2         -1.8089   -6.4445   -2.0115 O.co2     1 <0>        -0.6983
     16 O3         -1.3815   -5.5401   -3.8713 O.co2     1 <0>        -0.7206
     17 C12        -2.9829   -3.0182    1.4310 C.2       1 <0>         0.4983
     18 O4         -4.1770   -3.0939    1.6654 O.co2     1 <0>        -0.7035
     19 O5         -2.1777   -3.0709    2.3450 O.co2     1 <0>        -0.6991
     20 N2          3.5749    2.1299   -0.0211 N.pl3     1 <0>        -0.7367
     21 C13         4.8542    1.4162   -0.0371 C.3       1 <0>         0.1821
     22 C14         5.9850    2.4124   -0.0431 C.2       1 <0>         0.0760
     23 N3          5.7146    3.6712   -0.0289 N.2       1 <0>        -0.3921
     24 C15         6.6956    4.6162   -0.0691 C.2       1 <0>        -0.2044
     25 C16         6.4246    5.9700    0.2141 C.2       1 <0>         0.5743
     26 O6          5.2957    6.3359    0.4968 O.2       1 <0>        -0.5073
     27 N4          7.4467    6.8524    0.1649 N.am      1 <0>        -0.6583
     28 H2          7.2835    7.7894    0.3555 H         1 <0>         0.4147
     29 C17         8.7034    6.4358   -0.1496 C.2       1 <0>         0.6700
     30 N5          8.9694    5.1728   -0.4207 N.2       1 <0>        -0.6109
     31 C18         8.0088    4.2519   -0.3963 C.2       1 <0>         0.4595
     32 N6          8.2645    2.9272   -0.6977 N.pl3     1 <0>        -0.7018
     33 C19         7.4066    1.9124   -0.0595 C.3       1 <0>         0.1338
     34 N7          9.7191    7.3529   -0.1862 N.pl3     1 <0>        -0.8144
     35 H3         -0.9590    1.9215    0.0260 H         1 <0>         0.1316
     36 H4          1.1522    3.1764    0.0078 H         1 <0>         0.1202
     37 H5          3.3474   -0.4995   -0.0326 H         1 <0>         0.1219
     38 H6          1.2416   -1.7634   -0.0204 H         1 <0>         0.1271
     39 H7         -0.3974   -2.5806   -0.0078 H         1 <0>         0.3900
     40 H8         -1.4645   -4.7448   -0.0833 H         1 <0>         0.0595
     41 H9         -3.1876   -4.8309   -0.5212 H         1 <0>         0.0710
     42 H10        -2.7197   -3.5775   -2.6090 H         1 <0>         0.0524
     43 H11        -0.9966   -3.4914   -2.1711 H         1 <0>         0.0520
     44 H12         3.5606    3.0997   -0.0161 H         1 <0>         0.4130
     45 H13         4.9299    0.7860    0.8490 H         1 <0>         0.0824
     46 H14         4.9126    0.7950   -0.9309 H         1 <0>         0.0801
     47 H15         8.9805    2.6766   -1.3022 H         1 <0>         0.4168
     48 H16         7.7427    1.7364    0.9623 H         1 <0>         0.0803
     49 H17         7.4595    0.9832   -0.6268 H         1 <0>         0.1098
     50 H18         9.5381    8.2853    0.0106 H         1 <0>         0.4176
     51 H19        10.6199    7.0703   -0.4089 H         1 <0>         0.4300
@<TRIPOS>BOND
     1    1    6 ar
     2    1    2 ar
     3    1   35 1
     4    2    3 ar
     5    2   36 1
     6    3    4 ar
     7    3   20 1
     8    4    5 ar
     9    4   37 1
    10    5    6 ar
    11    5   38 1
    12    6    7 1
    13    7    8 2
    14    7    9 am
    15    9   10 1
    16    9   39 1
    17   10   11 1
    18   10   12 1
    19   10   17 1
    20   12   13 1
    21   12   40 1
    22   12   41 1
    23   13   14 1
    24   13   42 1
    25   13   43 1
    26   14   15 2
    27   14   16 1
    28   17   18 2
    29   17   19 1
    30   20   21 1
    31   20   44 1
    32   21   22 1
    33   21   45 1
    34   21   46 1
    35   22   33 1
    36   22   23 2
    37   23   24 1
    38   24   31 2
    39   24   25 1
    40   25   26 2
    41   25   27 am
    42   27   28 1
    43   27   29 1
    44   29   30 2
    45   29   34 1
    46   30   31 1
    47   31   32 1
    48   32   33 1
    49   32   47 1
    50   33   48 1
    51   33   49 1
    52   34   50 1
    53   34   51 1
@<TRIPOS>MOLECULE
ZINC01574819
   40    41     0     0     0
SMALL
USER_CHARGES
5-(4-chloro-3-dimethylaminoazo-phenyl)-6-ethyl-pyrimidine-2,4-diamine
@<TRIPOS>ATOM
      1 C1         -0.4062    0.3719   -3.2115 C.3       1 <0>        -0.1416
      2 C2          0.8287    0.0288   -2.3759 C.3       1 <0>        -0.0800
      3 C3          0.4042   -0.7048   -1.1299 C.ar      1 <0>         0.2691
      4 C4          0.0785   -0.0007    0.0273 C.ar      1 <0>        -0.2854
      5 C5         -0.3176   -0.7318    1.1625 C.ar      1 <0>         0.4984
      6 N1         -0.3606   -2.0571    1.0891 N.ar      1 <0>        -0.6302
      7 C6         -0.0369   -2.6840   -0.0320 C.ar      1 <0>         0.6106
      8 N2          0.3399   -2.0265   -1.1193 N.ar      1 <0>        -0.6026
      9 N3         -0.0942   -4.0658   -0.0691 N.pl3     1 <0>        -0.8191
     10 N4         -0.6569   -0.0808    2.3352 N.pl3     1 <0>        -0.8300
     11 C7          0.1418    1.4805    0.0599 C.ar      1 <0>        -0.0008
     12 C8          1.3751    2.1287   -0.0095 C.ar      1 <0>        -0.0941
     13 C9          1.4369    3.5077    0.0202 C.ar      1 <0>        -0.0984
     14 C10         0.2785    4.2549    0.1183 C.ar      1 <0>        -0.0048
     15 C11        -0.9623    3.6171    0.1890 C.ar      1 <0>         0.1149
     16 C12        -1.0294    2.2258    0.1540 C.ar      1 <0>        -0.1166
     17 N5         -2.1125    4.3591    0.2865 N.2       1 <0>        -0.3261
     18 N6         -3.2575    3.7684    0.3516 N.2       1 <0>         0.0466
     19 N7         -4.4318    4.5259    0.4511 N.pl3     1 <0>        -0.4916
     20 C13        -4.3596    5.9888    0.4811 C.3       1 <0>         0.0672
     21 C14        -5.7321    3.8551    0.5251 C.3       1 <0>         0.1167
     22 Cl1         0.3655    5.9883    0.1545 Cl        1 <0>        -0.0499
     23 H1         -0.0938    0.8247   -4.1525 H         1 <0>         0.0657
     24 H2         -0.9708   -0.5378   -3.4158 H         1 <0>         0.0587
     25 H3         -1.0337    1.0732   -2.6614 H         1 <0>         0.0554
     26 H4          1.3462    0.9472   -2.0983 H         1 <0>         0.0874
     27 H5          1.4981   -0.6032   -2.9594 H         1 <0>         0.0878
     28 H6         -0.3685   -4.5611    0.7185 H         1 <0>         0.4138
     29 H7          0.1398   -4.5392   -0.8827 H         1 <0>         0.4158
     30 H8         -0.6229    0.8876    2.3797 H         1 <0>         0.4123
     31 H9         -0.9288   -0.5928    3.1129 H         1 <0>         0.4077
     32 H10         2.2839    1.5503   -0.0871 H         1 <0>         0.1358
     33 H11         2.3944    4.0045   -0.0339 H         1 <0>         0.1433
     34 H12        -1.9864    1.7278    0.2038 H         1 <0>         0.1370
     35 H13        -4.4126    6.3761   -0.5363 H         1 <0>         0.0562
     36 H14        -5.1929    6.3819    1.0635 H         1 <0>         0.0731
     37 H15        -3.4194    6.2968    0.9386 H         1 <0>         0.0805
     38 H16        -5.5866    2.7754    0.4891 H         1 <0>         0.0831
     39 H17        -6.2272    4.1241    1.4582 H         1 <0>         0.0671
     40 H18        -6.3501    4.1666   -0.3170 H         1 <0>         0.0670
@<TRIPOS>BOND
     1    1    2 1
     2    1   23 1
     3    1   24 1
     4    1   25 1
     5    2    3 1
     6    2   26 1
     7    2   27 1
     8    3    8 ar
     9    3    4 ar
    10    4    5 ar
    11    4   11 1
    12    5    6 ar
    13    5   10 1
    14    6    7 ar
    15    7    8 ar
    16    7    9 1
    17    9   28 1
    18    9   29 1
    19   10   30 1
    20   10   31 1
    21   11   16 ar
    22   11   12 ar
    23   12   13 ar
    24   12   32 1
    25   13   14 ar
    26   13   33 1
    27   14   15 ar
    28   14   22 1
    29   15   16 ar
    30   15   17 1
    31   16   34 1
    32   17   18 2
    33   18   19 1
    34   19   20 1
    35   19   21 1
    36   20   35 1
    37   20   36 1
    38   20   37 1
    39   21   38 1
    40   21   39 1
    41   21   40 1
@<TRIPOS>MOLECULE
ZINC02146508
   34    37     0     0     0
SMALL
USER_CHARGES
3,4-dichloro-N-[5-(5-chlorobenzothiazol-2-yl)sulfanyl-1,3,4-thiadiazol-2-yl]-benzamide
@<TRIPOS>ATOM
      1 C1        -10.4814    8.3217    0.0903 C.ar      1 <0>        -0.0692
      2 C2        -11.4133    9.3384    0.1051 C.ar      1 <0>        -0.1012
      3 C3        -11.0005   10.6601    0.1085 C.ar      1 <0>        -0.0023
      4 C4         -9.6491   10.9699    0.1033 C.ar      1 <0>        -0.0390
      5 C5         -8.7077    9.9612    0.0943 C.ar      1 <0>        -0.0314
      6 C6         -9.1190    8.6266    0.0904 C.ar      1 <0>        -0.1202
      7 C7         -8.1162    7.5417    0.0802 C.2       1 <0>         0.5610
      8 O1         -6.9304    7.8099    0.0752 O.2       1 <0>        -0.4482
      9 N1         -8.5160    6.2546    0.0764 N.am      1 <0>        -0.6067
     10 C8         -7.5717    5.2329    0.0668 C.2       1 <0>         0.2932
     11 N2         -6.2496    5.2964    0.0598 N.2       1 <0>        -0.2633
     12 N3         -5.5311    4.2598    0.0510 N.2       1 <0>        -0.2314
     13 C9         -6.0557    3.0435    0.0482 C.2       1 <0>        -0.0536
     14 S1         -7.7979    3.4568    0.0519 S.3       1 <0>         0.0923
     15 S2         -5.2651    1.4689    0.0366 S.3       1 <0>         0.3574
     16 C10        -3.5771    1.9741    0.0302 C.2       1 <0>         0.0511
     17 N4         -2.4939    1.2298    0.0210 N.2       1 <0>        -0.4684
     18 C11        -1.2511    1.7585    0.0176 C.ar      1 <0>         0.0885
     19 C12        -0.0126    1.0758    0.0080 C.ar      1 <0>        -0.0486
     20 C13         1.1701    1.7703    0.0004 C.ar      1 <0>        -0.0286
     21 C14         1.1955    3.1584    0.0067 C.ar      1 <0>        -0.0825
     22 C15         0.0022    3.8573    0.0214 C.ar      1 <0>        -0.0513
     23 C16        -1.1857    3.1703    0.0295 C.ar      1 <0>        -0.1711
     24 S3         -2.9021    3.6289    0.0480 S.3       1 <0>         0.1512
     25 Cl1         2.6687    0.8941   -0.0180 Cl        1 <0>        -0.0549
     26 Cl2        -9.1406   12.6298    0.1088 Cl        1 <0>        -0.0280
     27 Cl3       -12.1797   11.9341    0.1199 Cl        1 <0>        -0.0290
     28 H1        -10.8051    7.2913    0.0832 H         1 <0>         0.1434
     29 H2        -12.4673    9.1031    0.1096 H         1 <0>         0.1561
     30 H3         -7.6552   10.2032    0.0899 H         1 <0>         0.1615
     31 H4         -9.4621    6.0406    0.0804 H         1 <0>         0.4307
     32 H5          0.0021   -0.0041    0.0020 H         1 <0>         0.1456
     33 H6          2.1374    3.6869    0.0006 H         1 <0>         0.1511
     34 H7          0.0052    4.9373    0.0268 H         1 <0>         0.1459
@<TRIPOS>BOND
     1    1    6 ar
     2    1    2 ar
     3    1   28 1
     4    2    3 ar
     5    2   29 1
     6    3    4 ar
     7    3   27 1
     8    4    5 ar
     9    4   26 1
    10    5    6 ar
    11    5   30 1
    12    6    7 1
    13    7    8 2
    14    7    9 am
    15    9   10 1
    16    9   31 1
    17   10   14 1
    18   10   11 2
    19   11   12 1
    20   12   13 2
    21   13   14 1
    22   13   15 1
    23   15   16 1
    24   16   24 1
    25   16   17 2
    26   17   18 1
    27   18   23 ar
    28   18   19 ar
    29   19   20 ar
    30   19   32 1
    31   20   21 ar
    32   20   25 1
    33   21   22 ar
    34   21   33 1
    35   22   23 ar
    36   22   34 1
    37   23   24 1
@<TRIPOS>MOLECULE
ZINC03777839
   51    53     0     0     0
SMALL
USER_CHARGES

@<TRIPOS>ATOM
      1 C1          0.8935   -1.6706   -0.2826 C.3       1 <0>        -0.1551
      2 C2          0.1058   -0.3838   -0.0280 C.3       1 <0>        -0.1070
      3 C3         -1.3705   -0.6719   -0.1204 C.ar      1 <0>         0.2621
      4 C4         -2.0170   -0.6540   -1.3542 C.ar      1 <0>        -0.1961
      5 C5         -3.3965   -0.9296   -1.3873 C.ar      1 <0>         0.5430
      6 N1         -4.0252   -1.1946   -0.2479 N.ar      1 <0>        -0.5719
      7 C6         -3.3684   -1.2004    0.9025 C.ar      1 <0>         0.6687
      8 N2         -2.0686   -0.9506    0.9688 N.ar      1 <0>        -0.5688
      9 N3         -4.0588   -1.4806    2.0685 N.pl3     1 <0>        -0.7876
     10 N4         -4.0866   -0.9241   -2.5868 N.pl3     1 <0>        -0.7722
     11 C7         -1.2713   -0.3519   -2.5998 C.ar      1 <0>        -0.0711
     12 C8         -0.7738    0.9316   -2.8220 C.ar      1 <0>        -0.0435
     13 C9         -0.0808    1.2101   -3.9808 C.ar      1 <0>        -0.1155
     14 C10         0.1217    0.2127   -4.9276 C.ar      1 <0>         0.2720
     15 C11        -0.3736   -1.0671   -4.7086 C.ar      1 <0>        -0.0566
     16 C12        -1.0616   -1.3521   -3.5479 C.ar      1 <0>        -0.0393
     17 N5         -0.1571   -2.1269   -5.7192 N.pl3     1 <0>         0.0307
     18 O1         -0.5878   -3.2405   -5.5291 O.2       1 <0>        -0.1726
     19 O2          0.4504   -1.8788   -6.7346 O.3       1 <0>        -0.1112
     20 N6          0.8238    0.4974   -6.1012 N.pl3     1 <0>        -0.6740
     21 C13         2.2779    0.3246   -6.1451 C.3       1 <0>         0.1131
     22 C14         0.1060    0.9687   -7.2881 C.3       1 <0>         0.1897
     23 C15         0.0323    2.4737   -7.2660 C.ar      1 <0>        -0.1119
     24 C16        -1.0320    3.1047   -6.6496 C.ar      1 <0>        -0.1118
     25 C17        -1.0995    4.4852   -6.6293 C.ar      1 <0>        -0.1212
     26 C18        -0.1025    5.2348   -7.2251 C.ar      1 <0>        -0.1147
     27 C19         0.9623    4.6038   -7.8408 C.ar      1 <0>        -0.1162
     28 C20         1.0320    3.2233   -7.8573 C.ar      1 <0>        -0.1015
     29 H1          1.9576   -1.4783   -0.1455 H         1 <0>         0.0904
     30 H2          0.5699   -2.4395    0.4190 H         1 <0>         0.0659
     31 H3          0.7141   -2.0106   -1.3025 H         1 <0>         0.0694
     32 H4          0.3405   -0.0050    0.9668 H         1 <0>         0.1084
     33 H5          0.3778    0.3624   -0.7744 H         1 <0>         0.1206
     34 H6         -5.0098   -1.6691    2.0358 H         1 <0>         0.4466
     35 H7         -3.5918   -1.4886    2.9187 H         1 <0>         0.4316
     36 H8         -3.6193   -0.7291   -3.4142 H         1 <0>         0.4300
     37 H9         -5.0375   -1.1152   -2.6002 H         1 <0>         0.4312
     38 H10        -0.9315    1.7071   -2.0870 H         1 <0>         0.1479
     39 H11         0.3047    2.2041   -4.1533 H         1 <0>         0.1574
     40 H12        -1.4419   -2.3482   -3.3758 H         1 <0>         0.1560
     41 H13         2.5137   -0.6899   -6.4663 H         1 <0>         0.0533
     42 H14         2.7074    1.0377   -6.8488 H         1 <0>         0.0722
     43 H15         2.6944    0.4976   -5.1528 H         1 <0>         0.0531
     44 H16         0.6338    0.6438   -8.1848 H         1 <0>         0.0937
     45 H17        -0.9027    0.5556   -7.2906 H         1 <0>         0.0669
     46 H18        -1.8109    2.5190   -6.1841 H         1 <0>         0.1112
     47 H19        -1.9314    4.9782   -6.1483 H         1 <0>         0.1204
     48 H20        -0.1556    6.3134   -7.2098 H         1 <0>         0.1231
     49 H21         1.7411    5.1895   -8.3065 H         1 <0>         0.1246
     50 H22         1.8658    2.7304   -8.3351 H         1 <0>         0.1231
     51 H23        -1.6226   -0.9684    1.8300 H         1 <0>         0.4435
@<TRIPOS>BOND
     1    1    2 1
     2    1   29 1
     3    1   30 1
     4    1   31 1
     5    2    3 1
     6    2   32 1
     7    2   33 1
     8    3    8 ar
     9    3    4 ar
    10    4    5 ar
    11    4   11 1
    12    5    6 ar
    13    5   10 1
    14    6    7 ar
    15    7    8 ar
    16    7    9 1
    17    8   51 1
    18    9   34 1
    19    9   35 1
    20   10   36 1
    21   10   37 1
    22   11   16 ar
    23   11   12 ar
    24   12   13 ar
    25   12   38 1
    26   13   14 ar
    27   13   39 1
    28   14   15 ar
    29   14   20 1
    30   15   16 ar
    31   15   17 1
    32   16   40 1
    33   17   18 2
    34   17   19 1
    35   20   21 1
    36   20   22 1
    37   21   41 1
    38   21   42 1
    39   21   43 1
    40   22   23 1
    41   22   44 1
    42   22   45 1
    43   23   28 ar
    44   23   24 ar
    45   24   25 ar
    46   24   46 1
    47   25   26 ar
    48   25   47 1
    49   26   27 ar
    50   26   48 1
    51   27   28 ar
    52   27   49 1
    53   28   50 1
@<TRIPOS>MOLECULE
ZINC03777839
   50    52     0     0     0
SMALL
USER_CHARGES

@<TRIPOS>ATOM
      1 C1         -0.0187    1.5258    0.0104 C.3       1 <0>        -0.1427
      2 C2          0.0021   -0.0041    0.0020 C.3       1 <0>        -0.0814
      3 C3          0.7074   -0.4901   -1.2379 C.ar      1 <0>         0.2740
      4 C4         -0.0072   -0.7231   -2.4107 C.ar      1 <0>        -0.2926
      5 C5          0.6976   -1.1764   -3.5412 C.ar      1 <0>         0.5021
      6 N1          2.0090   -1.3634   -3.4470 N.ar      1 <0>        -0.6284
      7 C6          2.6466   -1.1284   -2.3099 C.ar      1 <0>         0.6148
      8 N2          2.0147   -0.6959   -1.2283 N.ar      1 <0>        -0.6006
      9 N3          4.0136   -1.3357   -2.2512 N.pl3     1 <0>        -0.8164
     10 N4          0.0353   -1.4235   -4.7309 N.pl3     1 <0>        -0.8299
     11 C7         -1.4721   -0.4999   -2.4664 C.ar      1 <0>        -0.0108
     12 C8         -2.3275   -1.2811   -1.6903 C.ar      1 <0>        -0.0547
     13 C9         -3.6891   -1.0718   -1.7437 C.ar      1 <0>        -0.1182
     14 C10        -4.2095   -0.0831   -2.5708 C.ar      1 <0>         0.2413
     15 C11        -3.3590    0.6965   -3.3455 C.ar      1 <0>        -0.0561
     16 C12        -1.9958    0.4952   -3.2903 C.ar      1 <0>        -0.0545
     17 N5         -3.9163    1.7479   -4.2259 N.pl3     1 <0>         0.0371
     18 O1         -3.1769    2.4264   -4.9001 O.2       1 <0>        -0.1819
     19 O2         -5.1109    1.9281   -4.2708 O.3       1 <0>        -0.1285
     20 N6         -5.5895    0.1269   -2.6235 N.pl3     1 <0>        -0.6693
     21 C13        -6.2215    1.0769   -1.7047 C.3       1 <0>         0.1162
     22 C14        -6.4047   -0.6029   -3.5977 C.3       1 <0>         0.1908
     23 C15        -6.8791   -1.8964   -2.9870 C.ar      1 <0>        -0.1069
     24 C16        -6.1129   -3.0405   -3.1095 C.ar      1 <0>        -0.1081
     25 C17        -6.5480   -4.2270   -2.5494 C.ar      1 <0>        -0.1208
     26 C18        -7.7492   -4.2694   -1.8664 C.ar      1 <0>        -0.1187
     27 C19        -8.5149   -3.1251   -1.7432 C.ar      1 <0>        -0.1198
     28 C20        -8.0777   -1.9376   -2.2996 C.ar      1 <0>        -0.1040
     29 H1          1.0039    1.9031    0.0027 H         1 <0>         0.0621
     30 H2         -0.5459    1.8868   -0.8726 H         1 <0>         0.0541
     31 H3         -0.5289    1.8773    0.9072 H         1 <0>         0.0668
     32 H4          0.5293   -0.3651    0.8851 H         1 <0>         0.0907
     33 H5         -1.0205   -0.3814    0.0098 H         1 <0>         0.0845
     34 H6          4.4908   -1.6486   -3.0356 H         1 <0>         0.4152
     35 H7          4.4945   -1.1681   -1.4257 H         1 <0>         0.4169
     36 H8         -0.9228   -1.2844   -4.7905 H         1 <0>         0.4103
     37 H9          0.5292   -1.7358   -5.5051 H         1 <0>         0.4103
     38 H10        -1.9237   -2.0499   -1.0481 H         1 <0>         0.1425
     39 H11        -4.3520   -1.6766   -1.1428 H         1 <0>         0.1473
     40 H12        -1.3349    1.1047   -3.8887 H         1 <0>         0.1499
     41 H13        -6.2373    2.0671   -2.1601 H         1 <0>         0.0488
     42 H14        -7.2423    0.7565   -1.4963 H         1 <0>         0.0656
     43 H15        -5.6552    1.1140   -0.7742 H         1 <0>         0.0520
     44 H16        -7.2657    0.0038   -3.8781 H         1 <0>         0.0880
     45 H17        -5.8071   -0.8171   -4.4838 H         1 <0>         0.0657
     46 H18        -5.1745   -3.0074   -3.6431 H         1 <0>         0.1142
     47 H19        -5.9498   -5.1210   -2.6457 H         1 <0>         0.1199
     48 H20        -8.0895   -5.1965   -1.4294 H         1 <0>         0.1205
     49 H21        -9.4535   -3.1582   -1.2099 H         1 <0>         0.1215
     50 H22        -8.6741   -1.0428   -2.2002 H         1 <0>         0.1211
@<TRIPOS>BOND
     1    1    2 1
     2    1   29 1
     3    1   30 1
     4    1   31 1
     5    2    3 1
     6    2   32 1
     7    2   33 1
     8    3    8 ar
     9    3    4 ar
    10    4    5 ar
    11    4   11 1
    12    5    6 ar
    13    5   10 1
    14    6    7 ar
    15    7    8 ar
    16    7    9 1
    17    9   34 1
    18    9   35 1
    19   10   36 1
    20   10   37 1
    21   11   16 ar
    22   11   12 ar
    23   12   13 ar
    24   12   38 1
    25   13   14 ar
    26   13   39 1
    27   14   15 ar
    28   14   20 1
    29   15   16 ar
    30   15   17 1
    31   16   40 1
    32   17   18 2
    33   17   19 1
    34   20   21 1
    35   20   22 1
    36   21   41 1
    37   21   42 1
    38   21   43 1
    39   22   23 1
    40   22   44 1
    41   22   45 1
    42   23   28 ar
    43   23   24 ar
    44   24   25 ar
    45   24   46 1
    46   25   26 ar
    47   25   47 1
    48   26   27 ar
    49   26   48 1
    50   27   28 ar
    51   27   49 1
    52   28   50 1
@<TRIPOS>MOLECULE
ZINC05386873
   31    32     0     0     0
SMALL
USER_CHARGES
2-chloro-5-(2,4-diamino-6-ethyl-pyrimidin-5-yl)benzenediazonium
@<TRIPOS>ATOM
      1 C1         -2.1037    2.5491    2.1139 C.3       1 <0>        -0.1446
      2 C2         -0.9642    1.7331    1.5003 C.3       1 <0>        -0.0861
      3 C3         -0.0429    1.2560    2.5933 C.ar      1 <0>         0.2909
      4 C4          1.0248    2.0472    3.0116 C.ar      1 <0>        -0.3332
      5 C5          1.8561    1.5567    4.0356 C.ar      1 <0>         0.5122
      6 N1          1.5924    0.3657    4.5607 N.ar      1 <0>        -0.6245
      7 C6          0.5652   -0.3516    4.1305 C.ar      1 <0>         0.6287
      8 N2         -0.2407    0.0826    3.1720 N.ar      1 <0>        -0.5939
      9 N3          0.3228   -1.5875    4.7029 N.pl3     1 <0>        -0.8049
     10 N4          2.9297    2.3029    4.4880 N.pl3     1 <0>        -0.8323
     11 C7          1.2783    3.3715    2.3944 C.ar      1 <0>         0.0258
     12 C8          1.7103    3.4537    1.0701 C.ar      1 <0>         0.0065
     13 C9          1.9427    4.6852    0.4906 C.ar      1 <0>        -0.0841
     14 C10         1.7594    5.8443    1.2206 C.ar      1 <0>         0.0312
     15 C11         1.3319    5.7749    2.5498 C.ar      1 <0>        -0.0071
     16 C12         1.0912    4.5328    3.1365 C.ar      1 <0>        -0.0209
     17 N5          1.1516    6.9110    3.2659 N.1       1 <0>         0.1513
     18 N6          1.0141    7.7776    3.8120 N.1       1 <0>         0.3159
     19 Cl1         2.0609    7.3882    0.4863 Cl        1 <0>         0.0034
     20 H1         -1.6931    3.4207    2.6235 H         1 <0>         0.0478
     21 H2         -2.6477    1.9326    2.8296 H         1 <0>         0.0674
     22 H3         -2.7823    2.8753    1.3257 H         1 <0>         0.0729
     23 H4         -1.3764    0.8736    0.9717 H         1 <0>         0.1007
     24 H5         -0.4065    2.3564    0.8013 H         1 <0>         0.0814
     25 H6          0.9011   -1.9171    5.4084 H         1 <0>         0.4204
     26 H7         -0.4255   -2.1245    4.3986 H         1 <0>         0.4223
     27 H8          3.1146    3.1720    4.0989 H         1 <0>         0.4054
     28 H9          3.4974    1.9570    5.1943 H         1 <0>         0.4168
     29 H10         1.8598    2.5515    0.4955 H         1 <0>         0.1751
     30 H11         2.2733    4.7427   -0.5359 H         1 <0>         0.1835
     31 H12         0.7605    4.4729    4.1629 H         1 <0>         0.1718
@<TRIPOS>BOND
     1    1    2 1
     2    1   20 1
     3    1   21 1
     4    1   22 1
     5    2    3 1
     6    2   23 1
     7    2   24 1
     8    3    8 ar
     9    3    4 ar
    10    4    5 ar
    11    4   11 1
    12    5    6 ar
    13    5   10 1
    14    6    7 ar
    15    7    8 ar
    16    7    9 1
    17    9   25 1
    18    9   26 1
    19   10   27 1
    20   10   28 1
    21   11   16 ar
    22   11   12 ar
    23   12   13 ar
    24   12   29 1
    25   13   14 ar
    26   13   30 1
    27   14   15 ar
    28   14   19 1
    29   15   16 ar
    30   15   17 1
    31   16   31 1
    32   17   18 3
@<TRIPOS>MOLECULE
ZINC05386873
   32    33     0     0     0
SMALL
USER_CHARGES
2-chloro-5-(2,4-diamino-6-ethyl-pyrimidin-5-yl)benzenediazonium
@<TRIPOS>ATOM
      1 C1         -2.1037    2.5491    2.1139 C.3       1 <0>        -0.1514
      2 C2         -0.9642    1.7331    1.5003 C.3       1 <0>        -0.1000
      3 C3         -0.0429    1.2560    2.5933 C.ar      1 <0>         0.3030
      4 C4          1.0248    2.0472    3.0116 C.ar      1 <0>        -0.2840
      5 C5          1.8561    1.5567    4.0356 C.ar      1 <0>         0.4048
      6 N1          1.5924    0.3657    4.5607 N.ar      1 <0>        -0.5159
      7 C6          0.5652   -0.3516    4.1305 C.ar      1 <0>         0.5908
      8 N2          0.3228   -1.5875    4.7029 N.pl3     1 <0>        -0.7171
      9 N3          2.9297    2.3029    4.4880 N.pl3     1 <0>        -0.7652
     10 C7          1.2783    3.3715    2.3944 C.ar      1 <0>        -0.0378
     11 C8          1.7103    3.4537    1.0701 C.ar      1 <0>         0.0230
     12 C9          1.9427    4.6852    0.4906 C.ar      1 <0>        -0.0772
     13 C10         1.7594    5.8443    1.2206 C.ar      1 <0>         0.0538
     14 C11         1.3319    5.7749    2.5498 C.ar      1 <0>         0.0016
     15 C12         1.0912    4.5328    3.1365 C.ar      1 <0>        -0.0087
     16 N4          1.1516    6.9110    3.2659 N.1       1 <0>         0.1383
     17 N5          1.0141    7.7776    3.8120 N.1       1 <0>         0.3541
     18 Cl1         2.0609    7.3882    0.4863 Cl        1 <0>         0.0349
     19 H1         -1.6931    3.4207    2.6235 H         1 <0>         0.0557
     20 H2         -2.6477    1.9326    2.8296 H         1 <0>         0.0758
     21 H3         -2.7823    2.8753    1.3257 H         1 <0>         0.0948
     22 H4         -1.3764    0.8736    0.9717 H         1 <0>         0.1277
     23 H5         -0.4065    2.3564    0.8013 H         1 <0>         0.1054
     24 H6          0.9011   -1.9171    5.4084 H         1 <0>         0.4430
     25 H7         -0.4255   -2.1245    4.3986 H         1 <0>         0.4558
     26 H8          3.1146    3.1720    4.0989 H         1 <0>         0.4477
     27 H9          3.4974    1.9570    5.1943 H         1 <0>         0.4559
     28 H10         1.8598    2.5515    0.4955 H         1 <0>         0.1847
     29 H11         2.2733    4.7427   -0.5359 H         1 <0>         0.1964
     30 H12         0.7605    4.4729    4.1629 H         1 <0>         0.1801
     31 N6         -0.2987    0.0398    3.1501 N.ar      1 <0>        -0.4794
     32 H13         1.7736    1.2664    4.1658 H         1 <0>         0.4092
@<TRIPOS>BOND
     1    1    2 1
     2    1   19 1
     3    1   20 1
     4    1   21 1
     5    2    3 1
     6    2   22 1
     7    2   23 1
     8    3    4 ar
     9    3   31 ar
    10    4    5 ar
    11    4   10 1
    12    5    6 ar
    13    5    9 1
    14    6    7 ar
    15    6   32 1
    16    7    8 1
    17    7   31 ar
    18    8   24 1
    19    8   25 1
    20    9   26 1
    21    9   27 1
    22   10   15 ar
    23   10   11 ar
    24   11   12 ar
    25   11   28 1
    26   12   13 ar
    27   12   29 1
    28   13   14 ar
    29   13   18 1
    30   14   15 ar
    31   14   16 1
    32   15   30 1
    33   16   17 3
@<TRIPOS>MOLECULE
ZINC05386873
   32    33     0     0     0
SMALL
USER_CHARGES
2-chloro-5-(2,4-diamino-6-ethyl-pyrimidin-5-yl)benzenediazonium
@<TRIPOS>ATOM
      1 C1         -2.1037    2.5491    2.1139 C.3       1 <0>        -0.1563
      2 C2         -0.9642    1.7331    1.5003 C.3       1 <0>        -0.1207
      3 C3         -0.0429    1.2560    2.5933 C.ar      1 <0>         0.2864
      4 C4          1.0248    2.0472    3.0116 C.ar      1 <0>        -0.2349
      5 C5          1.8561    1.5567    4.0356 C.ar      1 <0>         0.5524
      6 N1          1.5924    0.3657    4.5607 N.ar      1 <0>        -0.5597
      7 C6          0.5652   -0.3516    4.1305 C.ar      1 <0>         0.6796
      8 N2          0.3228   -1.5875    4.7029 N.pl3     1 <0>        -0.7742
      9 N3          2.9297    2.3029    4.4880 N.pl3     1 <0>        -0.7763
     10 C7          1.2783    3.3715    2.3944 C.ar      1 <0>        -0.0292
     11 C8          1.7103    3.4537    1.0701 C.ar      1 <0>         0.0144
     12 C9          1.9427    4.6852    0.4906 C.ar      1 <0>        -0.0796
     13 C10         1.7594    5.8443    1.2206 C.ar      1 <0>         0.0487
     14 C11         1.3319    5.7749    2.5498 C.ar      1 <0>        -0.0001
     15 C12         1.0912    4.5328    3.1365 C.ar      1 <0>        -0.0091
     16 N4          1.1516    6.9110    3.2659 N.1       1 <0>         0.1399
     17 N5          1.0141    7.7776    3.8120 N.1       1 <0>         0.3482
     18 Cl1         2.0609    7.3882    0.4863 Cl        1 <0>         0.0291
     19 H1         -1.6931    3.4207    2.6235 H         1 <0>         0.0633
     20 H2         -2.6477    1.9326    2.8296 H         1 <0>         0.0714
     21 H3         -2.7823    2.8753    1.3257 H         1 <0>         0.0959
     22 H4         -1.3764    0.8736    0.9717 H         1 <0>         0.1190
     23 H5         -0.4065    2.3564    0.8013 H         1 <0>         0.1167
     24 H6          0.9011   -1.9171    5.4084 H         1 <0>         0.4490
     25 H7         -0.4255   -2.1245    4.3986 H         1 <0>         0.4362
     26 H8          3.1146    3.1720    4.0989 H         1 <0>         0.4249
     27 H9          3.4974    1.9570    5.1943 H         1 <0>         0.4372
     28 H10         1.8598    2.5515    0.4955 H         1 <0>         0.1805
     29 H11         2.2733    4.7427   -0.5359 H         1 <0>         0.1927
     30 H12         0.7605    4.4729    4.1629 H         1 <0>         0.1782
     31 N6         -0.2987    0.0398    3.1501 N.ar      1 <0>        -0.5908
     32 H13        -1.0783   -0.5009    2.8339 H         1 <0>         0.4672
@<TRIPOS>BOND
     1    1    2 1
     2    1   19 1
     3    1   20 1
     4    1   21 1
     5    2    3 1
     6    2   22 1
     7    2   23 1
     8    3    4 ar
     9    3   31 ar
    10    4    5 ar
    11    4   10 1
    12    5    6 ar
    13    5    9 1
    14    6    7 ar
    15    7    8 1
    16    7   31 ar
    17    8   24 1
    18    8   25 1
    19    9   26 1
    20    9   27 1
    21   10   15 ar
    22   10   11 ar
    23   11   12 ar
    24   11   28 1
    25   12   13 ar
    26   12   29 1
    27   13   14 ar
    28   13   18 1
    29   14   15 ar
    30   14   16 1
    31   15   30 1
    32   16   17 3
    33   31   32 1
@<TRIPOS>MOLECULE
ZINC00001233
   32    33     0     0     0
SMALL
USER_CHARGES

@<TRIPOS>ATOM
      1 C1         -0.6687    1.4673    1.0653 C.3       1 <0>        -0.1731
      2 C2         -0.3851    0.0753    0.4972 C.3       1 <0>         0.4024
      3 N1         -1.5216   -0.8118    0.7711 N.pl3     1 <0>        -0.6957
      4 C3         -1.3272   -2.0840    0.9958 C.cat     1 <0>         0.7287
      5 N2         -0.0959   -2.6212    1.0299 N.2       1 <0>        -0.6361
      6 C4          0.9774   -1.8548    1.0901 C.2       1 <0>         0.7312
      7 N3          0.8089   -0.4905    1.1441 N.pl3     1 <0>        -0.5947
      8 C5          1.7401    0.3297    1.7908 C.ar      1 <0>         0.0910
      9 C6          1.6724    0.5086    3.1663 C.ar      1 <0>        -0.0872
     10 C7          2.5927    1.3187    3.8022 C.ar      1 <0>        -0.0952
     11 C8          3.5813    1.9521    3.0698 C.ar      1 <0>        -0.0119
     12 C9          3.6510    1.7755    1.6990 C.ar      1 <0>        -0.0951
     13 C10         2.7370    0.9616    1.0591 C.ar      1 <0>        -0.0941
     14 Cl1         4.7358    2.9706    3.8720 Cl        1 <0>        -0.0357
     15 N4          2.2290   -2.4049    1.0990 N.pl3     1 <0>        -0.7693
     16 N5         -2.4198   -2.9011    1.2051 N.pl3     1 <0>        -0.7913
     17 C11        -0.1569    0.1712   -1.0127 C.3       1 <0>        -0.1812
     18 H1          0.1491    2.1394    0.8053 H         1 <0>         0.1015
     19 H2         -1.5996    1.8483    0.6455 H         1 <0>         0.0996
     20 H3         -0.7575    1.4058    2.1500 H         1 <0>         0.0830
     21 H4          0.9006    0.0151    3.7383 H         1 <0>         0.1366
     22 H5          2.5405    1.4582    4.8718 H         1 <0>         0.1498
     23 H6          4.4234    2.2713    1.1297 H         1 <0>         0.1515
     24 H7          2.7948    0.8202   -0.0101 H         1 <0>         0.1442
     25 H8          2.3380   -3.3637    1.0004 H         1 <0>         0.4413
     26 H9          3.0079   -1.8365    1.2038 H         1 <0>         0.4301
     27 H10        -3.3152   -2.5286    1.1840 H         1 <0>         0.4293
     28 H11        -2.2923   -3.8479    1.3733 H         1 <0>         0.4411
     29 H12         0.6942    0.8227   -1.2108 H         1 <0>         0.0969
     30 H13         0.0447   -0.8221   -1.4135 H         1 <0>         0.0723
     31 H14        -1.0472    0.5816   -1.4893 H         1 <0>         0.0977
     32 H15        -2.4221   -0.4515    0.7857 H         1 <0>         0.4321
@<TRIPOS>BOND
     1    1    2 1
     2    1   18 1
     3    1   19 1
     4    1   20 1
     5    2    7 1
     6    2    3 1
     7    2   17 1
     8    3    4 2
     9    3   32 1
    10    4    5 1
    11    4   16 1
    12    5    6 2
    13    6    7 1
    14    6   15 1
    15    7    8 1
    16    8   13 ar
    17    8    9 ar
    18    9   10 ar
    19    9   21 1
    20   10   11 ar
    21   10   22 1
    22   11   12 ar
    23   11   14 1
    24   12   13 ar
    25   12   23 1
    26   13   24 1
    27   15   25 1
    28   15   26 1
    29   16   27 1
    30   16   28 1
    31   17   29 1
    32   17   30 1
    33   17   31 1
@<TRIPOS>MOLECULE
ZINC13520504
   37    39     0     0     0
SMALL
USER_CHARGES

@<TRIPOS>ATOM
      1 C1         -0.0166    1.3764    0.0096 C.ar      1 <0>        -0.0931
      2 C2          1.1732    2.0804    0.0020 C.ar      1 <0>        -0.1048
      3 C3          2.3746    1.4010   -0.0146 C.ar      1 <0>        -0.0932
      4 C4          2.3952    0.0141   -0.0233 C.ar      1 <0>        -0.1320
      5 C5          1.2082   -0.6871   -0.0131 C.ar      1 <0>        -0.0927
      6 C6          0.0021   -0.0041    0.0020 C.ar      1 <0>        -0.1049
      7 C7          1.1858   -2.1943   -0.0138 C.3       1 <0>        -0.1056
      8 C8          2.5543   -2.7320   -0.4341 C.3       1 <0>        -0.0060
      9 N1          3.5866   -2.0794    0.3856 N.4       1 <0>        -0.3873
     10 C9          3.7284   -0.6859   -0.0462 C.3       1 <0>         0.0485
     11 C10         4.8664   -2.7799    0.2138 C.3       1 <0>         0.0697
     12 C11         5.8922   -2.1879    1.1456 C.ar      1 <0>        -0.4024
     13 C12         6.8188   -1.2723    0.6862 C.ar      1 <0>         0.2619
     14 N2          7.7073   -0.7699    1.5308 N.ar      1 <0>        -0.5930
     15 C13         7.7175   -1.1336    2.8048 C.ar      1 <0>         0.6306
     16 N3          6.8467   -2.0086    3.2846 N.ar      1 <0>        -0.6201
     17 C14         5.9239   -2.5481    2.4944 C.ar      1 <0>         0.5079
     18 N4          5.0106   -3.4587    3.0003 N.pl3     1 <0>        -0.8357
     19 N5          8.6619   -0.5859    3.6554 N.pl3     1 <0>        -0.7996
     20 H1         -0.9583    1.9050    0.0259 H         1 <0>         0.1365
     21 H2          1.1627    3.1604    0.0088 H         1 <0>         0.1370
     22 H3          3.3033    1.9521   -0.0213 H         1 <0>         0.1336
     23 H4         -0.9272   -0.5543    0.0079 H         1 <0>         0.1348
     24 H5          0.9470   -2.5537    0.9872 H         1 <0>         0.1017
     25 H6          0.4279   -2.5451   -0.7142 H         1 <0>         0.1242
     26 H7          2.5884   -3.8099   -0.2755 H         1 <0>         0.1376
     27 H8          2.7277   -2.5087   -1.4868 H         1 <0>         0.1358
     28 H9          4.1291   -0.6628   -1.0596 H         1 <0>         0.1392
     29 H10         4.4166   -0.1703    0.6236 H         1 <0>         0.1329
     30 H11         4.7352   -3.8375    0.4425 H         1 <0>         0.1312
     31 H12         5.2051   -2.6702   -0.8164 H         1 <0>         0.1422
     32 H13         6.8192   -0.9695   -0.3505 H         1 <0>         0.1743
     33 H14         4.3428   -3.8511    2.4164 H         1 <0>         0.4043
     34 H15         5.0390   -3.7039    3.9383 H         1 <0>         0.4209
     35 H16         9.3055    0.0559    3.3166 H         1 <0>         0.4246
     36 H17         8.6801   -0.8437    4.5903 H         1 <0>         0.4224
     37 H18         3.3135   -2.1058    1.3566 H         1 <0>         0.4185
@<TRIPOS>BOND
     1    1    6 ar
     2    1    2 ar
     3    1   20 1
     4    2    3 ar
     5    2   21 1
     6    3    4 ar
     7    3   22 1
     8    4   10 1
     9    4    5 ar
    10    5    6 ar
    11    5    7 1
    12    6   23 1
    13    7    8 1
    14    7   24 1
    15    7   25 1
    16    8    9 1
    17    8   26 1
    18    8   27 1
    19    9   10 1
    20    9   11 1
    21    9   37 1
    22   10   28 1
    23   10   29 1
    24   11   12 1
    25   11   30 1
    26   11   31 1
    27   12   17 ar
    28   12   13 ar
    29   13   14 ar
    30   13   32 1
    31   14   15 ar
    32   15   16 ar
    33   15   19 1
    34   16   17 ar
    35   17   18 1
    36   18   33 1
    37   18   34 1
    38   19   35 1
    39   19   36 1
@<TRIPOS>MOLECULE
ZINC13520504
   36    38     0     0     0
SMALL
USER_CHARGES

@<TRIPOS>ATOM
      1 C1         -0.0166    1.3761    0.0096 C.ar      1 <0>        -0.1200
      2 C2          1.1733    2.0801    0.0020 C.ar      1 <0>        -0.1218
      3 C3          2.3741    1.4001   -0.0152 C.ar      1 <0>        -0.1160
      4 C4          2.3947    0.0129   -0.0236 C.ar      1 <0>        -0.0778
      5 C5          1.2082   -0.6884   -0.0124 C.ar      1 <0>        -0.0700
      6 C6          0.0021   -0.0041    0.0020 C.ar      1 <0>        -0.1213
      7 C7          1.1799   -2.1953   -0.0093 C.3       1 <0>        -0.0755
      8 C8          2.5405   -2.7438   -0.4400 C.3       1 <0>         0.0495
      9 N1          3.5848   -2.0850    0.3606 N.3       1 <0>        -0.5298
     10 C9          3.7297   -0.6842   -0.0479 C.3       1 <0>         0.0973
     11 C10         4.8629   -2.8006    0.2500 C.3       1 <0>         0.1181
     12 C11         5.8351   -2.2518    1.2623 C.ar      1 <0>        -0.3108
     13 C12         6.8020   -1.3384    0.8900 C.ar      1 <0>         0.2214
     14 N2          7.6416   -0.8745    1.8039 N.ar      1 <0>        -0.6081
     15 C13         7.5649   -1.2746    3.0647 C.ar      1 <0>         0.6047
     16 N3          6.6530   -2.1490    3.4620 N.ar      1 <0>        -0.6314
     17 C14         5.7752   -2.6509    2.5991 C.ar      1 <0>         0.5011
     18 N4          4.8187   -3.5609    3.0187 N.pl3     1 <0>        -0.8266
     19 N5          8.4605   -0.7665    3.9895 N.pl3     1 <0>        -0.8217
     20 H1         -0.9583    1.9047    0.0259 H         1 <0>         0.1216
     21 H2          1.1631    3.1600    0.0092 H         1 <0>         0.1219
     22 H3          3.3031    1.9509   -0.0226 H         1 <0>         0.1204
     23 H4         -0.9275   -0.5539    0.0073 H         1 <0>         0.1209
     24 H5          0.9477   -2.5507    0.9947 H         1 <0>         0.0834
     25 H6          0.4135   -2.5442   -0.7013 H         1 <0>         0.0786
     26 H7          2.5723   -3.8198   -0.2690 H         1 <0>         0.0813
     27 H8          2.7022   -2.5332   -1.4972 H         1 <0>         0.0417
     28 H9          4.1389   -0.6438   -1.0574 H         1 <0>         0.0484
     29 H10         4.4126   -0.1786    0.6348 H         1 <0>         0.0860
     30 H11         4.7025   -3.8621    0.4385 H         1 <0>         0.0799
     31 H12         5.2685   -2.6669   -0.7529 H         1 <0>         0.0484
     32 H13         6.8732   -1.0061   -0.1351 H         1 <0>         0.1595
     33 H14         4.1842   -3.9258    2.3822 H         1 <0>         0.4141
     34 H15         4.7835   -3.8332    3.9491 H         1 <0>         0.4047
     35 H16         9.1335   -0.1257    3.7115 H         1 <0>         0.4149
     36 H17         8.4151   -1.0512    4.9157 H         1 <0>         0.4130
@<TRIPOS>BOND
     1    1    6 ar
     2    1    2 ar
     3    1   20 1
     4    2    3 ar
     5    2   21 1
     6    3    4 ar
     7    3   22 1
     8    4   10 1
     9    4    5 ar
    10    5    6 ar
    11    5    7 1
    12    6   23 1
    13    7    8 1
    14    7   24 1
    15    7   25 1
    16    8    9 1
    17    8   26 1
    18    8   27 1
    19    9   10 1
    20    9   11 1
    21   10   28 1
    22   10   29 1
    23   11   12 1
    24   11   30 1
    25   11   31 1
    26   12   17 ar
    27   12   13 ar
    28   13   14 ar
    29   13   32 1
    30   14   15 ar
    31   15   16 ar
    32   15   19 1
    33   16   17 ar
    34   17   18 1
    35   18   33 1
    36   18   34 1
    37   19   35 1
    38   19   36 1
@<TRIPOS>MOLECULE
ZINC13520504
   37    39     0     0     0
SMALL
USER_CHARGES

@<TRIPOS>ATOM
      1 C1         -0.0166    1.3761    0.0096 C.ar      1 <0>        -0.1111
      2 C2          1.1733    2.0801    0.0020 C.ar      1 <0>        -0.1184
      3 C3          2.3741    1.4001   -0.0152 C.ar      1 <0>        -0.1164
      4 C4          2.3947    0.0129   -0.0236 C.ar      1 <0>        -0.0910
      5 C5          1.2082   -0.6884   -0.0124 C.ar      1 <0>        -0.0694
      6 C6          0.0021   -0.0041    0.0020 C.ar      1 <0>        -0.1175
      7 C7          1.1799   -2.1953   -0.0093 C.3       1 <0>        -0.0780
      8 C8          2.5405   -2.7438   -0.4400 C.3       1 <0>         0.0508
      9 N1          3.5848   -2.0850    0.3606 N.3       1 <0>        -0.5342
     10 C9          3.7297   -0.6842   -0.0479 C.3       1 <0>         0.0967
     11 C10         4.8629   -2.8006    0.2500 C.3       1 <0>         0.0959
     12 C11         5.8351   -2.2518    1.2623 C.ar      1 <0>        -0.2226
     13 C12         6.8020   -1.3384    0.8900 C.ar      1 <0>         0.2059
     14 N2          7.6416   -0.8745    1.8039 N.ar      1 <0>        -0.5722
     15 C13         7.5652   -1.2749    3.0647 C.ar      1 <0>         0.6640
     16 N3          6.6533   -2.1493    3.4619 N.ar      1 <0>        -0.5763
     17 C14         5.7752   -2.6509    2.5991 C.ar      1 <0>         0.5449
     18 N4          4.8187   -3.5609    3.0187 N.pl3     1 <0>        -0.7659
     19 N5          8.4610   -0.7671    3.9893 N.pl3     1 <0>        -0.7920
     20 H1         -0.9583    1.9047    0.0259 H         1 <0>         0.1266
     21 H2          1.1631    3.1600    0.0092 H         1 <0>         0.1254
     22 H3          3.3031    1.9509   -0.0226 H         1 <0>         0.1185
     23 H4         -0.9275   -0.5539    0.0073 H         1 <0>         0.1253
     24 H5          0.9477   -2.5507    0.9947 H         1 <0>         0.0861
     25 H6          0.4135   -2.5442   -0.7013 H         1 <0>         0.0862
     26 H7          2.5723   -3.8198   -0.2690 H         1 <0>         0.0879
     27 H8          2.7022   -2.5332   -1.4972 H         1 <0>         0.0515
     28 H9          4.1389   -0.6438   -1.0574 H         1 <0>         0.0545
     29 H10         4.4126   -0.1786    0.6348 H         1 <0>         0.0769
     30 H11         4.7025   -3.8621    0.4385 H         1 <0>         0.1031
     31 H12         5.2685   -2.6669   -0.7529 H         1 <0>         0.0721
     32 H13         6.8732   -1.0061   -0.1351 H         1 <0>         0.2114
     33 H14         4.1842   -3.9258    2.3822 H         1 <0>         0.4341
     34 H15         4.7835   -3.8332    3.9491 H         1 <0>         0.4273
     35 H16         9.1340   -0.1263    3.7113 H         1 <0>         0.4304
     36 H17         8.4159   -1.0521    4.9154 H         1 <0>         0.4449
     37 H18         8.3220   -0.2329    1.5464 H         1 <0>         0.4442
@<TRIPOS>BOND
     1    1    6 ar
     2    1    2 ar
     3    1   20 1
     4    2    3 ar
     5    2   21 1
     6    3    4 ar
     7    3   22 1
     8    4   10 1
     9    4    5 ar
    10    5    6 ar
    11    5    7 1
    12    6   23 1
    13    7    8 1
    14    7   24 1
    15    7   25 1
    16    8    9 1
    17    8   26 1
    18    8   27 1
    19    9   10 1
    20    9   11 1
    21   10   28 1
    22   10   29 1
    23   11   12 1
    24   11   30 1
    25   11   31 1
    26   12   17 ar
    27   12   13 ar
    28   13   14 ar
    29   13   32 1
    30   14   15 ar
    31   14   37 1
    32   15   16 ar
    33   15   19 1
    34   16   17 ar
    35   17   18 1
    36   18   33 1
    37   18   34 1
    38   19   35 1
    39   19   36 1
@<TRIPOS>MOLECULE
ZINC13520504
   38    40     0     0     0
SMALL
USER_CHARGES

@<TRIPOS>ATOM
      1 C1         -0.0166    1.3764    0.0096 C.ar      1 <0>        -0.0838
      2 C2          1.1732    2.0804    0.0020 C.ar      1 <0>        -0.1015
      3 C3          2.3746    1.4010   -0.0146 C.ar      1 <0>        -0.0935
      4 C4          2.3952    0.0141   -0.0233 C.ar      1 <0>        -0.1456
      5 C5          1.2082   -0.6871   -0.0131 C.ar      1 <0>        -0.0913
      6 C6          0.0021   -0.0041    0.0020 C.ar      1 <0>        -0.1009
      7 C7          1.1858   -2.1943   -0.0138 C.3       1 <0>        -0.1077
      8 C8          2.5543   -2.7320   -0.4341 C.3       1 <0>        -0.0059
      9 N1          3.5866   -2.0794    0.3856 N.4       1 <0>        -0.3919
     10 C9          3.7284   -0.6859   -0.0462 C.3       1 <0>         0.0475
     11 C10         4.8664   -2.7799    0.2138 C.3       1 <0>         0.0543
     12 C11         5.8922   -2.1879    1.1456 C.ar      1 <0>        -0.3213
     13 C12         6.8188   -1.2723    0.6862 C.ar      1 <0>         0.2726
     14 N2          7.7073   -0.7699    1.5308 N.ar      1 <0>        -0.5691
     15 C13         7.7178   -1.1340    2.8047 C.ar      1 <0>         0.6748
     16 N3          6.8470   -2.0090    3.2845 N.ar      1 <0>        -0.5603
     17 C14         5.9239   -2.5481    2.4944 C.ar      1 <0>         0.5439
     18 N4          5.0106   -3.4587    3.0003 N.pl3     1 <0>        -0.7810
     19 N5          8.6624   -0.5865    3.6552 N.pl3     1 <0>        -0.7660
     20 H1         -0.9583    1.9050    0.0259 H         1 <0>         0.1415
     21 H2          1.1627    3.1604    0.0088 H         1 <0>         0.1405
     22 H3          3.3033    1.9521   -0.0213 H         1 <0>         0.1315
     23 H4         -0.9272   -0.5543    0.0079 H         1 <0>         0.1392
     24 H5          0.9470   -2.5537    0.9872 H         1 <0>         0.1052
     25 H6          0.4279   -2.5451   -0.7142 H         1 <0>         0.1316
     26 H7          2.5884   -3.8099   -0.2755 H         1 <0>         0.1446
     27 H8          2.7277   -2.5087   -1.4868 H         1 <0>         0.1433
     28 H9          4.1291   -0.6628   -1.0596 H         1 <0>         0.1444
     29 H10         4.4166   -0.1703    0.6236 H         1 <0>         0.1240
     30 H11         4.7352   -3.8375    0.4425 H         1 <0>         0.1546
     31 H12         5.2051   -2.6702   -0.8164 H         1 <0>         0.1643
     32 H13         6.8192   -0.9695   -0.3505 H         1 <0>         0.2268
     33 H14         4.3428   -3.8511    2.4164 H         1 <0>         0.4235
     34 H15         5.0390   -3.7039    3.9383 H         1 <0>         0.4418
     35 H16         9.3061    0.0552    3.3164 H         1 <0>         0.4392
     36 H17         8.6809   -0.8446    4.5901 H         1 <0>         0.4535
     37 H18         3.3135   -2.1058    1.3566 H         1 <0>         0.4209
     38 H19         8.3597   -0.1267    1.2120 H         1 <0>         0.4562
@<TRIPOS>BOND
     1    1    6 ar
     2    1    2 ar
     3    1   20 1
     4    2    3 ar
     5    2   21 1
     6    3    4 ar
     7    3   22 1
     8    4   10 1
     9    4    5 ar
    10    5    6 ar
    11    5    7 1
    12    6   23 1
    13    7    8 1
    14    7   24 1
    15    7   25 1
    16    8    9 1
    17    8   26 1
    18    8   27 1
    19    9   10 1
    20    9   11 1
    21    9   37 1
    22   10   28 1
    23   10   29 1
    24   11   12 1
    25   11   30 1
    26   11   31 1
    27   12   17 ar
    28   12   13 ar
    29   13   14 ar
    30   13   32 1
    31   14   15 ar
    32   14   38 1
    33   15   16 ar
    34   15   19 1
    35   16   17 ar
    36   17   18 1
    37   18   33 1
    38   18   34 1
    39   19   35 1
    40   19   36 1
@<TRIPOS>MOLECULE
ZINC00000640
   43    45     0     0     0
SMALL
USER_CHARGES
8-[(2,5-dimethoxyphenyl)methyl]-7-methyl-2,4,10-triazabicyclo[4.4.0]deca-2,4,6,8,10-pentaene-3,5-diamine
@<TRIPOS>ATOM
      1 C1          3.5065    8.2770   -0.3471 C.3       1 <0>        -0.1506
      2 C2          3.5106    7.2923   -1.4879 C.ar      1 <0>         0.0340
      3 C3          3.5305    5.9421   -1.2542 C.ar      1 <0>        -0.1724
      4 C4          3.5392    5.0549   -2.3234 C.ar      1 <0>         0.2009
      5 N1          3.5174    5.4726   -3.5696 N.ar      1 <0>        -0.4888
      6 C5          3.4976    6.7731   -3.8623 C.ar      1 <0>         0.4050
      7 C6          3.4936    7.7296   -2.8172 C.ar      1 <0>        -0.2731
      8 C7          3.4719    9.1049   -3.1575 C.ar      1 <0>         0.5206
      9 N2          3.4563    9.4333   -4.4415 N.ar      1 <0>        -0.6171
     10 C8          3.4607    8.5036   -5.3924 C.ar      1 <0>         0.6192
     11 N3          3.4806    7.2104   -5.1296 N.ar      1 <0>        -0.5903
     12 N4          3.4432    8.9092   -6.7132 N.pl3     1 <0>        -0.8137
     13 N5          3.4667   10.0751   -2.1796 N.pl3     1 <0>        -0.8468
     14 C9          3.5493    5.4207    0.1596 C.3       1 <0>        -0.0189
     15 C10         3.7139    3.9228    0.1405 C.ar      1 <0>        -0.0822
     16 C11         2.6074    3.1047    0.2626 C.ar      1 <0>        -0.1082
     17 C12         2.7589    1.7263    0.2455 C.ar      1 <0>         0.0958
     18 C13         4.0221    1.1690    0.1115 C.ar      1 <0>        -0.1673
     19 C14         5.1277    1.9869   -0.0164 C.ar      1 <0>        -0.1656
     20 C15         4.9761    3.3657    0.0008 C.ar      1 <0>         0.0984
     21 O1          6.0652    4.1710   -0.1199 O.3       1 <0>        -0.3104
     22 C16         7.3342    3.5292   -0.2604 C.3       1 <0>         0.0264
     23 O2          1.6698    0.9210    0.3657 O.3       1 <0>        -0.3164
     24 C17         1.8996   -0.4891    0.3399 C.3       1 <0>         0.0270
     25 H1          4.5237    8.6214   -0.1608 H         1 <0>         0.0854
     26 H2          2.8761    9.1282   -0.6042 H         1 <0>         0.0984
     27 H3          3.1167    7.7937    0.5487 H         1 <0>         0.0825
     28 H4          3.5599    3.9935   -2.1253 H         1 <0>         0.1602
     29 H5          3.4458    8.2486   -7.4235 H         1 <0>         0.4176
     30 H6          3.4285    9.8546   -6.9301 H         1 <0>         0.4150
     31 H7          4.0336    9.9793   -1.3984 H         1 <0>         0.4180
     32 H8          2.8962   10.8541   -2.2722 H         1 <0>         0.4095
     33 H9          2.6122    5.6769    0.6538 H         1 <0>         0.0894
     34 H10         4.3809    5.8707    0.7018 H         1 <0>         0.0937
     35 H11         1.6244    3.5386    0.3718 H         1 <0>         0.1400
     36 H12         4.1407    0.0956    0.1029 H         1 <0>         0.1317
     37 H13         6.1107    1.5530   -0.1252 H         1 <0>         0.1325
     38 H14         7.3295    2.9068   -1.1552 H         1 <0>         0.0552
     39 H15         8.1156    4.2842   -0.3470 H         1 <0>         0.0995
     40 H16         7.5254    2.9070    0.6139 H         1 <0>         0.0549
     41 H17         0.9500   -1.0140    0.4447 H         1 <0>         0.1009
     42 H18         2.3642   -0.7643   -0.6070 H         1 <0>         0.0555
     43 H19         2.5598   -0.7648    1.1622 H         1 <0>         0.0547
@<TRIPOS>BOND
     1    1    2 1
     2    1   25 1
     3    1   26 1
     4    1   27 1
     5    2    7 ar
     6    2    3 ar
     7    3    4 ar
     8    3   14 1
     9    4    5 ar
    10    4   28 1
    11    5    6 ar
    12    6   11 ar
    13    6    7 ar
    14    7    8 ar
    15    8    9 ar
    16    8   13 1
    17    9   10 ar
    18   10   11 ar
    19   10   12 1
    20   12   29 1
    21   12   30 1
    22   13   31 1
    23   13   32 1
    24   14   15 1
    25   14   33 1
    26   14   34 1
    27   15   20 ar
    28   15   16 ar
    29   16   17 ar
    30   16   35 1
    31   17   18 ar
    32   17   23 1
    33   18   19 ar
    34   18   36 1
    35   19   20 ar
    36   19   37 1
    37   20   21 1
    38   21   22 1
    39   22   38 1
    40   22   39 1
    41   22   40 1
    42   23   24 1
    43   24   41 1
    44   24   42 1
    45   24   43 1
@<TRIPOS>MOLECULE
ZINC00000640
   44    46     0     0     0
SMALL
USER_CHARGES
6-[(2,5-dimethoxyphenyl)methyl]-5-methyl-pyrido[3,2-e]pyrimidine-2,4-diamine
@<TRIPOS>ATOM
      1 C1          3.5026    8.2770   -0.3471 C.3       1 <0>        -0.1623
      2 C2          3.5068    7.2922   -1.4879 C.ar      1 <0>         0.0415
      3 C3          3.5339    5.9421   -1.2542 C.ar      1 <0>        -0.1364
      4 C4          3.5435    5.0550   -2.3234 C.ar      1 <0>         0.2418
      5 N1          3.5212    5.4727   -3.5696 N.ar      1 <0>        -0.4732
      6 C5          3.4882    6.7729   -3.8622 C.ar      1 <0>         0.3969
      7 C6          3.4834    7.7294   -2.8171 C.ar      1 <0>        -0.2387
      8 C7          3.4615    9.1047   -3.1576 C.ar      1 <0>         0.5725
      9 N2          3.4329    9.4328   -4.4414 N.ar      1 <0>        -0.5726
     10 C8          3.4322    8.5030   -5.3922 C.ar      1 <0>         0.6045
     11 N3          3.4026    8.9083   -6.7128 N.pl3     1 <0>        -0.7947
     12 N4          3.4624   10.0751   -2.1798 N.pl3     1 <0>        -0.8206
     13 C9          3.5533    5.4208    0.1596 C.3       1 <0>        -0.0266
     14 C10         3.7195    3.9230    0.1404 C.ar      1 <0>        -0.1017
     15 C11         2.6139    3.1038    0.2626 C.ar      1 <0>        -0.1085
     16 C12         2.7669    1.7255    0.2455 C.ar      1 <0>         0.1008
     17 C13         4.0306    1.1696    0.1114 C.ar      1 <0>        -0.1595
     18 C14         5.1354    1.9886   -0.0165 C.ar      1 <0>        -0.1615
     19 C15         4.9823    3.3673    0.0007 C.ar      1 <0>         0.0962
     20 O1          6.0706    4.1737   -0.1201 O.3       1 <0>        -0.3165
     21 C16         7.3402    3.5333   -0.2606 C.3       1 <0>         0.0247
     22 O2          1.6786    0.9191    0.3657 O.3       1 <0>        -0.3147
     23 C17         1.9099   -0.4908    0.3399 C.3       1 <0>         0.0249
     24 H1          4.5190    8.6255   -0.1643 H         1 <0>         0.1026
     25 H2          2.8678    9.1256   -0.6021 H         1 <0>         0.0980
     26 H3          3.1178    7.7921    0.5500 H         1 <0>         0.1045
     27 H4          3.5700    3.9937   -2.1254 H         1 <0>         0.1833
     28 H5          3.4016    8.2476   -7.4231 H         1 <0>         0.4471
     29 H6          3.3829    9.8536   -6.9297 H         1 <0>         0.4240
     30 H7          4.0364    9.9808   -1.4036 H         1 <0>         0.4469
     31 H8          2.8892   10.8526   -2.2675 H         1 <0>         0.4310
     32 H9          2.6160    5.6760    0.6538 H         1 <0>         0.1032
     33 H10         4.3845    5.8716    0.7017 H         1 <0>         0.1063
     34 H11         1.6305    3.5366    0.3719 H         1 <0>         0.1418
     35 H12         4.1504    0.0963    0.1028 H         1 <0>         0.1363
     36 H13         6.1188    1.5558   -0.1254 H         1 <0>         0.1363
     37 H14         7.3361    2.9109   -1.1555 H         1 <0>         0.0572
     38 H15         8.1208    4.2891   -0.3473 H         1 <0>         0.1016
     39 H16         7.5321    2.9113    0.6136 H         1 <0>         0.0593
     40 H17         0.9609   -1.0167    0.4447 H         1 <0>         0.1049
     41 H18         2.3748   -0.7655   -0.6070 H         1 <0>         0.0575
     42 H19         2.5705   -0.7658    1.1622 H         1 <0>         0.0577
     43 N5          3.4593    7.1626   -5.1838 N.ar      1 <0>        -0.4652
     44 H20         3.4117   10.3956   -4.7111 H         1 <0>         0.4493
@<TRIPOS>BOND
     1    1    2 1
     2    1   24 1
     3    1   25 1
     4    1   26 1
     5    2    7 ar
     6    2    3 ar
     7    3   13 1
     8    3    4 ar
     9    4   27 1
    10    4    5 ar
    11    5    6 ar
    12    6    7 ar
    13    6   43 ar
    14    7    8 ar
    15    8   12 1
    16    8    9 ar
    17    9   10 ar
    18    9   44 1
    19   10   11 1
    20   10   43 ar
    21   11   28 1
    22   11   29 1
    23   12   30 1
    24   12   31 1
    25   13   14 1
    26   13   32 1
    27   13   33 1
    28   14   19 ar
    29   14   15 ar
    30   15   16 ar
    31   15   34 1
    32   16   17 ar
    33   16   22 1
    34   17   18 ar
    35   17   35 1
    36   18   19 ar
    37   18   36 1
    38   19   20 1
    39   20   21 1
    40   21   37 1
    41   21   38 1
    42   21   39 1
    43   22   23 1
    44   23   40 1
    45   23   41 1
    46   23   42 1
@<TRIPOS>MOLECULE
ZINC00000640
   44    46     0     0     0
SMALL
USER_CHARGES
8-[(2,5-dimethoxyphenyl)methyl]-7-methyl-2,4,10-triazabicyclo[4.4.0]deca-2,4,6,8,10-pentaene-3,5-diamine
@<TRIPOS>ATOM
      1 C1          3.5065    8.2770   -0.3471 C.3       1 <0>        -0.1639
      2 C2          3.5106    7.2923   -1.4879 C.ar      1 <0>         0.0541
      3 C3          3.5305    5.9421   -1.2542 C.ar      1 <0>        -0.1302
      4 C4          3.5392    5.0549   -2.3234 C.ar      1 <0>         0.2243
      5 N1          3.5174    5.4726   -3.5696 N.ar      1 <0>        -0.4980
      6 C5          3.4976    6.7731   -3.8623 C.ar      1 <0>         0.3907
      7 C6          3.4936    7.7296   -2.8172 C.ar      1 <0>        -0.2267
      8 C7          3.4719    9.1049   -3.1575 C.ar      1 <0>         0.5800
      9 N2          3.4563    9.4333   -4.4415 N.ar      1 <0>        -0.5730
     10 C8          3.4607    8.5036   -5.3924 C.ar      1 <0>         0.6920
     11 N3          3.4432    8.9092   -6.7132 N.pl3     1 <0>        -0.7812
     12 N4          3.4667   10.0751   -2.1796 N.pl3     1 <0>        -0.8037
     13 C9          3.5493    5.4207    0.1596 C.3       1 <0>        -0.0285
     14 C10         3.7139    3.9228    0.1405 C.ar      1 <0>        -0.1017
     15 C11         2.6074    3.1047    0.2626 C.ar      1 <0>        -0.1086
     16 C12         2.7589    1.7263    0.2455 C.ar      1 <0>         0.1007
     17 C13         4.0221    1.1690    0.1115 C.ar      1 <0>        -0.1597
     18 C14         5.1277    1.9869   -0.0164 C.ar      1 <0>        -0.1619
     19 C15         4.9761    3.3657    0.0008 C.ar      1 <0>         0.0960
     20 O1          6.0652    4.1710   -0.1199 O.3       1 <0>        -0.3162
     21 C16         7.3342    3.5292   -0.2604 C.3       1 <0>         0.0247
     22 O2          1.6698    0.9210    0.3657 O.3       1 <0>        -0.3147
     23 C17         1.8996   -0.4891    0.3399 C.3       1 <0>         0.0249
     24 H1          4.5237    8.6214   -0.1608 H         1 <0>         0.1055
     25 H2          2.8761    9.1282   -0.6042 H         1 <0>         0.1044
     26 H3          3.1167    7.7937    0.5487 H         1 <0>         0.1039
     27 H4          3.5599    3.9935   -2.1253 H         1 <0>         0.1849
     28 H5          3.4458    8.2486   -7.4235 H         1 <0>         0.4324
     29 H6          3.4285    9.8546   -6.9301 H         1 <0>         0.4450
     30 H7          4.0336    9.9793   -1.3984 H         1 <0>         0.4363
     31 H8          2.8962   10.8541   -2.2722 H         1 <0>         0.4301
     32 H9          2.6122    5.6769    0.6538 H         1 <0>         0.1050
     33 H10         4.3809    5.8707    0.7018 H         1 <0>         0.1083
     34 H11         1.6244    3.5386    0.3718 H         1 <0>         0.1421
     35 H12         4.1407    0.0956    0.1029 H         1 <0>         0.1364
     36 H13         6.1107    1.5530   -0.1252 H         1 <0>         0.1362
     37 H14         7.3295    2.9068   -1.1552 H         1 <0>         0.0562
     38 H15         8.1156    4.2842   -0.3470 H         1 <0>         0.1022
     39 H16         7.5254    2.9070    0.6139 H         1 <0>         0.0598
     40 H17         0.9500   -1.0140    0.4447 H         1 <0>         0.1052
     41 H18         2.3642   -0.7643   -0.6070 H         1 <0>         0.0570
     42 H19         2.5598   -0.7648    1.1622 H         1 <0>         0.0581
     43 N5          3.4808    7.1631   -5.1841 N.ar      1 <0>        -0.5882
     44 H20         3.4825    6.5360   -5.9630 H         1 <0>         0.4597
@<TRIPOS>BOND
     1    1    2 1
     2    1   24 1
     3    1   25 1
     4    1   26 1
     5    2    7 ar
     6    2    3 ar
     7    3    4 ar
     8    3   13 1
     9    4    5 ar
    10    4   27 1
    11    5    6 ar
    12    6    7 ar
    13    6   43 ar
    14    7    8 ar
    15    8    9 ar
    16    8   12 1
    17    9   10 ar
    18   10   11 1
    19   10   43 ar
    20   11   28 1
    21   11   29 1
    22   12   30 1
    23   12   31 1
    24   13   14 1
    25   13   32 1
    26   13   33 1
    27   14   19 ar
    28   14   15 ar
    29   15   16 ar
    30   15   34 1
    31   16   17 ar
    32   16   22 1
    33   17   18 ar
    34   17   35 1
    35   18   19 ar
    36   18   36 1
    37   19   20 1
    38   20   21 1
    39   21   37 1
    40   21   38 1
    41   21   39 1
    42   22   23 1
    43   23   40 1
    44   23   41 1
    45   23   42 1
    46   43   44 1
@<TRIPOS>MOLECULE
ZINC00172633
   34    36     0     0     0
SMALL
USER_CHARGES
5-(p-tolylsulfanyl)quinazoline-2,4-diamine
@<TRIPOS>ATOM
      1 C1          5.3369    7.5817    1.3063 C.3       1 <0>        -0.1227
      2 C2          4.3784    6.4493    1.0417 C.ar      1 <0>        -0.0514
      3 C3          3.9265    5.6688    2.0903 C.ar      1 <0>        -0.1313
      4 C4          3.0479    4.6306    1.8517 C.ar      1 <0>        -0.0562
      5 C5          2.6176    4.3705    0.5562 C.ar      1 <0>        -0.1704
      6 C6          3.0782    5.1532   -0.4957 C.ar      1 <0>        -0.0597
      7 C7          3.9523    6.1933   -0.2489 C.ar      1 <0>        -0.1315
      8 S1          1.4964    3.0469    0.2470 S.3       1 <0>         0.0186
      9 C8         -0.0933    3.7769    0.4578 C.ar      1 <0>        -0.0355
     10 C9         -0.2152    5.1382    0.6778 C.ar      1 <0>        -0.1596
     11 C10        -1.4649    5.7186    0.8446 C.ar      1 <0>        -0.0456
     12 C11        -2.6049    4.9694    0.7840 C.ar      1 <0>        -0.1336
     13 C12        -2.5228    3.5884    0.5693 C.ar      1 <0>         0.2429
     14 C13        -1.2530    2.9836    0.4041 C.ar      1 <0>        -0.2094
     15 C14        -1.1967    1.5884    0.1828 C.ar      1 <0>         0.5093
     16 N1         -2.3352    0.9094    0.1514 N.ar      1 <0>        -0.6112
     17 C15        -3.5078    1.5146    0.3169 C.ar      1 <0>         0.6041
     18 N2         -3.6178    2.8136    0.5205 N.ar      1 <0>        -0.5974
     19 N3         -4.6599    0.7506    0.2735 N.pl3     1 <0>        -0.8182
     20 N4          0.0125    0.9487    0.0096 N.pl3     1 <0>        -0.8335
     21 H1          6.3609    7.2149    1.2355 H         1 <0>         0.0768
     22 H2          5.1813    8.3692    0.5689 H         1 <0>         0.0709
     23 H3          5.1618    7.9799    2.3057 H         1 <0>         0.0708
     24 H4          4.2616    5.8712    3.0968 H         1 <0>         0.1294
     25 H5          2.6951    4.0218    2.6710 H         1 <0>         0.1314
     26 H6          2.7494    4.9511   -1.5044 H         1 <0>         0.1319
     27 H7          4.3070    6.8050   -1.0653 H         1 <0>         0.1295
     28 H8          0.6707    5.7545    0.7205 H         1 <0>         0.1273
     29 H9         -1.5374    6.7826    1.0151 H         1 <0>         0.1330
     30 H10        -3.5683    5.4397    0.9152 H         1 <0>         0.1392
     31 H11        -4.6021   -0.2062    0.1247 H         1 <0>         0.4137
     32 H12        -5.5258    1.1716    0.3918 H         1 <0>         0.4161
     33 H13         0.6893    1.3383   -0.5658 H         1 <0>         0.4096
     34 H14         0.1879    0.1111    0.4663 H         1 <0>         0.4126
@<TRIPOS>BOND
     1    1    2 1
     2    1   21 1
     3    1   22 1
     4    1   23 1
     5    2    7 ar
     6    2    3 ar
     7    3    4 ar
     8    3   24 1
     9    4    5 ar
    10    4   25 1
    11    5    6 ar
    12    5    8 1
    13    6    7 ar
    14    6   26 1
    15    7   27 1
    16    8    9 1
    17    9   14 ar
    18    9   10 ar
    19   10   11 ar
    20   10   28 1
    21   11   12 ar
    22   11   29 1
    23   12   13 ar
    24   12   30 1
    25   13   18 ar
    26   13   14 ar
    27   14   15 ar
    28   15   16 ar
    29   15   20 1
    30   16   17 ar
    31   17   18 ar
    32   17   19 1
    33   19   31 1
    34   19   32 1
    35   20   33 1
    36   20   34 1
@<TRIPOS>MOLECULE
ZINC00172632
   38    40     0     0     0
SMALL
USER_CHARGES

@<TRIPOS>ATOM
      1 C1         -0.0139    1.3862   -0.1720 C.ar      1 <0>         0.0215
      2 C2          1.1439    2.1064   -0.1176 C.ar      1 <0>        -0.1827
      3 C3          2.3763    1.4434   -0.0720 C.ar      1 <0>         0.2359
      4 C4          2.4057    0.0275   -0.0830 C.ar      1 <0>        -0.2218
      5 C5          1.2014   -0.6914   -0.1394 C.ar      1 <0>         0.2234
      6 C6          0.0051   -0.0028   -0.1832 C.ar      1 <0>        -0.2228
      7 O1          1.2126   -2.0485   -0.1512 O.3       1 <0>        -0.3110
      8 C7         -0.0542   -2.7072   -0.2096 C.3       1 <0>         0.0981
      9 C8          0.1554   -4.1995   -0.2144 C.ar      1 <0>        -0.0859
     10 C9          0.3067   -4.8724   -1.4124 C.ar      1 <0>        -0.0934
     11 C10         0.4990   -6.2413   -1.4167 C.ar      1 <0>        -0.0705
     12 C11         0.5404   -6.9373   -0.2231 C.ar      1 <0>        -0.1592
     13 C12         0.3899   -6.2643    0.9750 C.ar      1 <0>        -0.0703
     14 C13         0.2020   -4.8948    0.9795 C.ar      1 <0>        -0.0913
     15 C14         0.7489   -8.4298   -0.2279 C.3       1 <0>         0.5051
     16 F1          2.1184   -8.7094   -0.1684 F         1 <0>        -0.1728
     17 F2          0.1092   -8.9936    0.8812 F         1 <0>        -0.1724
     18 F3          0.2128   -8.9718   -1.4009 F         1 <0>        -0.1724
     19 C15         3.6635   -0.6191   -0.0358 C.ar      1 <0>         0.5721
     20 N1          4.7550    0.1310    0.0166 N.ar      1 <0>        -0.5985
     21 C16         4.6837    1.4592    0.0251 C.ar      1 <0>         0.6937
     22 N2          3.5384    2.1126   -0.0174 N.ar      1 <0>        -0.5870
     23 N3          5.8593    2.1856    0.0812 N.pl3     1 <0>        -0.7880
     24 N4          3.7514   -1.9948   -0.0435 N.pl3     1 <0>        -0.7648
     25 H1         -0.9608    1.9047   -0.2024 H         1 <0>         0.1592
     26 H2          1.1097    3.1859   -0.1100 H         1 <0>         0.1588
     27 H3         -0.9252   -0.5498   -0.2263 H         1 <0>         0.1562
     28 H4         -0.6500   -2.4267    0.6590 H         1 <0>         0.0945
     29 H5         -0.5763   -2.4107   -1.1193 H         1 <0>         0.0944
     30 H6          0.2744   -4.3287   -2.3450 H         1 <0>         0.1407
     31 H7          0.6165   -6.7671   -2.3528 H         1 <0>         0.1451
     32 H8          0.4219   -6.8081    1.9075 H         1 <0>         0.1450
     33 H9          0.0882   -4.3684    1.9157 H         1 <0>         0.1404
     34 H10         6.7127    1.7255    0.1134 H         1 <0>         0.4449
     35 H11         5.8305    3.1551    0.0884 H         1 <0>         0.4306
     36 H12         3.0192   -2.5256   -0.3944 H         1 <0>         0.4352
     37 H13         4.5454   -2.4321    0.3019 H         1 <0>         0.4281
     38 H14         3.5362    3.0826   -0.0091 H         1 <0>         0.4420
@<TRIPOS>BOND
     1    1    6 ar
     2    1    2 ar
     3    1   25 1
     4    2    3 ar
     5    2   26 1
     6    3   22 ar
     7    3    4 ar
     8    4    5 ar
     9    4   19 ar
    10    5    6 ar
    11    5    7 1
    12    6   27 1
    13    7    8 1
    14    8    9 1
    15    8   28 1
    16    8   29 1
    17    9   14 ar
    18    9   10 ar
    19   10   11 ar
    20   10   30 1
    21   11   12 ar
    22   11   31 1
    23   12   13 ar
    24   12   15 1
    25   13   14 ar
    26   13   32 1
    27   14   33 1
    28   15   16 1
    29   15   17 1
    30   15   18 1
    31   19   20 ar
    32   19   24 1
    33   20   21 ar
    34   21   22 ar
    35   21   23 1
    36   22   38 1
    37   23   34 1
    38   23   35 1
    39   24   36 1
    40   24   37 1
@<TRIPOS>MOLECULE
ZINC04228235
   53    55     0     0     0
SMALL
USER_CHARGES
2-[4-[(2-amino-4-oxo-5,6,7,8-tetrahydro-3H-pteridin-6-yl)methylamino]benzoyl]aminopentanedioic acid
@<TRIPOS>ATOM
      1 C1         -3.1359   -3.7188    0.2917 C.ar      1 <0>        -0.0165
      2 C2         -2.9008   -2.3630    0.2741 C.ar      1 <0>        -0.2047
      3 C3         -1.6003   -1.8822    0.1498 C.ar      1 <0>         0.2263
      4 C4         -0.5344   -2.7706    0.0368 C.ar      1 <0>        -0.2023
      5 C5         -0.7624   -4.1275    0.0590 C.ar      1 <0>        -0.0366
      6 C6         -2.0672   -4.6135    0.1841 C.ar      1 <0>        -0.1663
      7 C7         -2.3157   -6.0675    0.2032 C.2       1 <0>         0.5581
      8 O1         -3.4511   -6.4889    0.3125 O.2       1 <0>        -0.5583
      9 N1         -1.2843   -6.9289    0.0994 N.am      1 <0>        -0.6866
     10 C8         -1.5311   -8.3728    0.1183 C.3       1 <0>         0.1004
     11 H1         -2.4753   -8.5866   -0.3825 H         1 <0>         0.0853
     12 C9         -0.3939   -9.0941   -0.6078 C.3       1 <0>        -0.0860
     13 C10        -0.4027   -8.7013   -2.0865 C.3       1 <0>        -0.1528
     14 C11         0.7174   -9.4118   -2.8017 C.2       1 <0>         0.4615
     15 O2          1.4479  -10.1559   -2.1914 O.co2     1 <0>        -0.6389
     16 C12        -1.5997   -8.8520    1.5454 C.2       1 <0>         0.4646
     17 O3         -1.4571   -8.0679    2.4536 O.co2     1 <0>        -0.6390
     18 N2         -1.3659   -0.5117    0.1327 N.pl3     1 <0>        -0.7438
     19 C13         0.0021   -0.0041    0.0020 C.3       1 <0>         0.1353
     20 C14        -0.0187    1.5258    0.0104 C.3       1 <0>         0.0611
     21 H2         -0.5486    1.8882   -0.8704 H         1 <0>         0.0569
     22 C15         1.4206    2.0591   -0.0004 C.3       1 <0>         0.1311
     23 N3          1.3448    3.5291   -0.0235 N.pl3     1 <0>        -0.7126
     24 C16         0.3981    4.1431    0.7852 C.2       1 <0>         0.4325
     25 C17        -0.5998    3.3947    1.3879 C.2       1 <0>        -0.1803
     26 C18        -1.5417    4.0586    2.1905 C.2       1 <0>         0.5463
     27 O4         -2.4394    3.4368    2.7385 O.2       1 <0>        -0.5415
     28 N4         -1.4383    5.3944    2.3463 N.am      1 <0>        -0.6556
     29 H3         -2.1021    5.8828    2.9127 H         1 <0>         0.4176
     30 C19        -0.4337    6.0798    1.7354 C.2       1 <0>         0.6417
     31 N5          0.4524    5.4669    0.9809 N.2       1 <0>        -0.6022
     32 N6         -0.3436    7.4377    1.9098 N.pl3     1 <0>        -0.8251
     33 N7         -0.6945    2.0008    1.2223 N.pl3     1 <0>        -0.5904
     34 H4         -4.1450   -4.0912    0.3888 H         1 <0>         0.1327
     35 H5         -3.7261   -1.6713    0.3571 H         1 <0>         0.1196
     36 H6          0.4730   -2.3945   -0.0643 H         1 <0>         0.1224
     37 H7          0.0653   -4.8162   -0.0242 H         1 <0>         0.1274
     38 H8         -0.3786   -6.5927    0.0122 H         1 <0>         0.3899
     39 H9          0.5595   -8.8103   -0.1622 H         1 <0>         0.0567
     40 H10        -0.5307  -10.1717   -0.5173 H         1 <0>         0.0839
     41 H11        -1.3561   -8.9851   -2.5321 H         1 <0>         0.0605
     42 H12        -0.2658   -7.6237   -2.1770 H         1 <0>         0.0580
     43 H13        -2.1082    0.1082    0.2074 H         1 <0>         0.3940
     44 H14         0.4324   -0.3564   -0.9354 H         1 <0>         0.0716
     45 H15         0.6044   -0.3639    0.8362 H         1 <0>         0.0742
     46 H16         1.9448    1.7291    0.8964 H         1 <0>         0.0826
     47 H17         1.9418    1.7009   -0.8882 H         1 <0>         0.0996
     48 H18         1.9372    4.0520   -0.5861 H         1 <0>         0.4107
     49 H19        -0.9921    7.8996    2.4639 H         1 <0>         0.4137
     50 H20         0.3685    7.9358    1.4789 H         1 <0>         0.4265
     51 H21        -1.6572    1.6990    1.2413 H         1 <0>         0.3593
     52 O5          0.9037   -9.2179   -4.1168 O.co2     1 <0>        -0.7915
     53 O6         -1.8193  -10.1500    1.8077 O.co2     1 <0>        -0.7710
@<TRIPOS>BOND
     1    1    6 ar
     2    1    2 ar
     3    1   34 1
     4    2    3 ar
     5    2   35 1
     6    3    4 ar
     7    3   18 1
     8    4    5 ar
     9    4   36 1
    10    5    6 ar
    11    5   37 1
    12    6    7 1
    13    7    8 2
    14    7    9 am
    15    9   10 1
    16    9   38 1
    17   10   11 1
    18   10   12 1
    19   10   16 1
    20   12   13 1
    21   12   39 1
    22   12   40 1
    23   13   14 1
    24   13   41 1
    25   13   42 1
    26   14   15 2
    27   14   52 1
    28   16   17 2
    29   16   53 1
    30   18   19 1
    31   18   43 1
    32   19   20 1
    33   19   44 1
    34   19   45 1
    35   20   21 1
    36   20   33 1
    37   20   22 1
    38   22   23 1
    39   22   46 1
    40   22   47 1
    41   23   24 1
    42   23   48 1
    43   24   31 1
    44   24   25 2
    45   25   26 1
    46   25   33 1
    47   26   27 2
    48   26   28 am
    49   28   29 1
    50   28   30 1
    51   30   31 2
    52   30   32 1
    53   32   49 1
    54   32   50 1
    55   33   51 1
@<TRIPOS>MOLECULE
ZINC04228237
   53    55     0     0     0
SMALL
USER_CHARGES
2-[4-[(2-amino-4-oxo-5,6,7,8-tetrahydro-3H-pteridin-6-yl)methylamino]benzoyl]aminopentanedioic acid
@<TRIPOS>ATOM
      1 C1         -0.2721   -3.2306    2.6490 C.ar      1 <0>        -0.0363
      2 C2         -0.3444   -4.6040    2.6976 C.ar      1 <0>        -0.2077
      3 C3          0.6296   -5.3301    3.3776 C.ar      1 <0>         0.2274
      4 C4          1.6824   -4.6702    4.0054 C.ar      1 <0>        -0.2044
      5 C5          1.7631   -3.2973    3.9559 C.ar      1 <0>        -0.0158
      6 C6          0.7867   -2.5654    3.2739 C.ar      1 <0>        -0.1692
      7 C7          0.8703   -1.0935    3.2189 C.2       1 <0>         0.5585
      8 O1          1.7891   -0.5158    3.7671 O.2       1 <0>        -0.5586
      9 N1         -0.0718   -0.3892    2.5610 N.am      1 <0>        -0.6871
     10 C8          0.0111    1.0724    2.5063 C.3       1 <0>         0.1004
     11 H1          1.0569    1.3753    2.4543 H         1 <0>         0.0852
     12 C9         -0.7288    1.5792    1.2668 C.3       1 <0>        -0.0857
     13 C10        -0.0127    1.0858    0.0080 C.3       1 <0>        -0.1529
     14 C11        -0.7416    1.5850   -1.2129 C.2       1 <0>         0.4616
     15 O2         -1.7322    2.2656   -1.0889 O.co2     1 <0>        -0.6393
     16 C12        -0.6205    1.6580    3.7429 C.2       1 <0>         0.4649
     17 O3         -1.0916    0.9292    4.5836 O.co2     1 <0>        -0.6395
     18 N2          0.5509   -6.7174    3.4295 N.pl3     1 <0>        -0.7358
     19 C13        -0.5564   -7.4134    2.7693 C.3       1 <0>         0.1328
     20 C14        -0.4067   -8.9219    2.9769 C.3       1 <0>         0.0680
     21 H2         -0.5137   -9.1567    4.0359 H         1 <0>         0.0967
     22 C15        -1.4860   -9.6604    2.1734 C.3       1 <0>         0.0921
     23 N3         -1.3177  -11.1002    2.4295 N.pl3     1 <0>        -0.7091
     24 C16        -0.0260  -11.6079    2.4590 C.2       1 <0>         0.4340
     25 C17         1.0622  -10.7519    2.5070 C.2       1 <0>        -0.1948
     26 C18         2.3504  -11.3093    2.5531 C.2       1 <0>         0.5591
     27 O4          3.3371  -10.5904    2.5989 O.2       1 <0>        -0.5273
     28 N4          2.4796  -12.6519    2.5455 N.am      1 <0>        -0.6607
     29 H3          3.3896  -13.0651    2.5808 H         1 <0>         0.4161
     30 C19         1.3759  -13.4462    2.4900 C.2       1 <0>         0.6530
     31 N5          0.1654  -12.9334    2.4479 N.2       1 <0>        -0.6113
     32 N6          1.5291  -14.8096    2.4771 N.pl3     1 <0>        -0.8243
     33 N7          0.9150   -9.3527    2.5097 N.pl3     1 <0>        -0.5878
     34 H4         -1.0304   -2.6676    2.1252 H         1 <0>         0.1261
     35 H5         -1.1599   -5.1188    2.2116 H         1 <0>         0.1203
     36 H6          2.4365   -5.2362    4.5321 H         1 <0>         0.1205
     37 H7          2.5801   -2.7859    4.4431 H         1 <0>         0.1321
     38 H8         -0.8048   -0.8501    2.1237 H         1 <0>         0.3897
     39 H9         -0.7436    2.6691    1.2728 H         1 <0>         0.0837
     40 H10        -1.7514    1.2020    1.2746 H         1 <0>         0.0565
     41 H11         0.0021   -0.0041    0.0020 H         1 <0>         0.0581
     42 H12         1.0099    1.4631    0.0003 H         1 <0>         0.0606
     43 H13         1.2291   -7.2243    3.9027 H         1 <0>         0.4075
     44 H14        -1.5018   -7.0798    3.1971 H         1 <0>         0.0719
     45 H15        -0.5415   -7.1902    1.7026 H         1 <0>         0.0636
     46 H16        -2.4753   -9.3391    2.4992 H         1 <0>         0.0985
     47 H17        -1.3608   -9.4566    1.1100 H         1 <0>         0.0729
     48 H18        -2.0851  -11.6760    2.5729 H         1 <0>         0.4101
     49 H19         0.7491  -15.3849    2.4373 H         1 <0>         0.4265
     50 H20         2.4173  -15.1982    2.5078 H         1 <0>         0.4143
     51 H21         1.1213   -8.9657    1.6010 H         1 <0>         0.3476
     52 O5         -0.2903    1.2736   -2.4381 O.co2     1 <0>        -0.7913
     53 O6         -0.6597    2.9892    3.9104 O.co2     1 <0>        -0.7711
@<TRIPOS>BOND
     1    1    6 ar
     2    1    2 ar
     3    1   34 1
     4    2    3 ar
     5    2   35 1
     6    3    4 ar
     7    3   18 1
     8    4    5 ar
     9    4   36 1
    10    5    6 ar
    11    5   37 1
    12    6    7 1
    13    7    8 2
    14    7    9 am
    15    9   10 1
    16    9   38 1
    17   10   11 1
    18   10   12 1
    19   10   16 1
    20   12   13 1
    21   12   39 1
    22   12   40 1
    23   13   14 1
    24   13   41 1
    25   13   42 1
    26   14   15 2
    27   14   52 1
    28   16   17 2
    29   16   53 1
    30   18   19 1
    31   18   43 1
    32   19   20 1
    33   19   44 1
    34   19   45 1
    35   20   21 1
    36   20   33 1
    37   20   22 1
    38   22   23 1
    39   22   46 1
    40   22   47 1
    41   23   24 1
    42   23   48 1
    43   24   31 1
    44   24   25 2
    45   25   26 1
    46   25   33 1
    47   26   27 2
    48   26   28 am
    49   28   29 1
    50   28   30 1
    51   30   31 2
    52   30   32 1
    53   32   49 1
    54   32   50 1
    55   33   51 1
@<TRIPOS>MOLECULE
ZINC01618702
   57    59     0     0     0
SMALL
USER_CHARGES
2-[4-[1-[(2,4-diaminopteridin-6-yl)methyl]propyl]benzoyl]aminopentanedioic acid
@<TRIPOS>ATOM
      1 C1          0.0615   -8.7000    1.5086 C.3       1 <0>        -0.1538
      2 C2         -0.0667   -7.1827    1.3590 C.3       1 <0>        -0.1166
      3 C3          1.1674   -6.6351    0.6393 C.3       1 <0>        -0.0405
      4 H1          2.0667   -6.9548    1.1657 H         1 <0>         0.0790
      5 C4          1.1995   -7.1673   -0.7948 C.3       1 <0>        -0.0559
      6 C5          2.4812   -6.7383   -1.4613 C.ar      1 <0>         0.0469
      7 C6          3.6401   -7.4923   -1.2791 C.ar      1 <0>         0.1376
      8 N1          4.7701   -7.1404   -1.8549 N.ar      1 <0>        -0.4464
      9 C7          4.8088   -6.0425   -2.6138 C.ar      1 <0>         0.3677
     10 C8          3.6294   -5.2769   -2.7912 C.ar      1 <0>        -0.0823
     11 N2          2.4972   -5.6527   -2.2051 N.ar      1 <0>        -0.3622
     12 C9          3.7110   -4.0802   -3.6304 C.ar      1 <0>         0.5464
     13 N3          4.8846   -3.7871   -4.1733 N.ar      1 <0>        -0.6317
     14 C10         5.9519   -4.5512   -3.9636 C.ar      1 <0>         0.6397
     15 N4          5.9331   -5.6379   -3.2176 N.ar      1 <0>        -0.6115
     16 N5          7.1444   -4.1874   -4.5596 N.pl3     1 <0>        -0.8115
     17 N6          2.6064   -3.2865   -3.8494 N.pl3     1 <0>        -0.7787
     18 C11         1.1080   -5.1295    0.6151 C.ar      1 <0>        -0.0638
     19 C12         2.1142   -4.3908    1.2119 C.ar      1 <0>        -0.1272
     20 C13         2.0654   -3.0122    1.1942 C.ar      1 <0>        -0.0643
     21 C14         0.9980   -2.3628    0.5719 C.ar      1 <0>        -0.1096
     22 C15        -0.0162   -3.1140   -0.0241 C.ar      1 <0>        -0.0845
     23 C16         0.0472   -4.4919   -0.0034 C.ar      1 <0>        -0.1110
     24 C17         0.9390   -0.8857    0.5494 C.2       1 <0>         0.5512
     25 O1          1.8211   -0.2341    1.0737 O.2       1 <0>        -0.5511
     26 N7         -0.0930   -0.2616   -0.0522 N.am      1 <0>        -0.6824
     27 C18        -0.1515    1.2021   -0.0745 C.3       1 <0>         0.0999
     28 H2          0.8576    1.6048   -0.1615 H         1 <0>         0.0853
     29 C19        -0.9886    1.6609   -1.2702 C.3       1 <0>        -0.0865
     30 C20        -0.2833    1.2643   -2.5687 C.3       1 <0>        -0.1515
     31 C21        -1.1078    1.7162   -3.7464 C.2       1 <0>         0.4612
     32 O2         -2.1523    2.2961   -3.5657 O.co2     1 <0>        -0.6377
     33 C22        -0.7825    1.6990    1.2007 C.2       1 <0>         0.4647
     34 O3         -1.1459    0.9114    2.0418 O.co2     1 <0>        -0.6393
     35 H3         -0.7664   -9.0772    2.1088 H         1 <0>         0.0532
     36 H4          0.0377   -9.1656    0.5233 H         1 <0>         0.0562
     37 H5          1.0048   -8.9382    2.0003 H         1 <0>         0.0542
     38 H6         -0.1447   -6.7257    2.3455 H         1 <0>         0.0685
     39 H7         -0.9593   -6.9490    0.7787 H         1 <0>         0.0690
     40 H8          1.1445   -8.2558   -0.7797 H         1 <0>         0.0888
     41 H9          0.3503   -6.7683   -1.3495 H         1 <0>         0.0896
     42 H10         3.6089   -8.3780   -0.6619 H         1 <0>         0.1737
     43 H11         7.9389   -4.7270   -4.4239 H         1 <0>         0.4154
     44 H12         7.1868   -3.3924   -5.1138 H         1 <0>         0.4160
     45 H13         1.7557   -3.5170   -3.4444 H         1 <0>         0.4284
     46 H14         2.6795   -2.4973   -4.4085 H         1 <0>         0.4218
     47 H15         2.9395   -4.8946    1.6931 H         1 <0>         0.1159
     48 H16         2.8514   -2.4368    1.6604 H         1 <0>         0.1291
     49 H17        -0.8471   -2.6175   -0.5033 H         1 <0>         0.1271
     50 H18        -0.7351   -5.0743   -0.4675 H         1 <0>         0.1232
     51 H19        -0.7969   -0.7815   -0.4706 H         1 <0>         0.3906
     52 H20        -1.9695    1.1873   -1.2301 H         1 <0>         0.0574
     53 H21        -1.1065    2.7440   -1.2369 H         1 <0>         0.0850
     54 H22         0.6976    1.7379   -2.6087 H         1 <0>         0.0599
     55 H23        -0.1654    0.1812   -2.6019 H         1 <0>         0.0559
     56 O4         -0.6818    1.4746   -4.9962 O.co2     1 <0>        -0.7904
     57 O5         -0.9406    3.0166    1.4021 O.co2     1 <0>        -0.7683
@<TRIPOS>BOND
     1    1    2 1
     2    1   35 1
     3    1   36 1
     4    1   37 1
     5    2    3 1
     6    2   38 1
     7    2   39 1
     8    3    4 1
     9    3    5 1
    10    3   18 1
    11    5    6 1
    12    5   40 1
    13    5   41 1
    14    6   11 ar
    15    6    7 ar
    16    7    8 ar
    17    7   42 1
    18    8    9 ar
    19    9   15 ar
    20    9   10 ar
    21   10   11 ar
    22   10   12 ar
    23   12   13 ar
    24   12   17 1
    25   13   14 ar
    26   14   15 ar
    27   14   16 1
    28   16   43 1
    29   16   44 1
    30   17   45 1
    31   17   46 1
    32   18   23 ar
    33   18   19 ar
    34   19   20 ar
    35   19   47 1
    36   20   21 ar
    37   20   48 1
    38   21   22 ar
    39   21   24 1
    40   22   23 ar
    41   22   49 1
    42   23   50 1
    43   24   25 2
    44   24   26 am
    45   26   27 1
    46   26   51 1
    47   27   28 1
    48   27   29 1
    49   27   33 1
    50   29   30 1
    51   29   52 1
    52   29   53 1
    53   30   31 1
    54   30   54 1
    55   30   55 1
    56   31   32 2
    57   31   56 1
    58   33   34 2
    59   33   57 1
@<TRIPOS>MOLECULE
ZINC13220172
   57    59     0     0     0
SMALL
USER_CHARGES
(2S)-2-[[4-[(1R)-1-[(2,4-diaminopteridin-6-yl)methyl]propyl]benzoyl]amino]pentanedioic acid
@<TRIPOS>ATOM
      1 C1          2.5193   -6.4993   -1.3898 C.3       1 <0>        -0.1532
      2 C2          1.1683   -6.9243   -0.8111 C.3       1 <0>        -0.1123
      3 C3          1.0500   -6.4225    0.6295 C.3       1 <0>        -0.0385
      4 H1          1.9021   -6.7775    1.2090 H         1 <0>         0.0796
      5 C4         -0.2447   -6.9523    1.2493 C.3       1 <0>        -0.0598
      6 C5         -0.1733   -8.4539    1.3548 C.ar      1 <0>         0.0634
      7 C6          0.4467   -9.0399    2.4579 C.ar      1 <0>         0.1446
      8 N1          0.5170  -10.3490    2.5747 N.ar      1 <0>        -0.4416
      9 C7         -0.0028  -11.1243    1.6198 C.ar      1 <0>         0.3639
     10 C8         -0.6271  -10.5235    0.4983 C.ar      1 <0>        -0.0871
     11 N2         -0.6921   -9.1994    0.4023 N.ar      1 <0>        -0.3775
     12 C9         -1.1856  -11.4062   -0.5275 C.ar      1 <0>         0.5427
     13 N3         -1.0728  -12.7142   -0.3427 N.ar      1 <0>        -0.6314
     14 C10        -0.4730  -13.2097    0.7351 C.ar      1 <0>         0.6348
     15 N4          0.0461  -12.4605    1.6874 N.ar      1 <0>        -0.6029
     16 N5         -0.3897  -14.5829    0.8644 N.pl3     1 <0>        -0.8118
     17 N6         -1.8076  -10.8953   -1.6455 N.pl3     1 <0>        -0.7915
     18 C11         1.0304   -4.9157    0.6365 C.ar      1 <0>        -0.0681
     19 C12         2.0110   -4.2173    1.3184 C.ar      1 <0>        -0.1251
     20 C13         1.9983   -2.8379    1.3296 C.ar      1 <0>        -0.0629
     21 C14         0.9936   -2.1468    0.6506 C.ar      1 <0>        -0.1085
     22 C15         0.0046   -2.8574   -0.0314 C.ar      1 <0>        -0.0825
     23 C16         0.0316   -4.2367   -0.0386 C.ar      1 <0>        -0.1203
     24 C17         0.9736   -0.6685    0.6587 C.2       1 <0>         0.5509
     25 O1          1.8333   -0.0523    1.2576 O.2       1 <0>        -0.5506
     26 N7          0.0021   -0.0041    0.0020 N.am      1 <0>        -0.6824
     27 C18        -0.0178    1.4608    0.0101 C.3       1 <0>         0.0993
     28 H2          1.0048    1.8381    0.0023 H         1 <0>         0.0864
     29 C19        -0.7578    1.9676   -1.2295 C.3       1 <0>        -0.0863
     30 C20         0.0259    1.5803   -2.4852 C.3       1 <0>        -0.1530
     31 C21        -0.7030    2.0796   -3.7061 C.2       1 <0>         0.4613
     32 O2         -1.7426    2.6832   -3.5843 O.co2     1 <0>        -0.6385
     33 C22        -0.7232    1.9468    1.2500 C.2       1 <0>         0.4651
     34 O3         -1.1640    1.1512    2.0453 O.co2     1 <0>        -0.6396
     35 H3          2.6036   -6.8568   -2.4161 H         1 <0>         0.0500
     36 H4          2.5944   -5.4119   -1.3765 H         1 <0>         0.0629
     37 H5          3.3224   -6.9263   -0.7892 H         1 <0>         0.0488
     38 H6          1.0932   -8.0117   -0.8244 H         1 <0>         0.0585
     39 H7          0.3652   -6.4973   -1.4117 H         1 <0>         0.0693
     40 H8         -0.3734   -6.5240    2.2433 H         1 <0>         0.0936
     41 H9         -1.0898   -6.6720    0.6206 H         1 <0>         0.0924
     42 H10         0.8704   -8.4120    3.2278 H         1 <0>         0.1815
     43 H11         0.0423  -14.9716    1.6411 H         1 <0>         0.4175
     44 H12        -0.7633  -15.1582    0.1786 H         1 <0>         0.4147
     45 H13        -1.8815   -9.9354   -1.7634 H         1 <0>         0.4278
     46 H14        -2.1718  -11.4956   -2.3148 H         1 <0>         0.4146
     47 H15         2.7878   -4.7533    1.8435 H         1 <0>         0.1225
     48 H16         2.7639   -2.2939    1.8629 H         1 <0>         0.1337
     49 H17        -0.7780   -2.3286   -0.5550 H         1 <0>         0.1284
     50 H18        -0.7309   -4.7878   -0.5690 H         1 <0>         0.1242
     51 H19        -0.6840   -0.4958   -0.4759 H         1 <0>         0.3911
     52 H20        -1.7507    1.5197   -1.2683 H         1 <0>         0.0573
     53 H21        -0.8503    3.0525   -1.1791 H         1 <0>         0.0851
     54 H22         1.0188    2.0283   -2.4463 H         1 <0>         0.0607
     55 H23         0.1184    0.4954   -2.5355 H         1 <0>         0.0572
     56 O4         -0.1973    1.8537   -4.9287 O.co2     1 <0>        -0.7904
     57 O5         -0.8617    3.2635    1.4708 O.co2     1 <0>        -0.7683
@<TRIPOS>BOND
     1    1    2 1
     2    1   35 1
     3    1   36 1
     4    1   37 1
     5    2    3 1
     6    2   38 1
     7    2   39 1
     8    3    4 1
     9    3    5 1
    10    3   18 1
    11    5    6 1
    12    5   40 1
    13    5   41 1
    14    6   11 ar
    15    6    7 ar
    16    7    8 ar
    17    7   42 1
    18    8    9 ar
    19    9   15 ar
    20    9   10 ar
    21   10   11 ar
    22   10   12 ar
    23   12   13 ar
    24   12   17 1
    25   13   14 ar
    26   14   15 ar
    27   14   16 1
    28   16   43 1
    29   16   44 1
    30   17   45 1
    31   17   46 1
    32   18   23 ar
    33   18   19 ar
    34   19   20 ar
    35   19   47 1
    36   20   21 ar
    37   20   48 1
    38   21   22 ar
    39   21   24 1
    40   22   23 ar
    41   22   49 1
    42   23   50 1
    43   24   25 2
    44   24   26 am
    45   26   27 1
    46   26   51 1
    47   27   28 1
    48   27   29 1
    49   27   33 1
    50   29   30 1
    51   29   52 1
    52   29   53 1
    53   30   31 1
    54   30   54 1
    55   30   55 1
    56   31   32 2
    57   31   56 1
    58   33   34 2
    59   33   57 1
