@<TRIPOS>MOLECULE
ZINC01529323
   53    55     0     0     0
SMALL
USER_CHARGES

@<TRIPOS>ATOM
      1 C1         -0.0178    1.4608    0.0101 C.3       1 <0>         0.0943
      2 N1          0.0021   -0.0041    0.0020 N.pl3     1 <0>        -0.6229
      3 C2          0.0241   -0.7433    1.2666 C.3       1 <0>         0.1846
      4 C3         -1.3889   -1.0161    1.7137 C.ar      1 <0>         0.0299
      5 C4         -1.9892   -2.2351    1.3999 C.ar      1 <0>         0.1556
      6 N2         -3.2219   -2.4965    1.7797 N.ar      1 <0>        -0.4373
      7 C5         -3.9051   -1.5830    2.4739 C.ar      1 <0>         0.3718
      8 C6         -3.2902   -0.3458    2.7901 C.ar      1 <0>        -0.0918
      9 N3         -2.0425   -0.1038    2.4012 N.ar      1 <0>        -0.3728
     10 C7         -4.0706    0.6301    3.5527 C.ar      1 <0>         0.5432
     11 N4         -5.3055    0.2953    3.9004 N.ar      1 <0>        -0.6300
     12 C8         -5.8196   -0.8850    3.5693 C.ar      1 <0>         0.6362
     13 N5         -5.1609   -1.7987    2.8845 N.ar      1 <0>        -0.5990
     14 N6         -7.1130   -1.1692    3.9639 N.pl3     1 <0>        -0.8099
     15 N7         -3.5402    1.8539    3.8976 N.pl3     1 <0>        -0.7943
     16 C9          0.0000   -0.6928   -1.2059 C.ar      1 <0>         0.2179
     17 C10         0.0132   -2.0849   -1.2118 C.ar      1 <0>        -0.2113
     18 C11         0.0112   -2.7693   -2.4056 C.ar      1 <0>        -0.0159
     19 C12        -0.0041   -2.0653   -3.6133 C.ar      1 <0>        -0.1590
     20 C13        -0.0173   -0.6674   -3.6040 C.ar      1 <0>        -0.0366
     21 C14        -0.0210    0.0112   -2.4068 C.ar      1 <0>        -0.1985
     22 C15        -0.0058   -2.7960   -4.8948 C.2       1 <0>         0.5556
     23 O1          0.0061   -4.0119   -4.9015 O.2       1 <0>        -0.5600
     24 N8         -0.0205   -2.1158   -6.0583 N.am      1 <0>        -0.6793
     25 C16        -0.0222   -2.8414   -7.3310 C.3       1 <0>         0.0733
     26 H1         -0.6020   -3.7584   -7.2256 H         1 <0>         0.0773
     27 C17        -0.6480   -1.9644   -8.4172 C.3       1 <0>        -0.0801
     28 C18        -2.1222   -1.7198   -8.0888 C.3       1 <0>        -0.1777
     29 C19        -2.7386   -0.8559   -9.1588 C.2       1 <0>         0.4909
     30 O2         -2.0616   -0.4715  -10.0971 O.co2     1 <0>        -0.6975
     31 O3         -3.9143   -0.5414   -9.0862 O.co2     1 <0>        -0.7207
     32 C20         1.3940   -3.1839   -7.7158 C.2       1 <0>         0.4958
     33 O4          2.3190   -2.8526   -6.9939 O.co2     1 <0>        -0.6970
     34 O5          1.6147   -3.7923   -8.7491 O.co2     1 <0>        -0.7014
     35 H2          1.0048    1.8381    0.0023 H         1 <0>         0.0502
     36 H3         -0.5450    1.8219   -0.8730 H         1 <0>         0.0690
     37 H4         -0.5280    1.8123    0.9069 H         1 <0>         0.0657
     38 H5          0.5496   -1.6879    1.1262 H         1 <0>         0.1015
     39 H6          0.5371   -0.1514    2.0246 H         1 <0>         0.0948
     40 H7         -1.4361   -2.9733    0.8382 H         1 <0>         0.1815
     41 H8         -7.6209   -0.5150    4.4689 H         1 <0>         0.4148
     42 H9         -7.5132   -2.0229    3.7358 H         1 <0>         0.4190
     43 H10        -2.6346    2.0814    3.6347 H         1 <0>         0.4250
     44 H11        -4.0722    2.4880    4.4032 H         1 <0>         0.4139
     45 H12         0.0253   -2.6282   -0.2785 H         1 <0>         0.1208
     46 H13         0.0217   -3.8493   -2.4096 H         1 <0>         0.1351
     47 H14        -0.0287   -0.1208   -4.5353 H         1 <0>         0.1282
     48 H15        -0.0359    1.0910   -2.3989 H         1 <0>         0.1244
     49 H16        -0.0300   -1.1459   -6.0530 H         1 <0>         0.3877
     50 H17        -0.1225   -1.0104   -8.4615 H         1 <0>         0.0543
     51 H18        -0.5691   -2.4677   -9.3808 H         1 <0>         0.0783
     52 H19        -2.6477   -2.6737   -8.0445 H         1 <0>         0.0522
     53 H20        -2.2011   -1.2164   -7.1252 H         1 <0>         0.0501
@<TRIPOS>BOND
     1    1    2 1
     2    1   35 1
     3    1   36 1
     4    1   37 1
     5    2    3 1
     6    2   16 1
     7    3    4 1
     8    3   38 1
     9    3   39 1
    10    4    9 ar
    11    4    5 ar
    12    5    6 ar
    13    5   40 1
    14    6    7 ar
    15    7   13 ar
    16    7    8 ar
    17    8    9 ar
    18    8   10 ar
    19   10   11 ar
    20   10   15 1
    21   11   12 ar
    22   12   13 ar
    23   12   14 1
    24   14   41 1
    25   14   42 1
    26   15   43 1
    27   15   44 1
    28   16   21 ar
    29   16   17 ar
    30   17   18 ar
    31   17   45 1
    32   18   19 ar
    33   18   46 1
    34   19   20 ar
    35   19   22 1
    36   20   21 ar
    37   20   47 1
    38   21   48 1
    39   22   23 2
    40   22   24 am
    41   24   25 1
    42   24   49 1
    43   25   26 1
    44   25   27 1
    45   25   32 1
    46   27   28 1
    47   27   50 1
    48   27   51 1
    49   28   29 1
    50   28   52 1
    51   28   53 1
    52   29   30 2
    53   29   31 1
    54   32   33 2
    55   32   34 1
@<TRIPOS>MOLECULE
ZINC06920406
   53    55     0     0     0
SMALL
USER_CHARGES

@<TRIPOS>ATOM
      1 C1         -0.0178    1.4608    0.0101 C.3       1 <0>         0.0941
      2 N1          0.0021   -0.0041    0.0020 N.pl3     1 <0>        -0.6227
      3 C2          0.0241   -0.7433    1.2666 C.3       1 <0>         0.1846
      4 C3         -1.3889   -1.0161    1.7137 C.ar      1 <0>         0.0297
      5 C4         -1.9892   -2.2351    1.3999 C.ar      1 <0>         0.1557
      6 N2         -3.2219   -2.4965    1.7797 N.ar      1 <0>        -0.4368
      7 C5         -3.9051   -1.5830    2.4739 C.ar      1 <0>         0.3719
      8 C6         -3.2902   -0.3458    2.7901 C.ar      1 <0>        -0.0918
      9 N3         -2.0425   -0.1038    2.4012 N.ar      1 <0>        -0.3728
     10 C7         -4.0706    0.6301    3.5527 C.ar      1 <0>         0.5431
     11 N4         -5.3055    0.2953    3.9004 N.ar      1 <0>        -0.6300
     12 C8         -5.8196   -0.8850    3.5693 C.ar      1 <0>         0.6360
     13 N5         -5.1609   -1.7987    2.8845 N.ar      1 <0>        -0.5986
     14 N6         -7.1130   -1.1692    3.9639 N.pl3     1 <0>        -0.8100
     15 N7         -3.5402    1.8539    3.8976 N.pl3     1 <0>        -0.7944
     16 C9          0.0000   -0.6928   -1.2059 C.ar      1 <0>         0.2189
     17 C10         0.0132   -2.0849   -1.2118 C.ar      1 <0>        -0.2116
     18 C11         0.0112   -2.7693   -2.4056 C.ar      1 <0>        -0.0155
     19 C12        -0.0041   -2.0653   -3.6133 C.ar      1 <0>        -0.1616
     20 C13        -0.0173   -0.6674   -3.6040 C.ar      1 <0>        -0.0356
     21 C14        -0.0210    0.0112   -2.4068 C.ar      1 <0>        -0.1983
     22 C15        -0.0058   -2.7960   -4.8948 C.2       1 <0>         0.5487
     23 O1          0.0061   -4.0119   -4.9015 O.2       1 <0>        -0.5585
     24 N8         -0.0205   -2.1158   -6.0583 N.am      1 <0>        -0.6789
     25 C16        -0.0222   -2.8414   -7.3310 C.3       1 <0>         0.0745
     26 H1          0.5768   -3.7469   -7.2338 H         1 <0>         0.0773
     27 C17         0.5711   -1.9524   -8.4257 C.3       1 <0>        -0.0822
     28 C18         2.0446   -1.6789   -8.1177 C.3       1 <0>        -0.1766
     29 C19         2.6291   -0.8032   -9.1959 C.2       1 <0>         0.4909
     30 O2          1.9317   -0.4323  -10.1247 O.co2     1 <0>        -0.6980
     31 O3          3.7993   -0.4657   -9.1396 O.co2     1 <0>        -0.7201
     32 C20        -1.4367   -3.2117   -7.6962 C.2       1 <0>         0.4981
     33 O4         -2.3634   -2.5041   -7.3399 O.co2     1 <0>        -0.6991
     34 O5         -1.6542   -4.2188   -8.3480 O.co2     1 <0>        -0.7022
     35 H2          1.0048    1.8381    0.0023 H         1 <0>         0.0507
     36 H3         -0.5450    1.8219   -0.8730 H         1 <0>         0.0690
     37 H4         -0.5280    1.8123    0.9069 H         1 <0>         0.0658
     38 H5          0.5496   -1.6879    1.1262 H         1 <0>         0.1014
     39 H6          0.5371   -0.1514    2.0246 H         1 <0>         0.0950
     40 H7         -1.4361   -2.9733    0.8382 H         1 <0>         0.1814
     41 H8         -7.6209   -0.5150    4.4689 H         1 <0>         0.4147
     42 H9         -7.5132   -2.0229    3.7358 H         1 <0>         0.4190
     43 H10        -2.6346    2.0814    3.6347 H         1 <0>         0.4250
     44 H11        -4.0722    2.4880    4.4032 H         1 <0>         0.4139
     45 H12         0.0253   -2.6282   -0.2785 H         1 <0>         0.1211
     46 H13         0.0217   -3.8493   -2.4096 H         1 <0>         0.1354
     47 H14        -0.0287   -0.1208   -4.5353 H         1 <0>         0.1292
     48 H15        -0.0359    1.0910   -2.3989 H         1 <0>         0.1249
     49 H16        -0.0300   -1.1459   -6.0530 H         1 <0>         0.3899
     50 H17         0.4888   -2.4573   -9.3882 H         1 <0>         0.0717
     51 H18         0.0264   -1.0090   -8.4626 H         1 <0>         0.0594
     52 H19         2.1270   -1.1740   -7.1552 H         1 <0>         0.0514
     53 H20         2.5893   -2.6223   -8.0808 H         1 <0>         0.0527
@<TRIPOS>BOND
     1    1    2 1
     2    1   35 1
     3    1   36 1
     4    1   37 1
     5    2    3 1
     6    2   16 1
     7    3    4 1
     8    3   38 1
     9    3   39 1
    10    4    9 ar
    11    4    5 ar
    12    5    6 ar
    13    5   40 1
    14    6    7 ar
    15    7   13 ar
    16    7    8 ar
    17    8    9 ar
    18    8   10 ar
    19   10   11 ar
    20   10   15 1
    21   11   12 ar
    22   12   13 ar
    23   12   14 1
    24   14   41 1
    25   14   42 1
    26   15   43 1
    27   15   44 1
    28   16   21 ar
    29   16   17 ar
    30   17   18 ar
    31   17   45 1
    32   18   19 ar
    33   18   46 1
    34   19   20 ar
    35   19   22 1
    36   20   21 ar
    37   20   47 1
    38   21   48 1
    39   22   23 2
    40   22   24 am
    41   24   25 1
    42   24   49 1
    43   25   26 1
    44   25   27 1
    45   25   32 1
    46   27   28 1
    47   27   50 1
    48   27   51 1
    49   28   29 1
    50   28   52 1
    51   28   53 1
    52   29   30 2
    53   29   31 1
    54   32   33 2
    55   32   34 1
@<TRIPOS>MOLECULE
ZINC01618702
   57    59     0     0     0
SMALL
USER_CHARGES
2-[4-[1-[(2,4-diaminopteridin-6-yl)methyl]propyl]benzoyl]aminopentanedioic acid
@<TRIPOS>ATOM
      1 C1          0.0615   -8.7000    1.5086 C.3       1 <0>        -0.1538
      2 C2         -0.0667   -7.1827    1.3590 C.3       1 <0>        -0.1166
      3 C3          1.1674   -6.6351    0.6393 C.3       1 <0>        -0.0405
      4 H1          2.0667   -6.9548    1.1657 H         1 <0>         0.0790
      5 C4          1.1995   -7.1673   -0.7948 C.3       1 <0>        -0.0559
      6 C5          2.4812   -6.7383   -1.4613 C.ar      1 <0>         0.0469
      7 C6          3.6401   -7.4923   -1.2791 C.ar      1 <0>         0.1376
      8 N1          4.7701   -7.1404   -1.8549 N.ar      1 <0>        -0.4464
      9 C7          4.8088   -6.0425   -2.6138 C.ar      1 <0>         0.3677
     10 C8          3.6294   -5.2769   -2.7912 C.ar      1 <0>        -0.0823
     11 N2          2.4972   -5.6527   -2.2051 N.ar      1 <0>        -0.3622
     12 C9          3.7110   -4.0802   -3.6304 C.ar      1 <0>         0.5464
     13 N3          4.8846   -3.7871   -4.1733 N.ar      1 <0>        -0.6317
     14 C10         5.9519   -4.5512   -3.9636 C.ar      1 <0>         0.6397
     15 N4          5.9331   -5.6379   -3.2176 N.ar      1 <0>        -0.6115
     16 N5          7.1444   -4.1874   -4.5596 N.pl3     1 <0>        -0.8115
     17 N6          2.6064   -3.2865   -3.8494 N.pl3     1 <0>        -0.7787
     18 C11         1.1080   -5.1295    0.6151 C.ar      1 <0>        -0.0638
     19 C12         2.1142   -4.3908    1.2119 C.ar      1 <0>        -0.1272
     20 C13         2.0654   -3.0122    1.1942 C.ar      1 <0>        -0.0643
     21 C14         0.9980   -2.3628    0.5719 C.ar      1 <0>        -0.1096
     22 C15        -0.0162   -3.1140   -0.0241 C.ar      1 <0>        -0.0845
     23 C16         0.0472   -4.4919   -0.0034 C.ar      1 <0>        -0.1110
     24 C17         0.9390   -0.8857    0.5494 C.2       1 <0>         0.5512
     25 O1          1.8211   -0.2341    1.0737 O.2       1 <0>        -0.5511
     26 N7         -0.0930   -0.2616   -0.0522 N.am      1 <0>        -0.6824
     27 C18        -0.1515    1.2021   -0.0745 C.3       1 <0>         0.0999
     28 H2          0.8576    1.6048   -0.1615 H         1 <0>         0.0853
     29 C19        -0.9886    1.6609   -1.2702 C.3       1 <0>        -0.0865
     30 C20        -0.2833    1.2643   -2.5687 C.3       1 <0>        -0.1515
     31 C21        -1.1078    1.7162   -3.7464 C.2       1 <0>         0.4612
     32 O2         -2.1523    2.2961   -3.5657 O.co2     1 <0>        -0.6377
     33 C22        -0.7825    1.6990    1.2007 C.2       1 <0>         0.4647
     34 O3         -1.1459    0.9114    2.0418 O.co2     1 <0>        -0.6393
     35 H3         -0.7664   -9.0772    2.1088 H         1 <0>         0.0532
     36 H4          0.0377   -9.1656    0.5233 H         1 <0>         0.0562
     37 H5          1.0048   -8.9382    2.0003 H         1 <0>         0.0542
     38 H6         -0.1447   -6.7257    2.3455 H         1 <0>         0.0685
     39 H7         -0.9593   -6.9490    0.7787 H         1 <0>         0.0690
     40 H8          1.1445   -8.2558   -0.7797 H         1 <0>         0.0888
     41 H9          0.3503   -6.7683   -1.3495 H         1 <0>         0.0896
     42 H10         3.6089   -8.3780   -0.6619 H         1 <0>         0.1737
     43 H11         7.9389   -4.7270   -4.4239 H         1 <0>         0.4154
     44 H12         7.1868   -3.3924   -5.1138 H         1 <0>         0.4160
     45 H13         1.7557   -3.5170   -3.4444 H         1 <0>         0.4284
     46 H14         2.6795   -2.4973   -4.4085 H         1 <0>         0.4218
     47 H15         2.9395   -4.8946    1.6931 H         1 <0>         0.1159
     48 H16         2.8514   -2.4368    1.6604 H         1 <0>         0.1291
     49 H17        -0.8471   -2.6175   -0.5033 H         1 <0>         0.1271
     50 H18        -0.7351   -5.0743   -0.4675 H         1 <0>         0.1232
     51 H19        -0.7969   -0.7815   -0.4706 H         1 <0>         0.3906
     52 H20        -1.9695    1.1873   -1.2301 H         1 <0>         0.0574
     53 H21        -1.1065    2.7440   -1.2369 H         1 <0>         0.0850
     54 H22         0.6976    1.7379   -2.6087 H         1 <0>         0.0599
     55 H23        -0.1654    0.1812   -2.6019 H         1 <0>         0.0559
     56 O4         -0.6818    1.4746   -4.9962 O.co2     1 <0>        -0.7904
     57 O5         -0.9406    3.0166    1.4021 O.co2     1 <0>        -0.7683
@<TRIPOS>BOND
     1    1    2 1
     2    1   35 1
     3    1   36 1
     4    1   37 1
     5    2    3 1
     6    2   38 1
     7    2   39 1
     8    3    4 1
     9    3    5 1
    10    3   18 1
    11    5    6 1
    12    5   40 1
    13    5   41 1
    14    6   11 ar
    15    6    7 ar
    16    7    8 ar
    17    7   42 1
    18    8    9 ar
    19    9   15 ar
    20    9   10 ar
    21   10   11 ar
    22   10   12 ar
    23   12   13 ar
    24   12   17 1
    25   13   14 ar
    26   14   15 ar
    27   14   16 1
    28   16   43 1
    29   16   44 1
    30   17   45 1
    31   17   46 1
    32   18   23 ar
    33   18   19 ar
    34   19   20 ar
    35   19   47 1
    36   20   21 ar
    37   20   48 1
    38   21   22 ar
    39   21   24 1
    40   22   23 ar
    41   22   49 1
    42   23   50 1
    43   24   25 2
    44   24   26 am
    45   26   27 1
    46   26   51 1
    47   27   28 1
    48   27   29 1
    49   27   33 1
    50   29   30 1
    51   29   52 1
    52   29   53 1
    53   30   31 1
    54   30   54 1
    55   30   55 1
    56   31   32 2
    57   31   56 1
    58   33   34 2
    59   33   57 1
@<TRIPOS>MOLECULE
ZINC13220172
   57    59     0     0     0
SMALL
USER_CHARGES
(2S)-2-[[4-[(1R)-1-[(2,4-diaminopteridin-6-yl)methyl]propyl]benzoyl]amino]pentanedioic acid
@<TRIPOS>ATOM
      1 C1          2.5193   -6.4993   -1.3898 C.3       1 <0>        -0.1532
      2 C2          1.1683   -6.9243   -0.8111 C.3       1 <0>        -0.1123
      3 C3          1.0500   -6.4225    0.6295 C.3       1 <0>        -0.0385
      4 H1          1.9021   -6.7775    1.2090 H         1 <0>         0.0796
      5 C4         -0.2447   -6.9523    1.2493 C.3       1 <0>        -0.0598
      6 C5         -0.1733   -8.4539    1.3548 C.ar      1 <0>         0.0634
      7 C6          0.4467   -9.0399    2.4579 C.ar      1 <0>         0.1446
      8 N1          0.5170  -10.3490    2.5747 N.ar      1 <0>        -0.4416
      9 C7         -0.0028  -11.1243    1.6198 C.ar      1 <0>         0.3639
     10 C8         -0.6271  -10.5235    0.4983 C.ar      1 <0>        -0.0871
     11 N2         -0.6921   -9.1994    0.4023 N.ar      1 <0>        -0.3775
     12 C9         -1.1856  -11.4062   -0.5275 C.ar      1 <0>         0.5427
     13 N3         -1.0728  -12.7142   -0.3427 N.ar      1 <0>        -0.6314
     14 C10        -0.4730  -13.2097    0.7351 C.ar      1 <0>         0.6348
     15 N4          0.0461  -12.4605    1.6874 N.ar      1 <0>        -0.6029
     16 N5         -0.3897  -14.5829    0.8644 N.pl3     1 <0>        -0.8118
     17 N6         -1.8076  -10.8953   -1.6455 N.pl3     1 <0>        -0.7915
     18 C11         1.0304   -4.9157    0.6365 C.ar      1 <0>        -0.0681
     19 C12         2.0110   -4.2173    1.3184 C.ar      1 <0>        -0.1251
     20 C13         1.9983   -2.8379    1.3296 C.ar      1 <0>        -0.0629
     21 C14         0.9936   -2.1468    0.6506 C.ar      1 <0>        -0.1085
     22 C15         0.0046   -2.8574   -0.0314 C.ar      1 <0>        -0.0825
     23 C16         0.0316   -4.2367   -0.0386 C.ar      1 <0>        -0.1203
     24 C17         0.9736   -0.6685    0.6587 C.2       1 <0>         0.5509
     25 O1          1.8333   -0.0523    1.2576 O.2       1 <0>        -0.5506
     26 N7          0.0021   -0.0041    0.0020 N.am      1 <0>        -0.6824
     27 C18        -0.0178    1.4608    0.0101 C.3       1 <0>         0.0993
     28 H2          1.0048    1.8381    0.0023 H         1 <0>         0.0864
     29 C19        -0.7578    1.9676   -1.2295 C.3       1 <0>        -0.0863
     30 C20         0.0259    1.5803   -2.4852 C.3       1 <0>        -0.1530
     31 C21        -0.7030    2.0796   -3.7061 C.2       1 <0>         0.4613
     32 O2         -1.7426    2.6832   -3.5843 O.co2     1 <0>        -0.6385
     33 C22        -0.7232    1.9468    1.2500 C.2       1 <0>         0.4651
     34 O3         -1.1640    1.1512    2.0453 O.co2     1 <0>        -0.6396
     35 H3          2.6036   -6.8568   -2.4161 H         1 <0>         0.0500
     36 H4          2.5944   -5.4119   -1.3765 H         1 <0>         0.0629
     37 H5          3.3224   -6.9263   -0.7892 H         1 <0>         0.0488
     38 H6          1.0932   -8.0117   -0.8244 H         1 <0>         0.0585
     39 H7          0.3652   -6.4973   -1.4117 H         1 <0>         0.0693
     40 H8         -0.3734   -6.5240    2.2433 H         1 <0>         0.0936
     41 H9         -1.0898   -6.6720    0.6206 H         1 <0>         0.0924
     42 H10         0.8704   -8.4120    3.2278 H         1 <0>         0.1815
     43 H11         0.0423  -14.9716    1.6411 H         1 <0>         0.4175
     44 H12        -0.7633  -15.1582    0.1786 H         1 <0>         0.4147
     45 H13        -1.8815   -9.9354   -1.7634 H         1 <0>         0.4278
     46 H14        -2.1718  -11.4956   -2.3148 H         1 <0>         0.4146
     47 H15         2.7878   -4.7533    1.8435 H         1 <0>         0.1225
     48 H16         2.7639   -2.2939    1.8629 H         1 <0>         0.1337
     49 H17        -0.7780   -2.3286   -0.5550 H         1 <0>         0.1284
     50 H18        -0.7309   -4.7878   -0.5690 H         1 <0>         0.1242
     51 H19        -0.6840   -0.4958   -0.4759 H         1 <0>         0.3911
     52 H20        -1.7507    1.5197   -1.2683 H         1 <0>         0.0573
     53 H21        -0.8503    3.0525   -1.1791 H         1 <0>         0.0851
     54 H22         1.0188    2.0283   -2.4463 H         1 <0>         0.0607
     55 H23         0.1184    0.4954   -2.5355 H         1 <0>         0.0572
     56 O4         -0.1973    1.8537   -4.9287 O.co2     1 <0>        -0.7904
     57 O5         -0.8617    3.2635    1.4708 O.co2     1 <0>        -0.7683
@<TRIPOS>BOND
     1    1    2 1
     2    1   35 1
     3    1   36 1
     4    1   37 1
     5    2    3 1
     6    2   38 1
     7    2   39 1
     8    3    4 1
     9    3    5 1
    10    3   18 1
    11    5    6 1
    12    5   40 1
    13    5   41 1
    14    6   11 ar
    15    6    7 ar
    16    7    8 ar
    17    7   42 1
    18    8    9 ar
    19    9   15 ar
    20    9   10 ar
    21   10   11 ar
    22   10   12 ar
    23   12   13 ar
    24   12   17 1
    25   13   14 ar
    26   14   15 ar
    27   14   16 1
    28   16   43 1
    29   16   44 1
    30   17   45 1
    31   17   46 1
    32   18   23 ar
    33   18   19 ar
    34   19   20 ar
    35   19   47 1
    36   20   21 ar
    37   20   48 1
    38   21   22 ar
    39   21   24 1
    40   22   23 ar
    41   22   49 1
    42   23   50 1
    43   24   25 2
    44   24   26 am
    45   26   27 1
    46   26   51 1
    47   27   28 1
    48   27   29 1
    49   27   33 1
    50   29   30 1
    51   29   52 1
    52   29   53 1
    53   30   31 1
    54   30   54 1
    55   30   55 1
    56   31   32 2
    57   31   56 1
    58   33   34 2
    59   33   57 1
