@<TRIPOS>MOLECULE
ZINC00009295
   33    37     0     0     0
SMALL
USER_CHARGES

@<TRIPOS>ATOM
      1 C1         -0.0165    1.3617    0.0018 C.ar      1 <0>        -0.1166
      2 C2          1.1670    2.0860    0.0184 C.ar      1 <0>        -0.1102
      3 C3          2.3845    1.4365    0.0139 C.ar      1 <0>        -0.0886
      4 C4          2.4235    0.0506   -0.0069 C.ar      1 <0>         0.0477
      5 C5          1.2253   -0.6845   -0.0233 C.ar      1 <0>         0.0671
      6 C6          0.0020   -0.0039   -0.0189 C.ar      1 <0>        -0.0707
      7 N1          1.5589   -1.9954   -0.0410 N.2       1 <0>        -0.4717
      8 C7          2.8671   -2.1252   -0.0368 C.2       1 <0>         0.3597
      9 N2          3.4512   -0.8811   -0.0157 N.am      1 <0>        -0.4750
     10 C8          4.7897   -0.7218   -0.0067 C.2       1 <0>         0.5811
     11 O1          5.2621    0.3982    0.0124 O.2       1 <0>        -0.4908
     12 C9          5.6842   -1.8884   -0.0191 C.ar      1 <0>        -0.1855
     13 C10         7.0648   -1.7546   -0.0097 C.ar      1 <0>        -0.0005
     14 C11         7.8775   -2.8821   -0.0216 C.ar      1 <0>        -0.1716
     15 C12         7.3478   -4.1414   -0.0427 C.ar      1 <0>        -0.0150
     16 C13         5.9572   -4.3167   -0.0532 C.ar      1 <0>        -0.0588
     17 C14         5.1192   -3.1838   -0.0409 C.ar      1 <0>         0.0057
     18 C15         3.7136   -3.3357   -0.0511 C.ar      1 <0>        -0.0918
     19 C16         3.1553   -4.6045   -0.0728 C.ar      1 <0>        -0.0099
     20 C17         3.9517   -5.7383   -0.0860 C.ar      1 <0>        -0.1235
     21 C18         5.3407   -5.6422   -0.0767 C.ar      1 <0>        -0.0496
     22 C19         6.1748   -6.8553   -0.0900 C.2       1 <0>         0.5213
     23 O2          5.6524   -7.9579    0.0012 O.co2     1 <0>        -0.6640
     24 O3          7.3903   -6.7609   -0.1924 O.co2     1 <0>        -0.6690
     25 H1         -0.9622    1.8832    0.0098 H         1 <0>         0.1325
     26 H2          1.1351    3.1654    0.0346 H         1 <0>         0.1328
     27 H3          3.3027    2.0049    0.0262 H         1 <0>         0.1327
     28 H4         -0.9253   -0.5575   -0.0313 H         1 <0>         0.1345
     29 H5          7.5099   -0.7707    0.0065 H         1 <0>         0.1371
     30 H6          8.9505   -2.7602   -0.0144 H         1 <0>         0.1360
     31 H7          8.0006   -5.0018   -0.0516 H         1 <0>         0.1874
     32 H8          2.0806   -4.7111   -0.0791 H         1 <0>         0.1408
     33 H9          3.4871   -6.7131   -0.1025 H         1 <0>         0.1466
@<TRIPOS>BOND
     1    1    6 ar
     2    1    2 ar
     3    1   25 1
     4    2    3 ar
     5    2   26 1
     6    3    4 ar
     7    3   27 1
     8    4    9 1
     9    4    5 ar
    10    5    6 ar
    11    5    7 1
    12    6   28 1
    13    7    8 2
    14    8   18 1
    15    8    9 1
    16    9   10 am
    17   10   11 2
    18   10   12 1
    19   12   17 ar
    20   12   13 ar
    21   13   14 ar
    22   13   29 1
    23   14   15 ar
    24   14   30 1
    25   15   16 ar
    26   15   31 1
    27   16   21 ar
    28   16   17 ar
    29   17   18 ar
    30   18   19 ar
    31   19   20 ar
    32   19   32 1
    33   20   21 ar
    34   20   33 1
    35   21   22 1
    36   22   23 2
    37   22   24 1
@<TRIPOS>MOLECULE
ZINC13816313
   27    29     0     0     0
SMALL
USER_CHARGES

@<TRIPOS>ATOM
      1 C1          0.1361    1.2754   -0.2432 C.ar      1 <0>        -0.1261
      2 C2          1.3137    1.9630   -0.0245 C.ar      1 <0>        -0.1243
      3 C3          2.3514    1.3592    0.6655 C.ar      1 <0>         0.0761
      4 C4          2.2109    0.0652    1.1381 C.ar      1 <0>        -0.1224
      5 C5          1.0350   -0.6262    0.9222 C.ar      1 <0>        -0.1088
      6 C6         -0.0071   -0.0227    0.2299 C.ar      1 <0>         0.1544
      7 N1         -1.1986   -0.7207    0.0101 N.pl3     1 <0>        -0.6392
      8 C7         -1.1818   -2.1126   -0.1030 C.2       1 <0>         0.3784
      9 C8         -2.3474   -2.9839   -0.2182 C.ar      1 <0>        -0.3511
     10 C9         -3.7377   -2.7850   -0.2544 C.ar      1 <0>         0.5213
     11 N2         -4.5246   -3.8502   -0.3717 N.ar      1 <0>        -0.6073
     12 C10        -4.0179   -5.0679   -0.4527 C.ar      1 <0>         0.3963
     13 N3         -2.7246   -5.3028   -0.4228 N.ar      1 <0>        -0.5771
     14 C11        -1.8536   -4.3001   -0.3079 C.ar      1 <0>         0.3981
     15 N4         -0.4957   -4.2162   -0.2502 N.pl3     1 <0>        -0.4727
     16 H1          0.1148   -4.9689   -0.2896 H         1 <0>         0.4500
     17 N5         -0.1184   -2.8743   -0.1307 N.2       1 <0>        -0.2902
     18 N6         -4.2736   -1.5149   -0.1697 N.pl3     1 <0>        -0.8229
     19 F1          3.5027    2.0334    0.8775 F         1 <0>        -0.1391
     20 H2         -0.6745    1.7482   -0.7779 H         1 <0>         0.1364
     21 H3          1.4254    2.9723   -0.3922 H         1 <0>         0.1410
     22 H4          3.0217   -0.4039    1.6757 H         1 <0>         0.1399
     23 H5          0.9259   -1.6354    1.2910 H         1 <0>         0.1457
     24 H6         -2.0368   -0.2382   -0.0639 H         1 <0>         0.4156
     25 H7         -4.6940   -5.9048   -0.5471 H         1 <0>         0.2079
     26 H8         -3.6882   -0.7462   -0.0840 H         1 <0>         0.4033
     27 H9         -5.2354   -1.3915   -0.1958 H         1 <0>         0.4164
@<TRIPOS>BOND
     1    1    6 ar
     2    1    2 ar
     3    1   20 1
     4    2    3 ar
     5    2   21 1
     6    3    4 ar
     7    3   19 1
     8    4    5 ar
     9    4   22 1
    10    5    6 ar
    11    5   23 1
    12    6    7 1
    13    7    8 1
    14    7   24 1
    15    8   17 2
    16    8    9 1
    17    9   14 ar
    18    9   10 ar
    19   10   11 ar
    20   10   18 1
    21   11   12 ar
    22   12   13 ar
    23   12   25 1
    24   13   14 ar
    25   14   15 1
    26   15   16 1
    27   15   17 1
    28   18   26 1
    29   18   27 1
@<TRIPOS>MOLECULE
ZINC13125486
   25    27     0     0     0
SMALL
USER_CHARGES

@<TRIPOS>ATOM
      1 C1          0.0525    1.4471   -0.5013 C.ar      1 <0>        -0.0768
      2 C2          1.2296    2.1477   -0.3510 C.ar      1 <0>        -0.1235
      3 C3          2.4338    1.4633   -0.2210 C.ar      1 <0>         0.1049
      4 C4          2.4332    0.0595   -0.2449 C.ar      1 <0>        -0.0898
      5 C5          1.2373   -0.6365   -0.3973 C.ar      1 <0>        -0.0296
      6 C6          0.0537    0.0596   -0.5247 C.ar      1 <0>        -0.1192
      7 Br1        -1.5740   -0.8802   -0.7322 Br        1 <0>        -0.0589
      8 C7          3.8420   -0.3503   -0.0861 C.2       1 <0>        -0.1081
      9 C8          4.5731    0.8128    0.0196 C.2       1 <0>         0.0389
     10 N1          3.7400    1.8798   -0.0603 N.pl3     1 <0>        -0.5798
     11 H1          4.0225    2.8064   -0.0116 H         1 <0>         0.4180
     12 C9          4.3585   -1.7172   -0.0479 C.2       1 <0>        -0.0953
     13 C10         5.6078   -1.9600    0.4383 C.2       1 <0>         0.0317
     14 C11         6.3503   -3.2277    0.4109 C.2       1 <0>         0.5203
     15 N2          7.5307   -2.9851    1.0022 N.2       1 <0>        -0.6771
     16 C12         7.6029   -1.7326    1.3864 C.2       1 <0>         0.6214
     17 O1          8.6674   -1.1874    2.0111 O.3       1 <0>        -0.6644
     18 N3          6.4704   -1.0550    1.0691 N.pl3     1 <0>        -0.6944
     19 O2          5.9694   -4.2901   -0.0563 O.2       1 <0>        -0.5328
     20 H2         -0.8803    1.9829   -0.5973 H         1 <0>         0.1329
     21 H3          1.2174    3.2275   -0.3345 H         1 <0>         0.1274
     22 H4          1.2364   -1.7163   -0.4154 H         1 <0>         0.1359
     23 H5          5.6442    0.8664    0.1465 H         1 <0>         0.1750
     24 H6          3.7498   -2.5347   -0.4050 H         1 <0>         0.1431
     25 H7          6.2912   -0.1185    1.2475 H         1 <0>         0.4001
@<TRIPOS>BOND
     1    1    6 ar
     2    1    2 ar
     3    1   20 1
     4    2    3 ar
     5    2   21 1
     6    3   10 1
     7    3    4 ar
     8    4    5 ar
     9    4    8 1
    10    5    6 ar
    11    5   22 1
    12    6    7 1
    13    8    9 2
    14    8   12 1
    15    9   10 1
    16    9   23 1
    17   10   11 1
    18   12   13 2
    19   12   24 1
    20   13   18 1
    21   13   14 1
    22   14   15 1
    23   14   19 2
    24   15   16 2
    25   16   17 1
    26   16   18 1
    27   18   25 1
@<TRIPOS>MOLECULE
ZINC13125486
   26    28     0     0     0
SMALL
USER_CHARGES

@<TRIPOS>ATOM
      1 C1          0.0472    1.4442   -0.4709 C.ar      1 <0>        -0.0704
      2 C2          1.2251    2.1456   -0.3305 C.ar      1 <0>        -0.1141
      3 C3          2.4301    1.4617   -0.2092 C.ar      1 <0>         0.1037
      4 C4          2.4306    0.0577   -0.2317 C.ar      1 <0>        -0.0802
      5 C5          1.2338   -0.6390   -0.3745 C.ar      1 <0>        -0.0396
      6 C6          0.0490    0.0566   -0.4930 C.ar      1 <0>        -0.1063
      7 Br1        -1.5798   -0.8843   -0.6868 Br        1 <0>        -0.0428
      8 C7          3.8408   -0.3495   -0.0835 C.2       1 <0>        -0.1619
      9 C8          4.5682    0.8037    0.0148 C.2       1 <0>         0.0897
     10 N1          3.7383    1.8752   -0.0591 N.pl3     1 <0>        -0.5738
     11 H1          4.0244    2.8009   -0.0129 H         1 <0>         0.4257
     12 C9          4.3585   -1.7174   -0.0479 C.2       1 <0>         0.0403
     13 C10         5.6065   -1.9602    0.4378 C.2       1 <0>        -0.0209
     14 C11         6.3129   -3.1927    0.4047 C.2       1 <0>         0.5655
     15 O1          5.9154   -4.2426   -0.0679 O.2       1 <0>        -0.4704
     16 N2          7.5057   -2.9805    0.9939 N.am      1 <0>        -0.6778
     17 C12         7.5909   -1.7003    1.3920 C.2       1 <0>         0.7035
     18 O2          8.5488   -1.2067    1.9561 O.2       1 <0>        -0.5273
     19 N3          6.4613   -1.0432    1.0684 N.am      1 <0>        -0.6664
     20 H2         -0.8867    1.9793   -0.5602 H         1 <0>         0.1403
     21 H3          1.2125    3.2254   -0.3149 H         1 <0>         0.1344
     22 H4          1.2333   -1.7188   -0.3921 H         1 <0>         0.1389
     23 H5          5.6404    0.8545    0.1335 H         1 <0>         0.1767
     24 H6          3.7504   -2.5344   -0.4070 H         1 <0>         0.1623
     25 H7          6.2721   -0.1076    1.2414 H         1 <0>         0.4322
     26 H8          8.1975   -3.6500    1.1126 H         1 <0>         0.4388
@<TRIPOS>BOND
     1    1    6 ar
     2    1    2 ar
     3    1   20 1
     4    2    3 ar
     5    2   21 1
     6    3   10 1
     7    3    4 ar
     8    4    5 ar
     9    4    8 1
    10    5    6 ar
    11    5   22 1
    12    6    7 1
    13    8    9 2
    14    8   12 1
    15    9   10 1
    16    9   23 1
    17   10   11 1
    18   12   13 2
    19   12   24 1
    20   13   19 1
    21   13   14 1
    22   14   15 2
    23   14   16 am
    24   16   17 am
    25   16   26 1
    26   17   18 2
    27   17   19 am
    28   19   25 1
@<TRIPOS>MOLECULE
ZINC03814434
   62    69     0     0     0
SMALL
USER_CHARGES

@<TRIPOS>ATOM
      1 C1         -0.1295    1.5952   -0.2973 C.3       1 <0>        -0.1687
      2 C2         -0.0862    0.0696   -0.1900 C.3       1 <0>         0.3342
      3 C3          0.5692   -0.4501   -1.4637 C.3       1 <0>         0.0405
      4 H1          1.4796    0.1159   -1.6612 H         1 <0>         0.1372
      5 C4          0.9167   -1.9328   -1.2889 C.3       1 <0>        -0.0061
      6 H2          1.3963   -2.3075   -2.1932 H         1 <0>         0.1555
      7 C5          1.8785   -2.0596   -0.1021 C.3       1 <0>        -0.1827
      8 C6          1.2061   -1.5198    1.1541 C.3       1 <0>         0.2999
      9 H3          1.9797   -1.4243    1.9161 H         1 <0>         0.1550
     10 O1          0.6555   -0.2442    0.9666 O.3       1 <0>        -0.3234
     11 N1          0.2189   -2.4746    1.6600 N.pl3     1 <0>        -0.5366
     12 C7          0.4705   -3.5508    2.4739 C.ar      1 <0>         0.1469
     13 C8          1.6649   -4.0152    3.0240 C.ar      1 <0>        -0.1522
     14 C9          1.5948   -5.1456    3.8201 C.ar      1 <0>        -0.0582
     15 C10         0.4006   -5.7997    4.0696 C.ar      1 <0>        -0.1457
     16 C11        -0.7984   -5.3597    3.5358 C.ar      1 <0>        -0.0280
     17 C12        -0.7487   -4.2198    2.7307 C.ar      1 <0>        -0.1131
     18 C13        -1.7893   -3.4830    2.0197 C.ar      1 <0>         0.0276
     19 C14        -1.1442   -2.4197    1.3841 C.ar      1 <0>         0.0376
     20 C15        -1.8806   -1.5095    0.6175 C.ar      1 <0>         0.0894
     21 N2         -1.4718   -0.3951   -0.1095 N.pl3     1 <0>        -0.5183
     22 C16        -2.5611    0.1913   -0.7090 C.ar      1 <0>         0.1618
     23 C17        -2.6521    1.3277   -1.5118 C.ar      1 <0>        -0.1305
     24 C18        -3.9109    1.6745   -1.9733 C.ar      1 <0>        -0.0737
     25 C19        -5.0393    0.9368   -1.6616 C.ar      1 <0>        -0.1358
     26 C20        -4.9745   -0.1955   -0.8662 C.ar      1 <0>        -0.0503
     27 C21        -3.7147   -0.5596   -0.3919 C.ar      1 <0>        -0.1042
     28 C22        -3.2693   -1.6660    0.4845 C.ar      1 <0>        -0.0360
     29 C23        -3.9084   -2.7313    1.1102 C.ar      1 <0>        -0.0288
     30 C24        -3.1873   -3.6421    1.8754 C.ar      1 <0>        -0.1255
     31 C25        -4.1221   -4.6480    2.4030 C.2       1 <0>         0.5632
     32 O2         -3.8062   -5.5851    3.1110 O.2       1 <0>        -0.5106
     33 N3         -5.3744   -4.3851    1.9926 N.am      1 <0>        -0.7162
     34 C26        -5.3495   -3.1771    1.1601 C.3       1 <0>         0.1358
     35 N4         -0.3067   -2.7008   -1.0216 N.4       1 <0>        -0.5252
     36 C27         0.0145   -4.1336   -0.9773 C.3       1 <0>        -0.0497
     37 O3         -0.3340   -0.2979   -2.5607 O.3       1 <0>        -0.3614
     38 C28         0.3101   -0.0933   -3.8198 C.3       1 <0>         0.0162
     39 H4          0.8261    2.0094    0.0240 H         1 <0>         0.0984
     40 H5         -0.3202    1.8814   -1.3317 H         1 <0>         0.1036
     41 H6         -0.9255    1.9818    0.3392 H         1 <0>         0.0921
     42 H7          2.1370   -3.1081    0.0458 H         1 <0>         0.1233
     43 H8          2.7835   -1.4869   -0.3048 H         1 <0>         0.1455
     44 H9          2.6036   -3.5149    2.8368 H         1 <0>         0.1365
     45 H10         2.5026   -5.5304    4.2610 H         1 <0>         0.1359
     46 H11         0.4045   -6.6780    4.6980 H         1 <0>         0.1352
     47 H12        -1.7278   -5.8736    3.7323 H         1 <0>         0.1600
     48 H13        -1.7792    1.9122   -1.7624 H         1 <0>         0.1440
     49 H14        -4.0153    2.5500   -2.5970 H         1 <0>         0.1336
     50 H15        -5.9967    1.2527   -2.0488 H         1 <0>         0.1332
     51 H16        -5.8575   -0.7687   -0.6249 H         1 <0>         0.1415
     52 H17        -6.1628   -4.9065    2.2103 H         1 <0>         0.4348
     53 H18        -5.9671   -2.3994    1.6094 H         1 <0>         0.1115
     54 H19        -5.7060   -3.4063    0.1559 H         1 <0>         0.1103
     55 H20        -0.6958   -2.4158   -0.1353 H         1 <0>         0.4186
     56 H21         0.4349   -4.4415   -1.9347 H         1 <0>         0.1256
     57 H22         0.7403   -4.3189   -0.1854 H         1 <0>         0.1191
     58 H23        -0.8932   -4.7035   -0.7789 H         1 <0>         0.1256
     59 H24         0.9168    0.8112   -3.7748 H         1 <0>         0.0633
     60 H25         0.9482   -0.9479   -4.0446 H         1 <0>         0.0514
     61 H26        -0.4433    0.0130   -4.6003 H         1 <0>         0.1100
     62 H27        -0.9785   -2.5293   -1.7546 H         1 <0>         0.4274
@<TRIPOS>BOND
     1    1    2 1
     2    1   39 1
     3    1   40 1
     4    1   41 1
     5    2   10 1
     6    2   21 1
     7    2    3 1
     8    3    4 1
     9    3    5 1
    10    3   37 1
    11    5    6 1
    12    5    7 1
    13    5   35 1
    14    7    8 1
    15    7   42 1
    16    7   43 1
    17    8    9 1
    18    8   10 1
    19    8   11 1
    20   11   19 1
    21   11   12 1
    22   12   17 ar
    23   12   13 ar
    24   13   14 ar
    25   13   44 1
    26   14   15 ar
    27   14   45 1
    28   15   16 ar
    29   15   46 1
    30   16   17 ar
    31   16   47 1
    32   17   18 1
    33   18   30 ar
    34   18   19 ar
    35   19   20 ar
    36   20   28 ar
    37   20   21 1
    38   21   22 1
    39   22   27 ar
    40   22   23 ar
    41   23   24 ar
    42   23   48 1
    43   24   25 ar
    44   24   49 1
    45   25   26 ar
    46   25   50 1
    47   26   27 ar
    48   26   51 1
    49   27   28 1
    50   28   29 ar
    51   29   34 1
    52   29   30 ar
    53   30   31 1
    54   31   32 2
    55   31   33 am
    56   33   34 1
    57   33   52 1
    58   34   53 1
    59   34   54 1
    60   35   36 1
    61   35   55 1
    62   35   62 1
    63   36   56 1
    64   36   57 1
    65   36   58 1
    66   37   38 1
    67   38   59 1
    68   38   60 1
    69   38   61 1
@<TRIPOS>MOLECULE
ZINC09341556
   31    33     0     0     0
SMALL
USER_CHARGES

@<TRIPOS>ATOM
      1 C1         -0.7334    1.3152    1.9815 C.3       1 <0>         0.0793
      2 N1         -0.8047   -0.1477    1.9465 N.am      1 <0>        -0.5923
      3 C2         -1.5050   -0.7617    0.9681 C.2       1 <0>         0.5641
      4 O1         -2.0812   -0.1185    0.1102 O.2       1 <0>        -0.5393
      5 C3         -1.5492   -2.2336    0.9717 C.2       1 <0>        -0.2845
      6 C4         -2.2501   -2.9379   -0.0042 C.2       1 <0>         0.1252
      7 C5         -2.1040   -4.3339   -0.1058 C.2       1 <0>        -0.2178
      8 C6         -0.9165   -5.0494   -0.1148 C.2       1 <0>         0.2227
      9 N2         -1.1833   -6.3617   -0.2260 N.pl3     1 <0>        -0.5726
     10 H1         -0.5107   -7.0601   -0.2531 H         1 <0>         0.4166
     11 C7         -2.5468   -6.5816   -0.2957 C.ar      1 <0>         0.0661
     12 C8         -3.1854   -5.3346   -0.2181 C.ar      1 <0>        -0.0380
     13 C9         -4.5732   -5.2546   -0.2586 C.ar      1 <0>        -0.1112
     14 C10        -5.3222   -6.4123   -0.3722 C.ar      1 <0>         0.0822
     15 C11        -4.6895   -7.6487   -0.4455 C.ar      1 <0>        -0.1433
     16 C12        -3.3144   -7.7354   -0.4141 C.ar      1 <0>        -0.1007
     17 O2         -6.6794   -6.3413   -0.4118 O.3       1 <0>        -0.4986
     18 C13        -0.8479   -2.9096    2.0102 C.2       1 <0>         0.4992
     19 O3         -0.8482   -4.2583    2.0703 O.3       1 <0>        -0.6419
     20 N3         -0.1961   -2.1990    2.9144 N.2       1 <0>        -0.6740
     21 C14        -0.1687   -0.8687    2.8842 C.2       1 <0>         0.6679
     22 O4          0.4566   -0.2791    3.7478 O.2       1 <0>        -0.5803
     23 H2         -0.1265    1.6291    2.8307 H         1 <0>         0.0921
     24 H3         -0.2824    1.6791    1.0583 H         1 <0>         0.0586
     25 H4         -1.7382    1.7256    2.0814 H         1 <0>         0.0586
     26 H5         -2.9057   -2.4127   -0.6830 H         1 <0>         0.1276
     27 H6          0.0711   -4.6183   -0.0438 H         1 <0>         0.1767
     28 H7         -5.0635   -4.2940   -0.2012 H         1 <0>         0.1265
     29 H8         -5.2807   -8.5482   -0.5337 H         1 <0>         0.1270
     30 H9         -2.8331   -8.7006   -0.4700 H         1 <0>         0.1217
     31 H10        -7.0427   -6.2532   -1.3037 H         1 <0>         0.3824
@<TRIPOS>BOND
     1    1    2 1
     2    1   23 1
     3    1   24 1
     4    1   25 1
     5    2   21 am
     6    2    3 am
     7    3    4 2
     8    3    5 1
     9    5    6 2
    10    5   18 1
    11    6    7 1
    12    6   26 1
    13    7   12 1
    14    7    8 2
    15    8    9 1
    16    8   27 1
    17    9   10 1
    18    9   11 1
    19   11   16 ar
    20   11   12 ar
    21   12   13 ar
    22   13   14 ar
    23   13   28 1
    24   14   15 ar
    25   14   17 1
    26   15   16 ar
    27   15   29 1
    28   16   30 1
    29   17   31 1
    30   18   19 1
    31   18   20 2
    32   20   21 1
    33   21   22 2
@<TRIPOS>MOLECULE
ZINC09341556
   32    34     0     0     0
SMALL
USER_CHARGES

@<TRIPOS>ATOM
      1 C1         -0.7001    1.3376    1.9164 C.3       1 <0>         0.0763
      2 N1         -0.7556   -0.1261    1.8889 N.am      1 <0>        -0.5636
      3 C2         -1.4985   -0.7398    0.9449 C.2       1 <0>         0.5711
      4 O1         -2.1189   -0.0944    0.1208 O.2       1 <0>        -0.4882
      5 C3         -1.5381   -2.2125    0.9383 C.2       1 <0>        -0.3264
      6 C4         -2.2805   -2.9132   -0.0032 C.2       1 <0>         0.1930
      7 C5         -2.1493   -4.3129   -0.1044 C.2       1 <0>        -0.2485
      8 C6         -0.9709   -5.0399   -0.1130 C.2       1 <0>         0.2058
      9 N2         -1.2514   -6.3504   -0.2229 N.pl3     1 <0>        -0.5627
     10 H1         -0.5862   -7.0559   -0.2498 H         1 <0>         0.4246
     11 C7         -2.6169   -6.5557   -0.2920 C.ar      1 <0>         0.0661
     12 C8         -3.2415   -5.3013   -0.2163 C.ar      1 <0>        -0.0401
     13 C9         -4.6285   -5.2059   -0.2570 C.ar      1 <0>        -0.1143
     14 C10        -5.3902   -6.3553   -0.3695 C.ar      1 <0>         0.1012
     15 C11        -4.7713   -7.5988   -0.4414 C.ar      1 <0>        -0.1304
     16 C12        -3.3974   -7.7009   -0.4096 C.ar      1 <0>        -0.0945
     17 O2         -6.7465   -6.2692   -0.4094 O.3       1 <0>        -0.4961
     18 C13        -0.7554   -2.9095    1.9737 C.2       1 <0>         0.5730
     19 O3         -0.7385   -4.1248    2.0318 O.2       1 <0>        -0.4902
     20 N3         -0.0576   -2.1642    2.8553 N.am      1 <0>        -0.6645
     21 C14        -0.0627   -0.8249    2.7990 C.2       1 <0>         0.7128
     22 O4          0.5915   -0.2118    3.6195 O.2       1 <0>        -0.5303
     23 H2         -0.0557    1.6615    2.7337 H         1 <0>         0.1045
     24 H3         -0.2998    1.7039    0.9710 H         1 <0>         0.0813
     25 H4         -1.7036    1.7365    2.0649 H         1 <0>         0.0814
     26 H5         -2.9583   -2.3856   -0.6578 H         1 <0>         0.1533
     27 H6          0.0212   -4.6190   -0.0426 H         1 <0>         0.1807
     28 H7         -5.1082   -4.2399   -0.2007 H         1 <0>         0.1327
     29 H8         -5.3725   -8.4917   -0.5288 H         1 <0>         0.1363
     30 H9         -2.9269   -8.6715   -0.4647 H         1 <0>         0.1298
     31 H10        -7.1088   -6.1780   -1.3013 H         1 <0>         0.3914
     32 H11         0.4627   -2.6076    3.5434 H         1 <0>         0.4342
@<TRIPOS>BOND
     1    1    2 1
     2    1   23 1
     3    1   24 1
     4    1   25 1
     5    2   21 am
     6    2    3 am
     7    3    4 2
     8    3    5 1
     9    5    6 2
    10    5   18 1
    11    6    7 1
    12    6   26 1
    13    7   12 1
    14    7    8 2
    15    8    9 1
    16    8   27 1
    17    9   10 1
    18    9   11 1
    19   11   16 ar
    20   11   12 ar
    21   12   13 ar
    22   13   14 ar
    23   13   28 1
    24   14   15 ar
    25   14   17 1
    26   15   16 ar
    27   15   29 1
    28   16   30 1
    29   17   31 1
    30   18   19 2
    31   18   20 am
    32   20   21 am
    33   20   32 1
    34   21   22 2
@<TRIPOS>MOLECULE
ZINC02914165
   34    36     0     0     0
SMALL
USER_CHARGES

@<TRIPOS>ATOM
      1 C1         -0.0225    1.8097    0.0120 C.3       1 <0>        -0.1460
      2 S1          0.0021   -0.0041    0.0020 S.3       1 <0>        -0.1066
      3 C2         -1.7016   -0.4536    0.0159 C.ar      1 <0>        -0.0463
      4 C3         -2.6817    0.5328    0.0248 C.ar      1 <0>        -0.1616
      5 C4         -4.0173    0.1811    0.0357 C.ar      1 <0>        -0.0586
      6 C5         -4.3844   -1.1512    0.0378 C.ar      1 <0>        -0.1750
      7 C6         -3.4101   -2.1422    0.0294 C.ar      1 <0>         0.1758
      8 C7         -2.0670   -1.7927    0.0122 C.ar      1 <0>        -0.1392
      9 N1         -3.7825   -3.4891    0.0325 N.pl3     1 <0>        -0.6297
     10 C8         -5.1004   -3.8312    0.0437 C.2       1 <0>         0.2545
     11 C9         -5.4641   -5.1468    0.0467 C.2       1 <0>        -0.2945
     12 C10        -6.8377   -5.7023    0.0524 C.ar      1 <0>        -0.0650
     13 C11        -8.1008   -5.1216    0.0562 C.ar      1 <0>        -0.0829
     14 C12        -9.2234   -5.9247    0.0614 C.ar      1 <0>        -0.1345
     15 C13        -9.0908   -7.3034    0.0631 C.ar      1 <0>        -0.0963
     16 C14        -7.8417   -7.8892    0.0598 C.ar      1 <0>        -0.1316
     17 C15        -6.6990   -7.0960    0.0537 C.ar      1 <0>         0.1293
     18 N2         -5.3479   -7.4198    0.0492 N.am      1 <0>        -0.6504
     19 C16        -4.5795   -6.3175    0.0385 C.2       1 <0>         0.5641
     20 O1         -3.3613   -6.2941    0.0276 O.2       1 <0>        -0.5375
     21 H1          1.0001    2.1870    0.0043 H         1 <0>         0.1120
     22 H2         -0.5497    2.1708   -0.8711 H         1 <0>         0.0863
     23 H3         -0.5327    2.1613    0.9088 H         1 <0>         0.0863
     24 H4         -2.3983    1.5749    0.0235 H         1 <0>         0.1277
     25 H5         -4.7766    0.9491    0.0430 H         1 <0>         0.1345
     26 H6         -5.4297   -1.4226    0.0463 H         1 <0>         0.1319
     27 H7         -1.3080   -2.5609    0.0008 H         1 <0>         0.1349
     28 H8         -3.1020   -4.1804    0.0266 H         1 <0>         0.4286
     29 H9         -5.8580   -3.0615    0.0502 H         1 <0>         0.1682
     30 H10        -8.2033   -4.0465    0.0556 H         1 <0>         0.1247
     31 H11       -10.2065   -5.4775    0.0644 H         1 <0>         0.1278
     32 H12        -9.9735   -7.9257    0.0675 H         1 <0>         0.1290
     33 H13        -7.7509   -8.9654    0.0616 H         1 <0>         0.1250
     34 H14        -5.0031   -8.3265    0.0494 H         1 <0>         0.4153
@<TRIPOS>BOND
     1    1    2 1
     2    1   21 1
     3    1   22 1
     4    1   23 1
     5    2    3 1
     6    3    8 ar
     7    3    4 ar
     8    4    5 ar
     9    4   24 1
    10    5    6 ar
    11    5   25 1
    12    6    7 ar
    13    6   26 1
    14    7    8 ar
    15    7    9 1
    16    8   27 1
    17    9   10 1
    18    9   28 1
    19   10   11 2
    20   10   29 1
    21   11   19 1
    22   11   12 1
    23   12   17 ar
    24   12   13 ar
    25   13   14 ar
    26   13   30 1
    27   14   15 ar
    28   14   31 1
    29   15   16 ar
    30   15   32 1
    31   16   17 ar
    32   16   33 1
    33   17   18 1
    34   18   19 am
    35   18   34 1
    36   19   20 2
@<TRIPOS>MOLECULE
ZINC06007277
   36    38     0     0     0
SMALL
USER_CHARGES

@<TRIPOS>ATOM
      1 C1         -0.1217    1.3428   -1.2112 C.3       1 <0>         0.0242
      2 O1         -0.0869   -0.0740   -1.0283 O.3       1 <0>        -0.3105
      3 C2         -1.2659   -0.6888   -0.7435 C.ar      1 <0>         0.1177
      4 C3         -2.4335    0.0574   -0.6480 C.ar      1 <0>        -0.1532
      5 C4         -3.6360   -0.5551   -0.3600 C.ar      1 <0>        -0.0879
      6 C5         -3.6909   -1.9302   -0.1613 C.ar      1 <0>         0.1357
      7 C6         -2.5127   -2.6811   -0.2580 C.ar      1 <0>        -0.1174
      8 C7         -1.3042   -2.0602   -0.5541 C.ar      1 <0>        -0.0934
      9 C8         -2.8917   -4.0900   -0.0002 C.2       1 <0>         0.0666
     10 N1         -2.1050   -5.1389    0.0109 N.2       1 <0>        -0.1040
     11 N2         -0.7183   -4.9759   -0.1040 N.am      1 <0>        -0.5732
     12 C9          0.0805   -6.0559   -0.2123 C.2       1 <0>         0.5778
     13 O2         -0.4022   -7.1717   -0.2104 O.2       1 <0>        -0.4607
     14 C10         1.5397   -5.8843   -0.3333 C.ar      1 <0>        -0.1636
     15 C11         2.0995   -4.6036   -0.3302 C.ar      1 <0>        -0.0427
     16 C12         3.4647   -4.4504   -0.4437 C.ar      1 <0>        -0.1096
     17 C13         4.2857   -5.5614   -0.5609 C.ar      1 <0>        -0.0398
     18 C14         3.7454   -6.8318   -0.5652 C.ar      1 <0>        -0.1447
     19 C15         2.3745   -7.0050   -0.4462 C.ar      1 <0>         0.1974
     20 O3          1.8432   -8.2533   -0.4442 O.3       1 <0>        -0.4731
     21 Br1         4.2210   -2.7172   -0.4401 Br        1 <0>        -0.0290
     22 C16        -4.3477   -4.0557    0.2421 C.2       1 <0>         0.5929
     23 O4         -5.0546   -5.0138    0.4939 O.2       1 <0>        -0.4640
     24 N3         -4.7541   -2.7792    0.1356 N.am      1 <0>        -0.6447
     25 H1          0.8822    1.7054   -1.4323 H         1 <0>         0.1049
     26 H2         -0.7865    1.5860   -2.0401 H         1 <0>         0.0594
     27 H3         -0.4872    1.8179   -0.3008 H         1 <0>         0.0595
     28 H4         -2.3999    1.1261   -0.8001 H         1 <0>         0.1454
     29 H5         -4.5373    0.0356   -0.2883 H         1 <0>         0.1420
     30 H6         -0.3990   -2.6441   -0.6316 H         1 <0>         0.1254
     31 H7         -0.3331   -4.0856   -0.1056 H         1 <0>         0.3923
     32 H8          1.4635   -3.7355   -0.2395 H         1 <0>         0.1349
     33 H9          5.3543   -5.4322   -0.6497 H         1 <0>         0.1480
     34 H10         4.3917   -7.6923   -0.6569 H         1 <0>         0.1527
     35 H11         1.6122   -8.5838   -1.3231 H         1 <0>         0.4046
     36 H12        -5.6716   -2.4863    0.2510 H         1 <0>         0.4300
@<TRIPOS>BOND
     1    1    2 1
     2    1   25 1
     3    1   26 1
     4    1   27 1
     5    2    3 1
     6    3    8 ar
     7    3    4 ar
     8    4    5 ar
     9    4   28 1
    10    5    6 ar
    11    5   29 1
    12    6   24 1
    13    6    7 ar
    14    7    8 ar
    15    7    9 1
    16    8   30 1
    17    9   10 2
    18    9   22 1
    19   10   11 1
    20   11   12 am
    21   11   31 1
    22   12   13 2
    23   12   14 1
    24   14   19 ar
    25   14   15 ar
    26   15   16 ar
    27   15   32 1
    28   16   17 ar
    29   16   21 1
    30   17   18 ar
    31   17   33 1
    32   18   19 ar
    33   18   34 1
    34   19   20 1
    35   20   35 1
    36   22   23 2
    37   22   24 am
    38   24   36 1
@<TRIPOS>MOLECULE
ZINC22309248
   61    64     0     0     0
SMALL
USER_CHARGES
4-[[6-(cyclohexylmethoxy)-9H-purin-2-yl]amino]-N,N-diethyl-benzamide
@<TRIPOS>ATOM
      1 C1          3.7265   -4.9107   -0.3834 C.3       1 <0>        -0.1689
      2 C2          2.2846   -4.3995   -0.4041 C.3       1 <0>         0.1085
      3 N1          2.2377   -3.0476    0.1585 N.am      1 <0>        -0.6075
      4 C3          2.0246   -2.8593    1.5956 C.3       1 <0>         0.0951
      5 C4          0.5346   -3.0005    1.9131 C.3       1 <0>        -0.1818
      6 C5          2.3904   -1.9772   -0.6461 C.2       1 <0>         0.5626
      7 O1          2.5993   -2.1341   -1.8336 O.2       1 <0>        -0.5330
      8 C6          2.3043   -0.6150   -0.0859 C.ar      1 <0>        -0.1509
      9 C7          1.2462   -0.2714    0.7606 C.ar      1 <0>        -0.0804
     10 C8          1.1690    1.0000    1.2818 C.ar      1 <0>        -0.1549
     11 C9          2.1430    1.9433    0.9670 C.ar      1 <0>         0.1989
     12 C10         3.1978    1.6043    0.1244 C.ar      1 <0>        -0.1240
     13 C11         3.2808    0.3346   -0.4001 C.ar      1 <0>        -0.0470
     14 N2          2.0617    3.2286    1.4957 N.pl3     1 <0>        -0.6458
     15 C12         3.2188    3.9118    1.8385 C.ar      1 <0>         0.6189
     16 N3          3.1238    5.1700    2.2365 N.ar      1 <0>        -0.5857
     17 C13         4.2103    5.8537    2.5780 C.ar      1 <0>         0.3313
     18 C14         5.4662    5.2268    2.5005 C.ar      1 <0>        -0.1109
     19 C15         5.5186    3.8930    2.0676 C.ar      1 <0>         0.4711
     20 N4          4.3841    3.2829    1.7511 N.ar      1 <0>        -0.6077
     21 O2          6.7030    3.2419    1.9752 O.3       1 <0>        -0.2759
     22 C16         6.6646    1.8858    1.5262 C.3       1 <0>         0.0681
     23 C17         8.0860    1.3212    1.4866 C.3       1 <0>        -0.0861
     24 C18         8.9042    2.0729    0.4347 C.3       1 <0>        -0.1155
     25 C19        10.3257    1.5083    0.3950 C.3       1 <0>        -0.1201
     26 C20        10.2743    0.0222    0.0349 C.3       1 <0>        -0.1226
     27 C21         9.4561   -0.7295    1.0868 C.3       1 <0>        -0.1180
     28 C22         8.0347   -0.1649    1.1265 C.3       1 <0>        -0.1110
     29 N5          6.3913    6.1367    2.8941 N.2       1 <0>        -0.4478
     30 C23         5.7979    7.2531    3.2002 C.2       1 <0>         0.2618
     31 N6          4.4510    7.1294    3.0218 N.pl3     1 <0>        -0.5927
     32 H1          3.6142    7.8286    3.1660 H         1 <0>         0.4628
     33 H2          3.7617   -5.9257   -0.8058 H         1 <0>         0.0674
     34 H3          4.0931   -4.9321    0.6535 H         1 <0>         0.0554
     35 H4          4.3613   -4.2418   -0.9830 H         1 <0>         0.0602
     36 H5          1.9180   -4.3781   -1.4410 H         1 <0>         0.0851
     37 H6          1.6497   -5.0684    0.1955 H         1 <0>         0.0781
     38 H7          2.5919   -3.6192    2.1530 H         1 <0>         0.0789
     39 H8          2.3686   -1.8565    1.8890 H         1 <0>         0.0907
     40 H9          0.3747   -2.8591    2.9922 H         1 <0>         0.0726
     41 H10         0.1906   -4.0033    1.6197 H         1 <0>         0.0623
     42 H11        -0.0327   -2.2406    1.3556 H         1 <0>         0.0669
     43 H12         0.4904   -1.0029    1.0055 H         1 <0>         0.1448
     44 H13         0.3493    1.2674    1.9323 H         1 <0>         0.1317
     45 H14         3.9518    2.3385   -0.1183 H         1 <0>         0.1360
     46 H15         4.0997    0.0721   -1.0535 H         1 <0>         0.1296
     47 H16         1.0797    3.7022    1.6415 H         1 <0>         0.4542
     48 H17         6.0518    1.2881    2.2170 H         1 <0>         0.0723
     49 H18         6.2259    1.8455    0.5183 H         1 <0>         0.0720
     50 H19         8.5566    1.4433    2.4733 H         1 <0>         0.0825
     51 H20         8.4335    1.9508   -0.5520 H         1 <0>         0.0616
     52 H21         8.9412    3.1414    0.6936 H         1 <0>         0.0703
     53 H22        10.9139    2.0487   -0.3613 H         1 <0>         0.0629
     54 H23        10.7965    1.6304    1.3816 H         1 <0>         0.0628
     55 H24         9.8036   -0.0999   -0.9518 H         1 <0>         0.0621
     56 H25        11.2963   -0.3838    0.0064 H         1 <0>         0.0620
     57 H26         9.4191   -1.7979    0.8278 H         1 <0>         0.0647
     58 H27         9.9268   -0.6075    2.0735 H         1 <0>         0.0634
     59 H28         7.4465   -0.7053    1.8828 H         1 <0>         0.0650
     60 H29         7.5640   -0.2871    0.1398 H         1 <0>         0.0665
     61 H30         6.2977    8.1461    3.5455 H         1 <0>         0.2269
@<TRIPOS>BOND
     1    1    2 1
     2    1   33 1
     3    1   34 1
     4    1   35 1
     5    2    3 1
     6    2   36 1
     7    2   37 1
     8    3    4 1
     9    3    6 am
    10    4    5 1
    11    4   38 1
    12    4   39 1
    13    5   40 1
    14    5   41 1
    15    5   42 1
    16    6    7 2
    17    6    8 1
    18    8   13 ar
    19    8    9 ar
    20    9   10 ar
    21    9   43 1
    22   10   11 ar
    23   10   44 1
    24   11   12 ar
    25   11   14 1
    26   12   13 ar
    27   12   45 1
    28   13   46 1
    29   14   15 1
    30   14   47 1
    31   15   20 ar
    32   15   16 ar
    33   16   17 ar
    34   17   31 1
    35   17   18 ar
    36   18   19 ar
    37   18   29 1
    38   19   20 ar
    39   19   21 1
    40   21   22 1
    41   22   23 1
    42   22   48 1
    43   22   49 1
    44   23   28 1
    45   23   24 1
    46   23   50 1
    47   24   25 1
    48   24   51 1
    49   24   52 1
    50   25   26 1
    51   25   53 1
    52   25   54 1
    53   26   27 1
    54   26   55 1
    55   26   56 1
    56   27   28 1
    57   27   57 1
    58   27   58 1
    59   28   59 1
    60   28   60 1
    61   29   30 2
    62   30   31 1
    63   30   61 1
    64   31   32 1
@<TRIPOS>MOLECULE
ZINC03938688
   39    41     0     0     0
SMALL
USER_CHARGES

@<TRIPOS>ATOM
      1 C1         -0.0095    1.3826    0.0704 C.ar      1 <0>        -0.0343
      2 C2          0.5587    1.0580   -1.1482 C.ar      1 <0>        -0.1609
      3 C3          1.7655    0.3862   -1.1955 C.ar      1 <0>         0.1753
      4 C4          2.4129    0.0342   -0.0053 C.ar      1 <0>        -0.1954
      5 C5          1.8304    0.3669    1.2233 C.ar      1 <0>         0.1741
      6 C6          0.6231    1.0388    1.2514 C.ar      1 <0>        -0.1610
      7 F1          2.4463    0.0317    2.3781 F         1 <0>        -0.1212
      8 C7          3.6999   -0.6827   -0.0456 C.2       1 <0>         0.6210
      9 O1          4.7383   -0.0615   -0.1600 O.2       1 <0>        -0.4669
     10 N1          3.7255   -2.0272    0.0446 N.am      1 <0>        -0.3962
     11 C8          4.8314   -2.8210    0.1249 C.2       1 <0>         0.5948
     12 N2          4.4249   -4.0694    0.1979 N.2       1 <0>        -0.5873
     13 C9          3.0869   -4.1118    0.1675 C.2       1 <0>         0.5191
     14 N3          2.6183   -2.8904    0.0808 N.2       1 <0>        -0.3480
     15 N4          2.3148   -5.2702    0.2247 N.pl3     1 <0>        -0.6226
     16 C10         2.9267   -6.5079    0.4407 C.ar      1 <0>         0.2365
     17 C11         4.1432   -6.5760    1.1080 C.ar      1 <0>        -0.1584
     18 C12         4.7450   -7.8008    1.3202 C.ar      1 <0>         0.0098
     19 C13         4.1379   -8.9586    0.8692 C.ar      1 <0>        -0.7033
     20 C14         2.9269   -8.8944    0.2046 C.ar      1 <0>         0.0112
     21 C15         2.3170   -7.6734   -0.0063 C.ar      1 <0>        -0.1777
     22 S1          4.9094  -10.5191    1.1415 S.o2      1 <0>         2.7034
     23 O2          4.4084  -11.3993    0.1448 O.2       1 <0>        -0.9656
     24 O3          6.2977  -10.2630    1.3036 O.2       1 <0>        -0.9650
     25 N5          4.3605  -11.0895    2.5960 N.pl3     1 <0>        -1.2510
     26 N6          6.1422   -2.3912    0.1281 N.pl3     1 <0>        -0.7911
     27 F2          2.3185    0.0697   -2.3868 F         1 <0>        -0.1201
     28 H1         -0.9506    1.9116    0.0998 H         1 <0>         0.1546
     29 H2          0.0576    1.3300   -2.0654 H         1 <0>         0.1549
     30 H3          0.1721    1.2963    2.1984 H         1 <0>         0.1546
     31 H4          1.3525   -5.2176    0.1147 H         1 <0>         0.4325
     32 H5          4.6180   -5.6722    1.4601 H         1 <0>         0.1556
     33 H6          5.6909   -7.8544    1.8385 H         1 <0>         0.1456
     34 H7          2.4556   -9.8005   -0.1466 H         1 <0>         0.1475
     35 H8          1.3691   -7.6243   -0.5215 H         1 <0>         0.1387
     36 H9          3.7284  -10.5673    3.1145 H         1 <0>         0.4165
     37 H10         4.6709  -11.9458    2.9296 H         1 <0>         0.4206
     38 H11         6.3422   -1.4439    0.0694 H         1 <0>         0.4292
     39 H12         6.8640   -3.0364    0.1890 H         1 <0>         0.4303
@<TRIPOS>BOND
     1    1    6 ar
     2    1    2 ar
     3    1   28 1
     4    2    3 ar
     5    2   29 1
     6    3    4 ar
     7    3   27 1
     8    4    5 ar
     9    4    8 1
    10    5    6 ar
    11    5    7 1
    12    6   30 1
    13    8    9 2
    14    8   10 am
    15   10   14 1
    16   10   11 1
    17   11   12 2
    18   11   26 1
    19   12   13 1
    20   13   14 2
    21   13   15 1
    22   15   16 1
    23   15   31 1
    24   16   21 ar
    25   16   17 ar
    26   17   18 ar
    27   17   32 1
    28   18   19 ar
    29   18   33 1
    30   19   20 ar
    31   19   22 1
    32   20   21 ar
    33   20   34 1
    34   21   35 1
    35   22   23 2
    36   22   24 2
    37   22   25 1
    38   25   36 1
    39   25   37 1
    40   26   38 1
    41   26   39 1
@<TRIPOS>MOLECULE
ZINC13647791
   43    46     0     0     0
SMALL
USER_CHARGES

@<TRIPOS>ATOM
      1 C1         -0.0166    1.3699    0.0096 C.ar      1 <0>        -0.0800
      2 C2          1.1572    2.1045    0.0023 C.ar      1 <0>        -0.1190
      3 C3          2.3694    1.4373   -0.0129 C.ar      1 <0>        -0.0394
      4 C4          2.3887    0.0627   -0.0205 C.ar      1 <0>        -0.1883
      5 C5          1.2179   -0.7095   -0.0134 C.ar      1 <0>         0.1191
      6 C6          0.0021   -0.0041    0.0020 C.ar      1 <0>        -0.1207
      7 N1          1.3955   -2.0811   -0.0225 N.pl3     1 <0>        -0.6290
      8 C7          2.6545   -2.6113   -0.0374 C.2       1 <0>         0.2414
      9 C8          3.0385   -3.9533   -0.0487 C.2       1 <0>        -0.1370
     10 C9          2.0433   -4.9829   -0.0452 C.1       1 <0>         0.2720
     11 N2          1.2537   -5.7996   -0.0424 N.1       1 <0>        -0.4249
     12 C10         4.4680   -4.3104   -0.0642 C.ar      1 <0>         0.3088
     13 C11         4.8666   -5.6555   -0.0815 C.ar      1 <0>        -0.2844
     14 C12         6.2058   -5.9409   -0.0954 C.ar      1 <0>         0.2007
     15 N3          7.0848   -4.9482   -0.0923 N.ar      1 <0>        -0.5794
     16 C13         6.6886   -3.6836   -0.0759 C.ar      1 <0>         0.5826
     17 N4          5.4049   -3.3593   -0.0676 N.ar      1 <0>        -0.5825
     18 N5          7.6395   -2.6778   -0.0728 N.pl3     1 <0>        -0.7005
     19 C14         9.0646   -3.0170   -0.0875 C.3       1 <0>         0.1450
     20 C15         9.8948   -1.7318   -0.0805 C.3       1 <0>        -0.0888
     21 C16        11.3608   -2.0808   -0.0957 C.ar      1 <0>        -0.1340
     22 C17        12.0518   -2.2615    1.0929 C.ar      1 <0>        -0.0689
     23 C18        13.3992   -2.5815    1.0307 C.ar      1 <0>        -0.1701
     24 C19        14.0048   -2.7089   -0.2053 C.ar      1 <0>         0.0971
     25 N6         13.3163   -2.5294   -1.3154 N.ar      1 <0>        -0.4833
     26 C20        12.0320   -2.2302   -1.2943 C.ar      1 <0>         0.1060
     27 S1          3.6842   -1.1528   -0.0394 S.3       1 <0>         0.1837
     28 H1         -0.9648    1.8866    0.0260 H         1 <0>         0.1374
     29 H2          1.1270    3.1841    0.0081 H         1 <0>         0.1413
     30 H3          3.2952    1.9934   -0.0191 H         1 <0>         0.1400
     31 H4         -0.9301   -0.5494    0.0080 H         1 <0>         0.1308
     32 H5          0.6237   -2.6686   -0.0180 H         1 <0>         0.4164
     33 H6          4.1333   -6.4484   -0.0833 H         1 <0>         0.1381
     34 H7          6.5434   -6.9667   -0.1085 H         1 <0>         0.1667
     35 H8          7.3622   -1.7483   -0.0608 H         1 <0>         0.4130
     36 H9          9.3060   -3.6103    0.7944 H         1 <0>         0.0692
     37 H10         9.2920   -3.5916   -0.9854 H         1 <0>         0.0705
     38 H11         9.6534   -1.1385   -0.9624 H         1 <0>         0.0847
     39 H12         9.6674   -1.1572    0.8174 H         1 <0>         0.0829
     40 H13        11.5523   -2.1551    2.0445 H         1 <0>         0.1348
     41 H14        13.9686   -2.7291    1.9364 H         1 <0>         0.1364
     42 H15        15.0542   -2.9580   -0.2624 H         1 <0>         0.1564
     43 H16        11.4998   -2.0959   -2.2244 H         1 <0>         0.1551
@<TRIPOS>BOND
     1    1    6 ar
     2    1    2 ar
     3    1   28 1
     4    2    3 ar
     5    2   29 1
     6    3    4 ar
     7    3   30 1
     8    4   27 1
     9    4    5 ar
    10    5    6 ar
    11    5    7 1
    12    6   31 1
    13    7    8 1
    14    7   32 1
    15    8    9 2
    16    8   27 1
    17    9   10 1
    18    9   12 1
    19   10   11 3
    20   12   17 ar
    21   12   13 ar
    22   13   14 ar
    23   13   33 1
    24   14   15 ar
    25   14   34 1
    26   15   16 ar
    27   16   17 ar
    28   16   18 1
    29   18   19 1
    30   18   35 1
    31   19   20 1
    32   19   36 1
    33   19   37 1
    34   20   21 1
    35   20   38 1
    36   20   39 1
    37   21   26 ar
    38   21   22 ar
    39   22   23 ar
    40   22   40 1
    41   23   24 ar
    42   23   41 1
    43   24   25 ar
    44   24   42 1
    45   25   26 ar
    46   26   43 1
@<TRIPOS>MOLECULE
ZINC20148981
   43    46     0     0     0
SMALL
USER_CHARGES
4-[(3-chloro-4-fluoro-phenyl)amino]-6-(3-pyridylmethylamino)-1,7-naphthyridine-3-carbonitrile
@<TRIPOS>ATOM
      1 C1         10.2541   -0.9354    0.5420 C.ar      1 <0>        -0.1732
      2 C2          9.8850    0.4010    0.5178 C.ar      1 <0>        -0.0521
      3 C3          8.5751    0.7179    0.1929 C.ar      1 <0>        -0.1678
      4 C4          7.6868   -0.3015   -0.0940 C.ar      1 <0>         0.1226
      5 N1          8.0731   -1.5618   -0.0612 N.ar      1 <0>        -0.4844
      6 C5          9.3123   -1.8998    0.2380 C.ar      1 <0>         0.1107
      7 C6          8.1252    2.1557    0.1536 C.3       1 <0>         0.1749
      8 N2          8.3279    2.6941   -1.1937 N.pl3     1 <0>        -0.7156
      9 C7          7.9833    4.0138   -1.4753 C.ar      1 <0>         0.3994
     10 C8          7.4506    4.8044   -0.4730 C.ar      1 <0>        -0.2252
     11 C9          7.1107    6.1287   -0.7752 C.ar      1 <0>        -0.0294
     12 C10         7.3264    6.6028   -2.0934 C.ar      1 <0>         0.0388
     13 C11         7.8724    5.7216   -3.0393 C.ar      1 <0>         0.2226
     14 N3          8.1776    4.4907   -2.7002 N.ar      1 <0>        -0.5079
     15 N4          7.0115    7.8645   -2.4148 N.ar      1 <0>        -0.4253
     16 C12         6.5017    8.6939   -1.5407 C.ar      1 <0>         0.1518
     17 C13         6.2539    8.3090   -0.2119 C.ar      1 <0>        -0.0450
     18 C14         6.5607    7.0022    0.1925 C.ar      1 <0>         0.2347
     19 N5          6.3335    6.5826    1.4874 N.pl3     1 <0>        -0.6961
     20 C15         7.3317    6.7302    2.4554 C.ar      1 <0>         0.2083
     21 C16         8.5943    7.1799    2.0897 C.ar      1 <0>        -0.1478
     22 C17         9.5776    7.3296    3.0477 C.ar      1 <0>        -0.0932
     23 C18         9.3095    7.0219    4.3709 C.ar      1 <0>         0.0654
     24 C19         8.0526    6.5681    4.7377 C.ar      1 <0>        -0.0284
     25 C20         7.0641    6.4219    3.7828 C.ar      1 <0>        -0.1451
     26 Cl1         7.7193    6.1837    6.3975 Cl        1 <0>        -0.0410
     27 F1         10.2745    7.1647    5.3056 F         1 <0>        -0.1277
     28 C21         5.6940    9.2419    0.7191 C.1       1 <0>         0.2479
     29 N6          5.2499    9.9820    1.4577 N.1       1 <0>        -0.3824
     30 H1         11.2662   -1.2188    0.7909 H         1 <0>         0.1400
     31 H2         10.6011    1.1766    0.7462 H         1 <0>         0.1372
     32 H3          6.6645   -0.0630   -0.3476 H         1 <0>         0.1568
     33 H4          9.5931   -2.9426    0.2499 H         1 <0>         0.1599
     34 H5          7.0679    2.2127    0.4124 H         1 <0>         0.0786
     35 H6          8.7062    2.7379    0.8688 H         1 <0>         0.0777
     36 H7          8.7021    2.1315   -1.8896 H         1 <0>         0.4095
     37 H8          7.3005    4.4091    0.5208 H         1 <0>         0.1413
     38 H9          8.0463    6.0591   -4.0504 H         1 <0>         0.1831
     39 H10         6.2645    9.7015   -1.8488 H         1 <0>         0.1762
     40 H11         5.4814    6.1854    1.7260 H         1 <0>         0.4207
     41 H12         8.8055    7.4162    1.0573 H         1 <0>         0.1351
     42 H13        10.5580    7.6828    2.7640 H         1 <0>         0.1484
     43 H14         6.0846    6.0679    4.0685 H         1 <0>         0.1458
@<TRIPOS>BOND
     1    1    6 ar
     2    1    2 ar
     3    1   30 1
     4    2    3 ar
     5    2   31 1
     6    3    4 ar
     7    3    7 1
     8    4    5 ar
     9    4   32 1
    10    5    6 ar
    11    6   33 1
    12    7    8 1
    13    7   34 1
    14    7   35 1
    15    8    9 1
    16    8   36 1
    17    9   14 ar
    18    9   10 ar
    19   10   11 ar
    20   10   37 1
    21   11   18 ar
    22   11   12 ar
    23   12   13 ar
    24   12   15 ar
    25   13   14 ar
    26   13   38 1
    27   15   16 ar
    28   16   17 ar
    29   16   39 1
    30   17   18 ar
    31   17   28 1
    32   18   19 1
    33   19   20 1
    34   19   40 1
    35   20   25 ar
    36   20   21 ar
    37   21   22 ar
    38   21   41 1
    39   22   23 ar
    40   22   42 1
    41   23   24 ar
    42   23   27 1
    43   24   25 ar
    44   24   26 1
    45   25   43 1
    46   28   29 3
@<TRIPOS>MOLECULE
ZINC18230030
   32    35     0     0     0
SMALL
USER_CHARGES

@<TRIPOS>ATOM
      1 C1         -0.0024    1.3636   -0.3852 C.ar      1 <0>        -0.1425
      2 C2          1.1843    2.0764   -0.3355 C.ar      1 <0>        -0.0866
      3 C3          2.3918    1.4233   -0.1939 C.ar      1 <0>        -0.1380
      4 C4          2.4281    0.0365   -0.0988 C.ar      1 <0>         0.1367
      5 C5          1.2250   -0.6816   -0.1490 C.ar      1 <0>        -0.0800
      6 C6          0.0127   -0.0131   -0.2925 C.ar      1 <0>        -0.0826
      7 C7          1.5867   -2.1097   -0.0238 C.2       1 <0>        -0.2056
      8 C8          0.7284   -3.2007   -0.0213 C.2       1 <0>         0.2986
      9 C9         -0.7457   -3.1540    0.0907 C.2       1 <0>         0.1829
     10 N1         -1.5003   -2.0946    0.2062 N.2       1 <0>        -0.2631
     11 O1         -2.9062   -2.2339    0.3026 O.3       1 <0>        -0.3834
     12 C10        -1.1809   -4.5701    0.0427 C.ar      1 <0>        -0.1642
     13 C11        -2.4307   -5.1782    0.1013 C.ar      1 <0>        -0.0259
     14 C12        -2.5280   -6.5532    0.0311 C.ar      1 <0>        -0.1512
     15 C13        -1.3849   -7.3243   -0.0969 C.ar      1 <0>        -0.0586
     16 C14        -0.1407   -6.7311   -0.1555 C.ar      1 <0>        -0.1447
     17 C15        -0.0228   -5.3458   -0.0871 C.ar      1 <0>         0.1647
     18 N2          1.0909   -4.5168   -0.1279 N.pl3     1 <0>        -0.6175
     19 C16         3.0493   -2.1247    0.0967 C.2       1 <0>         0.5684
     20 O2          3.7472   -3.1157    0.2192 O.2       1 <0>        -0.5230
     21 N3          3.4842   -0.8541    0.0471 N.am      1 <0>        -0.6490
     22 H1         -0.9413    1.8865   -0.4922 H         1 <0>         0.1273
     23 H2          1.1645    3.1537   -0.4088 H         1 <0>         0.1294
     24 H3          3.3103    1.9903   -0.1572 H         1 <0>         0.1266
     25 H4         -0.9122   -0.5695   -0.3311 H         1 <0>         0.1639
     26 H5         -3.3798   -1.3948    0.3850 H         1 <0>         0.4132
     27 H6         -3.3218   -4.5764    0.2018 H         1 <0>         0.1385
     28 H7         -3.4969   -7.0283    0.0763 H         1 <0>         0.1358
     29 H8         -1.4681   -8.3998   -0.1510 H         1 <0>         0.1377
     30 H9          0.7438   -7.3428   -0.2549 H         1 <0>         0.1344
     31 H10         2.0048   -4.8291   -0.2181 H         1 <0>         0.4389
     32 H11         4.4164   -0.5923    0.1057 H         1 <0>         0.4189
@<TRIPOS>BOND
     1    1    6 ar
     2    1    2 ar
     3    1   22 1
     4    2    3 ar
     5    2   23 1
     6    3    4 ar
     7    3   24 1
     8    4   21 1
     9    4    5 ar
    10    5    6 ar
    11    5    7 1
    12    6   25 1
    13    7    8 2
    14    7   19 1
    15    8   18 1
    16    8    9 1
    17    9   10 2
    18    9   12 1
    19   10   11 1
    20   11   26 1
    21   12   17 ar
    22   12   13 ar
    23   13   14 ar
    24   13   27 1
    25   14   15 ar
    26   14   28 1
    27   15   16 ar
    28   15   29 1
    29   16   17 ar
    30   16   30 1
    31   17   18 1
    32   18   31 1
    33   19   20 2
    34   19   21 am
    35   21   32 1
@<TRIPOS>MOLECULE
ZINC18230030
   32    35     0     0     0
SMALL
USER_CHARGES

@<TRIPOS>ATOM
      1 C1         -0.0166    1.3748    0.0096 C.ar      1 <0>        -0.1225
      2 C2          1.1716    2.0888    0.0021 C.ar      1 <0>        -0.0962
      3 C3          2.3849    1.4332   -0.0130 C.ar      1 <0>        -0.1155
      4 C4          2.4239    0.0437   -0.0209 C.ar      1 <0>         0.0981
      5 C5          1.2204   -0.6769   -0.0133 C.ar      1 <0>        -0.0528
      6 C6          0.0021   -0.0041    0.0020 C.ar      1 <0>        -0.0805
      7 C7          1.5974   -2.1049   -0.0246 C.2       1 <0>        -0.2093
      8 C8          2.9936   -2.1364   -0.0381 C.2       1 <0>         0.3333
      9 N1          3.4675   -0.8669   -0.0358 N.pl3     1 <0>        -0.5789
     10 H1          4.4078   -0.6287   -0.0438 H         1 <0>         0.4230
     11 O1          3.7505   -3.2537   -0.0509 O.3       1 <0>        -0.4537
     12 C9          0.7262   -3.2100   -0.0222 C.2       1 <0>         0.3448
     13 C10         0.1967   -3.8930    1.1657 C.2       1 <0>        -0.1671
     14 C11        -0.6625   -4.9778    0.6376 C.ar      1 <0>        -0.0626
     15 C12        -1.4332   -5.9613    1.2492 C.ar      1 <0>        -0.0741
     16 C13        -2.1438   -6.8553    0.4745 C.ar      1 <0>        -0.1171
     17 C14        -2.0895   -6.7734   -0.9072 C.ar      1 <0>        -0.1048
     18 C15        -1.3281   -5.8025   -1.5238 C.ar      1 <0>        -0.1132
     19 C16        -0.6049   -4.8915   -0.7591 C.ar      1 <0>         0.0632
     20 N2          0.2180   -3.8346   -1.1211 N.pl3     1 <0>        -0.5424
     21 H2          0.4086   -3.5762   -2.0364 H         1 <0>         0.4251
     22 N3          0.4346   -3.6041    2.4257 N.2       1 <0>        -0.2807
     23 O2         -0.0801   -4.2653    3.3097 O.2       1 <0>         0.0258
     24 H3         -0.9601    1.9001    0.0260 H         1 <0>         0.1313
     25 H4          1.1469    3.1685    0.0078 H         1 <0>         0.1340
     26 H5          3.3046    1.9993   -0.0191 H         1 <0>         0.1285
     27 H6         -0.9243   -0.5592    0.0083 H         1 <0>         0.1229
     28 H7          3.9627   -3.5749   -0.9380 H         1 <0>         0.4047
     29 H8         -1.4750   -6.0251    2.3265 H         1 <0>         0.1455
     30 H9         -2.7428   -7.6202    0.9462 H         1 <0>         0.1335
     31 H10        -2.6482   -7.4764   -1.5072 H         1 <0>         0.1325
     32 H11        -1.2933   -5.7487   -2.6019 H         1 <0>         0.1251
@<TRIPOS>BOND
     1    1    6 ar
     2    1    2 ar
     3    1   24 1
     4    2    3 ar
     5    2   25 1
     6    3    4 ar
     7    3   26 1
     8    4    9 1
     9    4    5 ar
    10    5    6 ar
    11    5    7 1
    12    6   27 1
    13    7    8 2
    14    7   12 1
    15    8    9 1
    16    8   11 1
    17    9   10 1
    18   11   28 1
    19   12   20 1
    20   12   13 2
    21   13   14 1
    22   13   22 1
    23   14   19 ar
    24   14   15 ar
    25   15   16 ar
    26   15   29 1
    27   16   17 ar
    28   16   30 1
    29   17   18 ar
    30   17   31 1
    31   18   19 ar
    32   18   32 1
    33   19   20 1
    34   20   21 1
    35   22   23 2
@<TRIPOS>MOLECULE
ZINC18230030
   32    35     0     0     0
SMALL
USER_CHARGES

@<TRIPOS>ATOM
      1 C1         -0.0166    1.3757    0.0096 C.ar      1 <0>        -0.1357
      2 C2          1.1722    2.0867    0.0021 C.ar      1 <0>        -0.0871
      3 C3          2.3853    1.4289   -0.0135 C.ar      1 <0>        -0.1330
      4 C4          2.4252    0.0389   -0.0214 C.ar      1 <0>         0.1465
      5 C5          1.2200   -0.6774   -0.0133 C.ar      1 <0>        -0.0875
      6 C6          0.0021   -0.0041    0.0020 C.ar      1 <0>        -0.0793
      7 C7          1.5867   -2.1097   -0.0238 C.2       1 <0>        -0.2136
      8 C8          0.7284   -3.2007   -0.0213 C.2       1 <0>         0.3077
      9 C9          1.1246   -4.6257   -0.0260 C.2       1 <0>         0.1435
     10 N1          2.3359   -5.1133   -0.0337 N.2       1 <0>        -0.2047
     11 O1          2.5348   -6.5152   -0.0374 O.3       1 <0>        -0.3879
     12 C10        -0.1511   -5.3804   -0.0197 C.ar      1 <0>        -0.1524
     13 C11        -0.4460   -6.7399   -0.0207 C.ar      1 <0>        -0.0325
     14 C12        -1.7620   -7.1560   -0.0139 C.ar      1 <0>        -0.1476
     15 C13        -2.7850   -6.2226   -0.0067 C.ar      1 <0>        -0.0650
     16 C14        -2.5032   -4.8720   -0.0061 C.ar      1 <0>        -0.1436
     17 C15        -1.1821   -4.4335   -0.0119 C.ar      1 <0>         0.1573
     18 N2         -0.6401   -3.1547   -0.0078 N.pl3     1 <0>        -0.6231
     19 C16         3.0542   -2.1288   -0.0380 C.2       1 <0>         0.5661
     20 O2          3.7569   -3.1240   -0.0505 O.2       1 <0>        -0.4814
     21 N3          3.4872   -0.8566   -0.0360 N.am      1 <0>        -0.6546
     22 H1         -0.9596    1.9020    0.0260 H         1 <0>         0.1299
     23 H2          1.1495    3.1665    0.0081 H         1 <0>         0.1317
     24 H3          3.3053    1.9946   -0.0200 H         1 <0>         0.1287
     25 H4         -0.9244   -0.5591    0.0079 H         1 <0>         0.1145
     26 H5          3.4646   -6.7806   -0.0431 H         1 <0>         0.4151
     27 H6          0.3522   -7.4674   -0.0270 H         1 <0>         0.1376
     28 H7         -1.9942   -8.2107   -0.0147 H         1 <0>         0.1348
     29 H8         -3.8126   -6.5549   -0.0018 H         1 <0>         0.1367
     30 H9         -3.3094   -4.1534   -0.0008 H         1 <0>         0.1326
     31 H10        -1.1620   -2.3371    0.0014 H         1 <0>         0.4278
     32 H11         4.4217   -0.5969   -0.0438 H         1 <0>         0.4186
@<TRIPOS>BOND
     1    1    6 ar
     2    1    2 ar
     3    1   22 1
     4    2    3 ar
     5    2   23 1
     6    3    4 ar
     7    3   24 1
     8    4   21 1
     9    4    5 ar
    10    5    6 ar
    11    5    7 1
    12    6   25 1
    13    7    8 2
    14    7   19 1
    15    8   18 1
    16    8    9 1
    17    9   10 2
    18    9   12 1
    19   10   11 1
    20   11   26 1
    21   12   17 ar
    22   12   13 ar
    23   13   14 ar
    24   13   27 1
    25   14   15 ar
    26   14   28 1
    27   15   16 ar
    28   15   29 1
    29   16   17 ar
    30   16   30 1
    31   17   18 1
    32   18   31 1
    33   19   20 2
    34   19   21 am
    35   21   32 1
@<TRIPOS>MOLECULE
ZINC03960707
   29    30     0     0     0
SMALL
USER_CHARGES

@<TRIPOS>ATOM
      1 C1         -0.0169    1.3916    0.0097 C.ar      1 <0>        -0.0852
      2 C2          1.1697    2.0949    0.0021 C.ar      1 <0>        -0.1431
      3 C3          2.3789    1.4185   -0.0135 C.ar      1 <0>         0.0976
      4 C4          2.4036    0.0330   -0.0212 C.ar      1 <0>        -0.1452
      5 C5          1.2231   -0.6803   -0.0137 C.ar      1 <0>        -0.0781
      6 C6          0.0021   -0.0041    0.0020 C.ar      1 <0>        -0.0007
      7 C7         -1.2663   -0.7632    0.0105 C.2       1 <0>        -0.2065
      8 C8         -1.4491   -2.1118    0.0107 C.2       1 <0>        -0.0829
      9 C9         -2.7731   -2.5575    0.0207 C.2       1 <0>        -0.2667
     10 C10        -3.7751   -1.5939    0.0295 C.2       1 <0>         0.0994
     11 S1         -2.9347   -0.1400    0.0311 S.3       1 <0>         0.3342
     12 N1         -5.1466   -1.7878    0.0397 N.am      1 <0>        -0.6198
     13 C11        -5.9772   -0.7264    0.0473 C.2       1 <0>         0.6992
     14 O1         -5.5226    0.4012    0.0452 O.2       1 <0>        -0.5593
     15 N2         -7.3116   -0.9150    0.0572 N.am      1 <0>        -0.8471
     16 C12        -3.0940   -3.9887    0.0214 C.2       1 <0>         0.5918
     17 O2         -4.2556   -4.3519    0.0297 O.2       1 <0>        -0.5653
     18 N3         -2.1026   -4.9016    0.0128 N.am      1 <0>        -0.8480
     19 F1          3.5381    2.1123   -0.0217 F         1 <0>        -0.1375
     20 H1         -0.9587    1.9198    0.0260 H         1 <0>         0.1345
     21 H2          1.1562    3.1748    0.0081 H         1 <0>         0.1408
     22 H3          3.3488   -0.4892   -0.0334 H         1 <0>         0.1400
     23 H4          1.2434   -1.7601   -0.0204 H         1 <0>         0.1352
     24 H5         -0.6164   -2.7996    0.0032 H         1 <0>         0.1418
     25 H6         -5.5092   -2.6875    0.0414 H         1 <0>         0.4318
     26 H7         -7.6743   -1.8147    0.0589 H         1 <0>         0.4057
     27 H8         -7.9094   -0.1512    0.0627 H         1 <0>         0.4259
     28 H9         -1.1768   -4.6121    0.0061 H         1 <0>         0.4018
     29 H10        -2.3148   -5.8481    0.0132 H         1 <0>         0.4056
@<TRIPOS>BOND
     1    1    6 ar
     2    1    2 ar
     3    1   20 1
     4    2    3 ar
     5    2   21 1
     6    3    4 ar
     7    3   19 1
     8    4    5 ar
     9    4   22 1
    10    5    6 ar
    11    5   23 1
    12    6    7 1
    13    7   11 1
    14    7    8 2
    15    8    9 1
    16    8   24 1
    17    9   10 2
    18    9   16 1
    19   10   11 1
    20   10   12 1
    21   12   13 am
    22   12   25 1
    23   13   14 2
    24   13   15 am
    25   15   26 1
    26   15   27 1
    27   16   17 2
    28   16   18 am
    29   18   28 1
    30   18   29 1
@<TRIPOS>MOLECULE
ZINC14806879
   29    31     0     0     0
SMALL
USER_CHARGES

@<TRIPOS>ATOM
      1 C1         -0.0173    1.4248    0.0099 C.3       1 <0>         0.0271
      2 O1          0.0021   -0.0041    0.0020 O.3       1 <0>        -0.3168
      3 C2         -1.2010   -0.6378    0.0101 C.ar      1 <0>         0.1024
      4 C3         -2.3765    0.1026    0.0196 C.ar      1 <0>        -0.1700
      5 C4         -3.6033   -0.5286    0.0283 C.ar      1 <0>        -0.1033
      6 C5         -3.6754   -1.9173    0.0273 C.ar      1 <0>         0.1187
      7 C6         -2.4893   -2.6625    0.0173 C.ar      1 <0>        -0.0676
      8 C7         -1.2551   -2.0214    0.0032 C.ar      1 <0>        -0.0969
      9 C8         -2.8914   -4.0876    0.0188 C.2       1 <0>        -0.1578
     10 C9         -2.0671   -5.1903    0.0116 C.2       1 <0>         0.0629
     11 C10        -2.6439   -6.5349    0.0144 C.2       1 <0>        -0.0242
     12 C11        -1.9450   -7.7254    0.0136 C.2       1 <0>        -0.0035
     13 N1         -2.8729   -8.7189    0.0171 N.pl3     1 <0>        -0.5670
     14 H1         -2.6907   -9.6716    0.0177 H         1 <0>         0.4219
     15 C12        -4.1014   -8.1382    0.0200 C.2       1 <0>         0.1702
     16 N2         -3.9675   -6.8441    0.0243 N.2       1 <0>        -0.4045
     17 C13        -4.3615   -4.0702    0.0302 C.2       1 <0>         0.5403
     18 O2         -5.0890   -5.0470    0.0353 O.2       1 <0>        -0.4371
     19 N3         -4.7617   -2.7874    0.0347 N.am      1 <0>        -0.6638
     20 H2          1.0053    1.8021    0.0021 H         1 <0>         0.1005
     21 H3         -0.5445    1.7859   -0.8732 H         1 <0>         0.0556
     22 H4         -0.5275    1.7763    0.9067 H         1 <0>         0.0557
     23 H5         -2.3296    1.1815    0.0204 H         1 <0>         0.1351
     24 H6         -4.5103    0.0577    0.0364 H         1 <0>         0.1299
     25 H7         -0.3432   -2.6000   -0.0090 H         1 <0>         0.1360
     26 H8         -0.9947   -5.0627    0.0038 H         1 <0>         0.1494
     27 H9         -0.8715   -7.8442    0.0104 H         1 <0>         0.1860
     28 H10        -5.0423   -8.6684    0.0231 H         1 <0>         0.2076
     29 H11        -5.6893   -2.5039    0.0425 H         1 <0>         0.4133
@<TRIPOS>BOND
     1    1    2 1
     2    1   20 1
     3    1   21 1
     4    1   22 1
     5    2    3 1
     6    3    8 ar
     7    3    4 ar
     8    4    5 ar
     9    4   23 1
    10    5    6 ar
    11    5   24 1
    12    6   19 1
    13    6    7 ar
    14    7    8 ar
    15    7    9 1
    16    8   25 1
    17    9   10 2
    18    9   17 1
    19   10   11 1
    20   10   26 1
    21   11   16 1
    22   11   12 2
    23   12   13 1
    24   12   27 1
    25   13   14 1
    26   13   15 1
    27   15   16 2
    28   15   28 1
    29   17   18 2
    30   17   19 am
    31   19   29 1
@<TRIPOS>MOLECULE
ZINC05543794
   21    23     0     0     0
SMALL
USER_CHARGES

@<TRIPOS>ATOM
      1 C1         -0.0163    1.3527    0.0095 C.ar      1 <0>        -0.0635
      2 C2          1.1612    2.1035    0.0023 C.ar      1 <0>        -0.1294
      3 C3          2.3831    1.5141   -0.0125 C.ar      1 <0>        -0.0550
      4 C4          2.4778    0.1046   -0.0210 C.ar      1 <0>         0.0435
      5 C5          1.2394   -0.6850   -0.0134 C.ar      1 <0>         0.1976
      6 C6          0.0021   -0.0041    0.0020 C.ar      1 <0>        -0.1172
      7 N1          1.2901   -2.0114   -0.0214 N.ar      1 <0>        -0.4516
      8 C7          2.4776   -2.6261   -0.0365 C.ar      1 <0>         0.2767
      9 N2          2.8446   -3.8974   -0.0474 N.2       1 <0>        -0.3119
     10 N3          4.2400   -3.9788   -0.0615 N.pl3     1 <0>        -0.4269
     11 C8          4.7757   -2.7519   -0.0597 C.2       1 <0>         0.4417
     12 C9          3.7179   -1.8266   -0.0441 C.ar      1 <0>        -0.0971
     13 N4          3.6585   -0.5007   -0.0360 N.ar      1 <0>        -0.3393
     14 N5          6.1245   -2.4501   -0.0707 N.pl3     1 <0>        -0.8124
     15 H1         -0.9667    1.8654    0.0259 H         1 <0>         0.1355
     16 H2          1.0974    3.1816    0.0083 H         1 <0>         0.1339
     17 H3          3.2779    2.1188   -0.0182 H         1 <0>         0.1379
     18 H4         -0.9239   -0.5599    0.0075 H         1 <0>         0.1424
     19 H5          6.7812   -3.1639   -0.0812 H         1 <0>         0.4129
     20 H6          6.4144   -1.5244   -0.0679 H         1 <0>         0.4310
     21 H7          4.7472   -4.8055   -0.0711 H         1 <0>         0.4514
@<TRIPOS>BOND
     1    1    6 ar
     2    1    2 ar
     3    1   15 1
     4    2    3 ar
     5    2   16 1
     6    3    4 ar
     7    3   17 1
     8    4   13 ar
     9    4    5 ar
    10    5    6 ar
    11    5    7 ar
    12    6   18 1
    13    7    8 ar
    14    8   12 ar
    15    8    9 2
    16    9   10 1
    17   10   11 1
    18   10   21 1
    19   11   14 1
    20   11   12 2
    21   12   13 ar
    22   14   19 1
    23   14   20 1
@<TRIPOS>MOLECULE
ZINC12355112
   41    43     0     0     0
SMALL
USER_CHARGES

@<TRIPOS>ATOM
      1 C1         -0.1028    1.0961   -0.3671 C.ar      1 <0>        -0.0514
      2 C2          0.1939    0.2453    0.6818 C.ar      1 <0>        -0.1484
      3 C3          1.4264   -0.3800    0.7402 C.ar      1 <0>         0.1639
      4 C4          2.3673   -0.1521   -0.2572 C.ar      1 <0>         0.0453
      5 C5          2.0653    0.7038   -1.3099 C.ar      1 <0>         0.1303
      6 C6          0.8305    1.3253   -1.3612 C.ar      1 <0>        -0.1508
      7 F1          2.9766    0.9287   -2.2816 F         1 <0>        -0.1242
      8 N1          3.6170   -0.7832   -0.2014 N.pl3     1 <0>        -0.5829
      9 C7          3.7027   -2.0774    0.1649 C.2       1 <0>         0.5287
     10 S1          2.2783   -2.9758    0.4732 S.2       1 <0>        -0.4610
     11 N2          4.9096   -2.6643    0.2886 N.pl3     1 <0>        -0.3704
     12 C8          5.1565   -3.9777    0.5555 C.2       1 <0>         0.6130
     13 N3          6.4609   -4.1414    0.5939 N.2       1 <0>        -0.5881
     14 C9          7.0702   -2.9726    0.3596 C.2       1 <0>         0.5344
     15 N4          6.1641   -2.0459    0.1621 N.2       1 <0>        -0.3900
     16 N5          8.4494   -2.7737    0.3248 N.pl3     1 <0>        -0.6253
     17 C10         9.3156   -3.8654    0.4276 C.ar      1 <0>         0.2308
     18 C11         8.9430   -5.1006   -0.0877 C.ar      1 <0>        -0.1475
     19 C12         9.8015   -6.1774    0.0157 C.ar      1 <0>         0.0049
     20 C13        11.0306   -6.0273    0.6313 C.ar      1 <0>        -0.6997
     21 C14        11.4044   -4.7993    1.1458 C.ar      1 <0>         0.0107
     22 C15        10.5534   -3.7167    1.0403 C.ar      1 <0>        -0.1718
     23 S2         12.1228   -7.4039    0.7609 S.o2      1 <0>         2.7036
     24 O1         12.9813   -7.1389    1.8619 O.2       1 <0>        -0.9640
     25 O2         11.3155   -8.5710    0.6881 O.2       1 <0>        -0.9611
     26 N6         13.0757   -7.4022   -0.5934 N.pl3     1 <0>        -1.2489
     27 N7          4.2074   -4.9604    0.7511 N.pl3     1 <0>        -0.7789
     28 F2          1.7155   -1.2107    1.7657 F         1 <0>        -0.0889
     29 H1         -1.0676    1.5793   -0.4122 H         1 <0>         0.1524
     30 H2         -0.5376    0.0691    1.4566 H         1 <0>         0.1538
     31 H3          0.5950    1.9905   -2.1789 H         1 <0>         0.1534
     32 H4          4.4206   -0.2887   -0.4264 H         1 <0>         0.4283
     33 H5          8.8079   -1.8774    0.2293 H         1 <0>         0.4322
     34 H6          7.9831   -5.2186   -0.5683 H         1 <0>         0.1467
     35 H7          9.5123   -7.1380   -0.3844 H         1 <0>         0.1464
     36 H8         12.3649   -4.6855    1.6262 H         1 <0>         0.1476
     37 H9         10.8481   -2.7567    1.4378 H         1 <0>         0.1386
     38 H10        13.9781   -7.7554   -0.5519 H         1 <0>         0.4215
     39 H11        12.7314   -7.0480   -1.4282 H         1 <0>         0.4170
     40 H12         3.2665   -4.7264    0.7830 H         1 <0>         0.4323
     41 H13         4.4811   -5.8849    0.8567 H         1 <0>         0.4174
@<TRIPOS>BOND
     1    1    6 ar
     2    1    2 ar
     3    1   29 1
     4    2    3 ar
     5    2   30 1
     6    3    4 ar
     7    3   28 1
     8    4    5 ar
     9    4    8 1
    10    5    6 ar
    11    5    7 1
    12    6   31 1
    13    8    9 1
    14    8   32 1
    15    9   10 2
    16    9   11 1
    17   11   15 1
    18   11   12 1
    19   12   13 2
    20   12   27 1
    21   13   14 1
    22   14   15 2
    23   14   16 1
    24   16   17 1
    25   16   33 1
    26   17   22 ar
    27   17   18 ar
    28   18   19 ar
    29   18   34 1
    30   19   20 ar
    31   19   35 1
    32   20   21 ar
    33   20   23 1
    34   21   22 ar
    35   21   36 1
    36   22   37 1
    37   23   24 2
    38   23   25 2
    39   23   26 1
    40   26   38 1
    41   26   39 1
    42   27   40 1
    43   27   41 1
@<TRIPOS>MOLECULE
ZINC16052815
   18    18     0     0     0
SMALL
USER_CHARGES
(E)-3-(2,3,4,5-tetrabromophenyl)prop-2-enoic acid
@<TRIPOS>ATOM
      1 C1         -0.0126    1.0758    0.0080 C.ar      1 <0>        -0.0765
      2 C2          1.1885    1.7933    0.0003 C.ar      1 <0>         0.0307
      3 C3          1.1599    3.1925    0.0076 C.ar      1 <0>        -0.0638
      4 C4         -0.0519    3.8544    0.0223 C.ar      1 <0>        -0.0371
      5 C5         -1.2365    3.1367    0.0297 C.ar      1 <0>        -0.0675
      6 C6         -1.2151    1.7505    0.0173 C.ar      1 <0>        -0.0460
      7 Br1        -2.8395    0.7824    0.0204 Br        1 <0>        -0.0097
      8 Br2        -2.8910    4.0520    0.0498 Br        1 <0>        -0.0021
      9 Br3        -0.0942    5.7450    0.0316 Br        1 <0>         0.0016
     10 Br4         2.7763    4.1740   -0.0019 Br        1 <0>         0.0021
     11 C7          2.4750    1.0806   -0.0157 C.2       1 <0>        -0.1499
     12 C8          2.4988   -0.2691   -0.0232 C.2       1 <0>        -0.0995
     13 C9          3.7773   -0.9774   -0.0392 C.2       1 <0>         0.4700
     14 O1          4.8197   -0.3507   -0.0458 O.co2     1 <0>        -0.6220
     15 H1          0.0021   -0.0041    0.0020 H         1 <0>         0.1612
     16 H2          3.4006    1.6370   -0.0216 H         1 <0>         0.1483
     17 H3          1.5732   -0.8255   -0.0173 H         1 <0>         0.1113
     18 O2          3.8011   -2.3263   -0.0466 O.co2     1 <0>        -0.7512
@<TRIPOS>BOND
     1    1    6 ar
     2    1    2 ar
     3    1   15 1
     4    2    3 ar
     5    2   11 1
     6    3    4 ar
     7    3   10 1
     8    4    5 ar
     9    4    9 1
    10    5    6 ar
    11    5    8 1
    12    6    7 1
    13   11   12 2
    14   11   16 1
    15   12   13 1
    16   12   17 1
    17   13   14 2
    18   13   18 1
@<TRIPOS>MOLECULE
ZINC03872984
   56    63     0     0     0
SMALL
USER_CHARGES

@<TRIPOS>ATOM
      1 C1         -1.1449    0.9207   -2.2992 C.3       1 <0>        -0.1734
      2 C2         -0.8443   -0.1869   -1.2874 C.3       1 <0>         0.3608
      3 C3          0.6608   -0.5271   -1.2917 C.3       1 <0>         0.1089
      4 C4          1.0548   -0.6349    0.1959 C.3       1 <0>        -0.1931
      5 C5         -0.2437   -0.3496    0.9788 C.3       1 <0>         0.3159
      6 H1         -0.0464    0.3283    1.8093 H         1 <0>         0.1526
      7 O1         -1.1290    0.2586    0.0385 O.3       1 <0>        -0.3365
      8 N1         -0.7907   -1.6169    1.4725 N.pl3     1 <0>        -0.5139
      9 C6         -0.6316   -2.1589    2.7227 C.ar      1 <0>         0.1521
     10 C7          0.1280   -1.7303    3.8106 C.ar      1 <0>        -0.1535
     11 C8          0.0716   -2.4964    4.9622 C.ar      1 <0>        -0.0728
     12 C9         -0.6995   -3.6426    5.0489 C.ar      1 <0>        -0.1588
     13 C10        -1.4586   -4.0939    3.9832 C.ar      1 <0>        -0.0351
     14 C11        -1.4138   -3.3367    2.8110 C.ar      1 <0>        -0.1065
     15 C12        -2.0522   -3.5178    1.5109 C.ar      1 <0>         0.0000
     16 C13        -1.6151   -2.4505    0.7283 C.ar      1 <0>         0.1116
     17 C14        -1.9686   -2.3749   -0.6239 C.ar      1 <0>         0.1598
     18 N2         -1.6213   -1.3899   -1.6007 N.pl3     1 <0>        -0.5050
     19 C15        -2.1482   -1.7391   -2.8210 C.ar      1 <0>         0.1774
     20 C16        -2.0102   -1.1429   -4.0736 C.ar      1 <0>        -0.1496
     21 C17        -2.6914   -1.7253   -5.1291 C.ar      1 <0>        -0.0801
     22 C18        -3.4791   -2.8511   -4.9669 C.ar      1 <0>        -0.1542
     23 C19        -3.6271   -3.4663   -3.7348 C.ar      1 <0>        -0.0533
     24 C20        -2.9440   -2.8977   -2.6603 C.ar      1 <0>        -0.0998
     25 C21        -2.7951   -3.3523   -1.1935 C.ar      1 <0>        -0.0500
     26 C22        -3.2927   -4.3756   -0.3931 C.ar      1 <0>        -0.0443
     27 C23        -2.9346   -4.4703    0.9497 C.ar      1 <0>        -0.1321
     28 C24        -3.6117   -5.6413    1.5281 C.2       1 <0>         0.5681
     29 O2         -3.5170   -5.9945    2.6881 O.2       1 <0>        -0.5237
     30 N3         -4.3501   -6.2651    0.5950 N.am      1 <0>        -0.7231
     31 C25        -4.2144   -5.5378   -0.6718 C.3       1 <0>         0.1445
     32 C26         1.4435    0.5727   -1.9615 C.2       1 <0>         0.4474
     33 O3          1.9444    1.4488   -1.2970 O.2       1 <0>        -0.4796
     34 O4          1.5843    0.5792   -3.2964 O.3       1 <0>        -0.3367
     35 C27         2.3389    1.6518   -3.8640 C.3       1 <0>         0.0263
     36 O5          0.8858   -1.7724   -1.9557 O.3       1 <0>        -0.5063
     37 H2         -0.8247    1.8803   -1.8932 H         1 <0>         0.0927
     38 H3         -0.6079    0.7211   -3.2265 H         1 <0>         0.1054
     39 H4         -2.2161    0.9498   -2.4986 H         1 <0>         0.0969
     40 H5          1.4184   -1.6379    0.4192 H         1 <0>         0.1158
     41 H6          1.8148    0.1070    0.4406 H         1 <0>         0.1253
     42 H7          0.7351   -0.8387    3.7568 H         1 <0>         0.1302
     43 H8          0.6489   -2.1895    5.8218 H         1 <0>         0.1266
     44 H9         -0.7088   -4.2005    5.9737 H         1 <0>         0.1257
     45 H10        -2.0581   -4.9894    4.0552 H         1 <0>         0.1522
     46 H11        -1.3985   -0.2640   -4.2147 H         1 <0>         0.1366
     47 H12        -2.6051   -1.2859   -6.1119 H         1 <0>         0.1259
     48 H13        -3.9928   -3.2611   -5.8239 H         1 <0>         0.1251
     49 H14        -4.2422   -4.3455   -3.6122 H         1 <0>         0.1356
     50 H15        -4.8835   -7.0630    0.7354 H         1 <0>         0.4273
     51 H16        -5.1877   -5.1737   -1.0009 H         1 <0>         0.1006
     52 H17        -3.7798   -6.1869   -1.4321 H         1 <0>         0.1012
     53 H18         2.3752    1.5370   -4.9473 H         1 <0>         0.1105
     54 H19         1.8648    2.6011   -3.6149 H         1 <0>         0.0661
     55 H20         3.3522    1.6353   -3.4627 H         1 <0>         0.0654
     56 H21         1.8150   -2.0380   -1.9892 H         1 <0>         0.3910
@<TRIPOS>BOND
     1    1    2 1
     2    1   37 1
     3    1   38 1
     4    1   39 1
     5    2    7 1
     6    2   18 1
     7    2    3 1
     8    3    4 1
     9    3   32 1
    10    3   36 1
    11    4    5 1
    12    4   40 1
    13    4   41 1
    14    5    6 1
    15    5    7 1
    16    5    8 1
    17    8   16 1
    18    8    9 1
    19    9   14 ar
    20    9   10 ar
    21   10   11 ar
    22   10   42 1
    23   11   12 ar
    24   11   43 1
    25   12   13 ar
    26   12   44 1
    27   13   14 ar
    28   13   45 1
    29   14   15 1
    30   15   27 ar
    31   15   16 ar
    32   16   17 ar
    33   17   25 ar
    34   17   18 1
    35   18   19 1
    36   19   24 ar
    37   19   20 ar
    38   20   21 ar
    39   20   46 1
    40   21   22 ar
    41   21   47 1
    42   22   23 ar
    43   22   48 1
    44   23   24 ar
    45   23   49 1
    46   24   25 1
    47   25   26 ar
    48   26   31 1
    49   26   27 ar
    50   27   28 1
    51   28   29 2
    52   28   30 am
    53   30   31 1
    54   30   50 1
    55   31   51 1
    56   31   52 1
    57   32   33 2
    58   32   34 1
    59   34   35 1
    60   35   53 1
    61   35   54 1
    62   35   55 1
    63   36   56 1
@<TRIPOS>MOLECULE
ZINC11757505
   38    41     0     0     0
SMALL
USER_CHARGES

@<TRIPOS>ATOM
      1 C1         -0.0281    1.3907   -0.0583 C.ar      1 <0>        -0.0637
      2 C2          1.1566    2.0988   -0.0445 C.ar      1 <0>        -0.1515
      3 C3          2.3755    1.4194   -0.0134 C.ar      1 <0>         0.0165
      4 C4          2.3912    0.0249    0.0036 C.ar      1 <0>        -0.1940
      5 C5          1.1960   -0.6773   -0.0105 C.ar      1 <0>         0.2223
      6 C6         -0.0129    0.0089   -0.0415 C.ar      1 <0>        -0.1899
      7 N1          1.2061   -2.0741    0.0060 N.pl3     1 <0>        -0.8776
      8 C7          3.6462    2.1757    0.0009 C.2       1 <0>         0.1184
      9 C8          3.7528    3.5283   -0.0083 C.2       1 <0>        -0.1291
     10 C9          5.1781    3.8379    0.0121 C.ar      1 <0>        -0.2188
     11 C10         5.8544    2.6012    0.0331 C.ar      1 <0>         0.3514
     12 N2          4.9052    1.6157    0.0318 N.pl3     1 <0>        -0.5609
     13 H1          5.0909    0.6638    0.0474 H         1 <0>         0.4244
     14 N3          7.1853    2.6052    0.0545 N.ar      1 <0>        -0.5471
     15 C11         7.8538    3.7386    0.0561 C.ar      1 <0>         0.3574
     16 N4          7.2598    4.9181    0.0374 N.ar      1 <0>        -0.5825
     17 C12         5.9356    5.0184    0.0148 C.ar      1 <0>         0.4158
     18 O1          5.3318    6.2305   -0.0048 O.3       1 <0>        -0.2347
     19 C13         6.1156    7.3356    0.1003 C.ar      1 <0>         0.1036
     20 C14         6.1912    8.0217    1.3047 C.ar      1 <0>        -0.1224
     21 C15         6.9875    9.1454    1.4120 C.ar      1 <0>        -0.0898
     22 C16         7.7107    9.5894    0.3212 C.ar      1 <0>        -0.1384
     23 C17         7.6386    8.9072   -0.8849 C.ar      1 <0>         0.1193
     24 C18         6.8450    7.7755   -0.9935 C.ar      1 <0>        -0.1339
     25 O2          8.3493    9.3449   -1.9573 O.3       1 <0>        -0.4959
     26 H2         -0.9702    1.9184   -0.0778 H         1 <0>         0.1299
     27 H3          1.1405    3.1786   -0.0581 H         1 <0>         0.1290
     28 H4          3.3313   -0.5061    0.0273 H         1 <0>         0.1162
     29 H5         -0.9431   -0.5398   -0.0525 H         1 <0>         0.1239
     30 H6          2.0496   -2.5527    0.0273 H         1 <0>         0.3988
     31 H7          0.3698   -2.5653   -0.0039 H         1 <0>         0.4008
     32 H8          2.9395    4.2385   -0.0275 H         1 <0>         0.1628
     33 H9          8.9331    3.7028    0.0738 H         1 <0>         0.2064
     34 H10         5.6267    7.6768    2.1584 H         1 <0>         0.1335
     35 H11         7.0447    9.6780    2.3498 H         1 <0>         0.1374
     36 H12         8.3323   10.4684    0.4076 H         1 <0>         0.1351
     37 H13         6.7910    7.2405   -1.9302 H         1 <0>         0.1328
     38 H14         9.2366    8.9660   -2.0224 H         1 <0>         0.3945
@<TRIPOS>BOND
     1    1    6 ar
     2    1    2 ar
     3    1   26 1
     4    2    3 ar
     5    2   27 1
     6    3    4 ar
     7    3    8 1
     8    4    5 ar
     9    4   28 1
    10    5    6 ar
    11    5    7 1
    12    6   29 1
    13    7   30 1
    14    7   31 1
    15    8   12 1
    16    8    9 2
    17    9   10 1
    18    9   32 1
    19   10   17 ar
    20   10   11 ar
    21   11   12 1
    22   11   14 ar
    23   12   13 1
    24   14   15 ar
    25   15   16 ar
    26   15   33 1
    27   16   17 ar
    28   17   18 1
    29   18   19 1
    30   19   24 ar
    31   19   20 ar
    32   20   21 ar
    33   20   34 1
    34   21   22 ar
    35   21   35 1
    36   22   23 ar
    37   22   36 1
    38   23   24 ar
    39   23   25 1
    40   24   37 1
    41   25   38 1
@<TRIPOS>MOLECULE
ZINC18128386
   32    35     0     0     0
SMALL
USER_CHARGES

@<TRIPOS>ATOM
      1 C1         -0.0144    1.3783   -0.0475 C.ar      1 <0>        -0.1490
      2 C2          1.1682    2.0823    0.1064 C.ar      1 <0>        -0.0585
      3 C3          2.3772    1.4201    0.1626 C.ar      1 <0>        -0.1423
      4 C4          2.4194    0.0322    0.0651 C.ar      1 <0>         0.1621
      5 C5          1.2216   -0.6755   -0.0898 C.ar      1 <0>        -0.1630
      6 C6          0.0078    0.0017   -0.1459 C.ar      1 <0>        -0.0258
      7 C7          1.5784   -2.1123   -0.1637 C.2       1 <0>         0.1819
      8 N1          0.7676   -3.1257   -0.3075 N.2       1 <0>        -0.2626
      9 O1         -0.6275   -2.9070   -0.4115 O.3       1 <0>        -0.3801
     10 C8          3.0517   -2.1495   -0.0391 C.2       1 <0>         0.3100
     11 C9          3.8485   -3.2860   -0.0531 C.2       1 <0>        -0.2149
     12 C10         3.4076   -4.6942    0.0396 C.ar      1 <0>        -0.0612
     13 C11         2.1590   -5.2973    0.1613 C.ar      1 <0>        -0.0785
     14 C12         2.0668   -6.6724    0.2256 C.ar      1 <0>        -0.1110
     15 C13         3.2134   -7.4494    0.1697 C.ar      1 <0>        -0.0614
     16 C14         4.4568   -6.8607    0.0495 C.ar      1 <0>        -0.1104
     17 C15         4.5697   -5.4766   -0.0178 C.ar      1 <0>         0.1440
     18 N2          5.6744   -4.6429   -0.1379 N.am      1 <0>        -0.6463
     19 C16         5.3102   -3.3497   -0.1695 C.2       1 <0>         0.5708
     20 O2          6.0621   -2.3968   -0.2739 O.2       1 <0>        -0.5192
     21 Br1         3.0736   -9.3331    0.2595 Br        1 <0>        -0.0419
     22 N3          3.4858   -0.8573    0.0925 N.pl3     1 <0>        -0.6148
     23 H1         -0.9555    1.9067   -0.0861 H         1 <0>         0.1365
     24 H2          1.1438    3.1593    0.1827 H         1 <0>         0.1384
     25 H3          3.2931    1.9799    0.2821 H         1 <0>         0.1351
     26 H4         -0.9142   -0.5478   -0.2655 H         1 <0>         0.1392
     27 H5         -1.1459   -3.7167   -0.5153 H         1 <0>         0.4144
     28 H6          1.2662   -4.6913    0.2055 H         1 <0>         0.1720
     29 H7          1.0998   -7.1441    0.3200 H         1 <0>         0.1383
     30 H8          5.3430   -7.4765    0.0076 H         1 <0>         0.1374
     31 H9          6.5912   -4.9545   -0.1959 H         1 <0>         0.4211
     32 H10         4.4151   -0.5976    0.1913 H         1 <0>         0.4398
@<TRIPOS>BOND
     1    1    6 ar
     2    1    2 ar
     3    1   23 1
     4    2    3 ar
     5    2   24 1
     6    3    4 ar
     7    3   25 1
     8    4   22 1
     9    4    5 ar
    10    5    6 ar
    11    5    7 1
    12    6   26 1
    13    7    8 2
    14    7   10 1
    15    8    9 1
    16    9   27 1
    17   10   11 2
    18   10   22 1
    19   11   19 1
    20   11   12 1
    21   12   17 ar
    22   12   13 ar
    23   13   14 ar
    24   13   28 1
    25   14   15 ar
    26   14   29 1
    27   15   16 ar
    28   15   21 1
    29   16   17 ar
    30   16   30 1
    31   17   18 1
    32   18   19 am
    33   18   31 1
    34   19   20 2
    35   22   32 1
@<TRIPOS>MOLECULE
ZINC14559870
   29    33     0     0     0
SMALL
USER_CHARGES
BLAHdione
@<TRIPOS>ATOM
      1 C1          2.9759    3.8341   -0.0061 C.ar      1 <0>        -0.1306
      2 C2          3.3947    2.5120   -0.0172 C.ar      1 <0>        -0.0820
      3 C3          2.4762    1.4841   -0.0141 C.ar      1 <0>        -0.1239
      4 C4          1.1147    1.7679    0.0009 C.ar      1 <0>         0.1193
      5 C5          0.6924    3.1066    0.0122 C.ar      1 <0>        -0.0737
      6 C6          1.6315    4.1362    0.0079 C.ar      1 <0>        -0.0598
      7 C7         -0.7795    3.0713    0.0261 C.2       1 <0>        -0.0973
      8 C8         -1.7990    4.1087    0.0414 C.2       1 <0>        -0.0497
      9 C9         -3.1462    3.7336    0.0523 C.2       1 <0>        -0.1086
     10 C10        -3.4795    2.3163    0.0486 C.2       1 <0>         0.0543
     11 C11        -4.6712    1.6231    0.0559 C.2       1 <0>         0.0240
     12 N1         -4.3815    0.3210    0.0467 N.2       1 <0>        -0.4427
     13 C12        -3.0844    0.1531    0.0340 C.2       1 <0>         0.1648
     14 N2         -2.4751    1.3668    0.0346 N.pl3     1 <0>        -0.3726
     15 C13        -1.1468    1.7293    0.0164 C.2       1 <0>         0.3292
     16 N3         -0.0111    0.9658    0.0074 N.pl3     1 <0>        -0.5765
     17 H1          0.0021   -0.0041    0.0020 H         1 <0>         0.4265
     18 C14        -3.9185    4.9844    0.0660 C.2       1 <0>         0.5909
     19 O1         -5.1307    5.0690    0.0782 O.2       1 <0>        -0.4444
     20 N4         -3.0589    6.0203    0.0632 N.am      1 <0>        -0.6805
     21 C15        -1.7857    5.5831    0.0489 C.2       1 <0>         0.5823
     22 O2         -0.7940    6.2843    0.0435 O.2       1 <0>        -0.4434
     23 H2          3.7061    4.6298   -0.0087 H         1 <0>         0.1343
     24 H3          4.4507    2.2857   -0.0289 H         1 <0>         0.1361
     25 H4          2.8138    0.4582   -0.0228 H         1 <0>         0.1308
     26 H5          1.3071    5.1663    0.0166 H         1 <0>         0.1415
     27 H6         -5.6605    2.0561    0.0675 H         1 <0>         0.1970
     28 H7         -2.5776   -0.8006    0.0246 H         1 <0>         0.2173
     29 H8         -3.3211    6.9542    0.0701 H         1 <0>         0.4374
@<TRIPOS>BOND
     1    1    6 ar
     2    1    2 ar
     3    1   23 1
     4    2    3 ar
     5    2   24 1
     6    3    4 ar
     7    3   25 1
     8    4   16 1
     9    4    5 ar
    10    5    6 ar
    11    5    7 1
    12    6   26 1
    13    7   15 2
    14    7    8 1
    15    8   21 1
    16    8    9 2
    17    9   10 1
    18    9   18 1
    19   10   14 1
    20   10   11 2
    21   11   12 1
    22   11   27 1
    23   12   13 2
    24   13   14 1
    25   13   28 1
    26   14   15 1
    27   15   16 1
    28   16   17 1
    29   18   19 2
    30   18   20 am
    31   20   21 am
    32   20   29 1
    33   21   22 2
@<TRIPOS>MOLECULE
ZINC14559870
   30    34     0     0     0
SMALL
USER_CHARGES
BLAHdione
@<TRIPOS>ATOM
      1 C1          2.9759    3.8341   -0.0061 C.ar      1 <0>        -0.1155
      2 C2          3.3947    2.5120   -0.0172 C.ar      1 <0>        -0.0614
      3 C3          2.4762    1.4841   -0.0141 C.ar      1 <0>        -0.1209
      4 C4          1.1147    1.7679    0.0009 C.ar      1 <0>         0.1295
      5 C5          0.6924    3.1066    0.0122 C.ar      1 <0>        -0.0818
      6 C6          1.6315    4.1362    0.0079 C.ar      1 <0>        -0.0537
      7 C7         -0.7795    3.0713    0.0261 C.2       1 <0>        -0.0524
      8 C8         -1.7990    4.1087    0.0414 C.2       1 <0>         0.0050
      9 C9         -3.1462    3.7336    0.0523 C.2       1 <0>        -0.1377
     10 C10        -3.4795    2.3163    0.0486 C.2       1 <0>         0.1323
     11 C11        -4.6712    1.6231    0.0559 C.2       1 <0>         0.0429
     12 C12        -3.0844    0.1531    0.0340 C.cat     1 <0>         0.2334
     13 N1         -2.4751    1.3668    0.0346 N.pl3     1 <0>        -0.3268
     14 C13        -1.1468    1.7293    0.0164 C.2       1 <0>         0.2979
     15 N2         -0.0111    0.9658    0.0074 N.pl3     1 <0>        -0.5619
     16 H1          0.0021   -0.0041    0.0020 H         1 <0>         0.4329
     17 C14        -3.9185    4.9844    0.0660 C.2       1 <0>         0.5944
     18 O1         -5.1307    5.0690    0.0782 O.2       1 <0>        -0.4333
     19 N3         -3.0589    6.0203    0.0632 N.am      1 <0>        -0.6713
     20 C15        -1.7857    5.5831    0.0489 C.2       1 <0>         0.5749
     21 O2         -0.7940    6.2843    0.0435 O.2       1 <0>        -0.4148
     22 H2          3.7061    4.6298   -0.0087 H         1 <0>         0.1452
     23 H3          4.4507    2.2857   -0.0289 H         1 <0>         0.1471
     24 H4          2.8138    0.4582   -0.0228 H         1 <0>         0.1400
     25 H5          1.3071    5.1663    0.0166 H         1 <0>         0.1485
     26 H6         -5.6605    2.0561    0.0675 H         1 <0>         0.2436
     27 H7         -2.5776   -0.8006    0.0246 H         1 <0>         0.2642
     28 H8         -3.3211    6.9542    0.0701 H         1 <0>         0.4480
     29 N4         -4.3834    0.3189    0.0467 N.pl3     1 <0>        -0.4408
     30 H9         -5.0759   -0.4391    0.0492 H         1 <0>         0.4927
@<TRIPOS>BOND
     1    1    6 ar
     2    1    2 ar
     3    1   22 1
     4    2    3 ar
     5    2   23 1
     6    3    4 ar
     7    3   24 1
     8    4   15 1
     9    4    5 ar
    10    5    6 ar
    11    5    7 1
    12    6   25 1
    13    7   14 2
    14    7    8 1
    15    8   20 1
    16    8    9 2
    17    9   10 1
    18    9   17 1
    19   10   13 1
    20   10   11 2
    21   11   26 1
    22   11   29 1
    23   12   13 1
    24   12   27 1
    25   12   29 2
    26   13   14 1
    27   14   15 1
    28   15   16 1
    29   17   18 2
    30   17   19 am
    31   19   20 am
    32   19   28 1
    33   20   21 2
    34   29   30 1
@<TRIPOS>MOLECULE
ZINC21288966
   49    52     0     0     0
SMALL
USER_CHARGES
2-(2-chlorophenyl)-5,7-dihydroxy-8-[(3S,4R)-3-hydroxy-1-methyl-4-piperidyl]chromen-4-one
@<TRIPOS>ATOM
      1 C1          6.0895   -0.0238    5.9621 C.3       1 <0>        -0.0460
      2 N1          6.1756    1.0472    4.9603 N.4       1 <0>        -0.3934
      3 C2          5.9739    0.5180    3.6055 C.3       1 <0>        -0.0028
      4 C3          6.2126    1.6289    2.5802 C.3       1 <0>        -0.1464
      5 C4          5.2418    2.7821    2.8491 C.3       1 <0>        -0.0180
      6 H1          4.2050    2.4431    2.7074 H         1 <0>         0.1039
      7 C5          5.4391    3.2830    4.2825 C.3       1 <0>         0.1015
      8 H2          4.7709    4.1271    4.5084 H         1 <0>         0.0941
      9 C6          5.2218    2.1236    5.2574 C.3       1 <0>        -0.0361
     10 O1          6.7669    3.7898    4.4323 O.3       1 <0>        -0.5639
     11 C7          5.5132    3.9050    1.8814 C.ar      1 <0>        -0.2158
     12 C8          6.8017    4.3949    1.7322 C.ar      1 <0>         0.2946
     13 C9          7.0678    5.4304    0.8434 C.ar      1 <0>        -0.3049
     14 C10         6.0448    5.9841    0.0956 C.ar      1 <0>         0.3111
     15 C11         4.7411    5.4942    0.2412 C.ar      1 <0>        -0.3649
     16 C12         4.4748    4.4470    1.1407 C.ar      1 <0>         0.2362
     17 O2          3.2147    3.9814    1.2730 O.3       1 <0>        -0.2171
     18 C13         2.1871    4.4838    0.5705 C.2       1 <0>         0.1982
     19 C14         2.3394    5.4926   -0.3277 C.2       1 <0>        -0.2780
     20 C15         3.6225    6.0546   -0.5353 C.2       1 <0>         0.4382
     21 O3          3.7953    6.9641   -1.3304 O.2       1 <0>        -0.4786
     22 C16         0.8407    3.9147    0.7769 C.ar      1 <0>        -0.0680
     23 C17         0.6478    2.5322    0.7263 C.ar      1 <0>        -0.0708
     24 C18        -0.6124    2.0073    0.9205 C.ar      1 <0>        -0.1159
     25 C19        -1.6867    2.8467    1.1599 C.ar      1 <0>        -0.0780
     26 C20        -1.5036    4.2164    1.2169 C.ar      1 <0>        -0.1066
     27 C21        -0.2472    4.7566    1.0243 C.ar      1 <0>        -0.0057
     28 Cl1        -0.0199    6.4765    1.0889 Cl        1 <0>        -0.0424
     29 O4          6.3024    6.9947   -0.7728 O.3       1 <0>        -0.4999
     30 O5          7.8133    3.8585    2.4614 O.3       1 <0>        -0.4665
     31 H3          6.8128   -0.8151    5.7159 H         1 <0>         0.1242
     32 H4          5.0728   -0.4438    5.9634 H         1 <0>         0.1169
     33 H5          6.3184    0.3856    6.9571 H         1 <0>         0.1225
     34 H6          6.6809   -0.3050    3.4243 H         1 <0>         0.1308
     35 H7          4.9438    0.1448    3.5072 H         1 <0>         0.1211
     36 H8          7.2477    1.9910    2.6662 H         1 <0>         0.1216
     37 H9          6.0450    1.2349    1.5669 H         1 <0>         0.1057
     38 H10         4.1951    1.7434    5.1512 H         1 <0>         0.1298
     39 H11         5.3771    2.4772    6.2874 H         1 <0>         0.1312
     40 H12         7.0946    4.1958    5.4007 H         1 <0>         0.4106
     41 H13         8.0758    5.8030    0.7365 H         1 <0>         0.1471
     42 H14         1.4871    5.8659   -0.8759 H         1 <0>         0.1670
     43 H15         1.4839    1.8757    0.5352 H         1 <0>         0.1384
     44 H16        -0.7625    0.9385    0.8812 H         1 <0>         0.1407
     45 H17        -2.6721    2.4298    1.3071 H         1 <0>         0.1438
     46 H18        -2.3456    4.8651    1.4082 H         1 <0>         0.1476
     47 H19         5.4855    7.4321   -1.3656 H         1 <0>         0.4556
     48 H20         8.8375    4.2431    2.3473 H         1 <0>         0.4397
     49 H21         7.1882    1.4744    5.0059 H         1 <0>         0.4481
@<TRIPOS>BOND
     1    1    2 1
     2    1   31 1
     3    1   32 1
     4    1   33 1
     5    2    9 1
     6    2    3 1
     7    2   49 1
     8    3    4 1
     9    3   34 1
    10    3   35 1
    11    4    5 1
    12    4   36 1
    13    4   37 1
    14    5    6 1
    15    5    7 1
    16    5   11 1
    17    7    8 1
    18    7    9 1
    19    7   10 1
    20    9   38 1
    21    9   39 1
    22   10   40 1
    23   11   16 ar
    24   11   12 ar
    25   12   13 ar
    26   12   30 1
    27   13   14 ar
    28   13   41 1
    29   14   15 ar
    30   14   29 1
    31   15   20 1
    32   15   16 ar
    33   16   17 1
    34   17   18 1
    35   18   19 2
    36   18   22 1
    37   19   20 1
    38   19   42 1
    39   20   21 2
    40   22   27 ar
    41   22   23 ar
    42   23   24 ar
    43   23   43 1
    44   24   25 ar
    45   24   44 1
    46   25   26 ar
    47   25   45 1
    48   26   27 ar
    49   26   46 1
    50   27   28 1
    51   29   47 1
    52   30   48 1
@<TRIPOS>MOLECULE
ZINC11617039
   55    58     0     0     0
SMALL
USER_CHARGES

@<TRIPOS>ATOM
      1 H1          0.2120    6.2074    3.3921 H         1 <0>         0.1353
      2 C1         -0.6814    5.6062    3.3098 C.ar      1 <0>         0.0196
      3 C2         -1.0741    5.1311    2.1031 C.ar      1 <0>        -0.1998
      4 C3         -2.2288    4.3474    1.9606 C.ar      1 <0>         0.2426
      5 C4         -3.0111    4.0257    3.0293 C.ar      1 <0>        -0.1858
      6 C5         -2.6578    4.4884    4.3143 C.ar      1 <0>         0.1374
      7 C6         -1.4433    5.3059    4.4600 C.ar      1 <0>        -0.2352
      8 C7         -1.3367    5.6110    5.8041 C.2       1 <0>         0.1330
      9 N1         -2.3705    5.0424    6.4391 N.pl3     1 <0>        -0.3190
     10 N2         -3.1795    4.3626    5.5213 N.2       1 <0>        -0.3200
     11 C8         -2.6225    5.1281    7.8797 C.3       1 <0>         0.0831
     12 H2         -3.2434    5.9992    8.0888 H         1 <0>         0.0888
     13 H3         -3.1369    4.2268    8.2129 H         1 <0>         0.0992
     14 H4         -1.6744    5.2222    8.4094 H         1 <0>         0.0983
     15 C9         -0.2495    6.4365    6.4425 C.3       1 <0>        -0.1025
     16 H5         -0.5455    7.4855    6.4477 H         1 <0>         0.0927
     17 H6         -0.0907    6.0987    7.4666 H         1 <0>         0.0807
     18 H7          0.6740    6.3223    5.8749 H         1 <0>         0.0943
     19 H8         -3.8955    3.4210    2.8932 H         1 <0>         0.1075
     20 N3         -2.5862    3.8853    0.6908 N.pl3     1 <0>        -0.5925
     21 C10        -3.6562    3.0160    0.5454 C.ar      1 <0>         0.5430
     22 C11        -3.4766    1.6392    0.6984 C.ar      1 <0>        -0.2193
     23 C12        -4.5711    0.8111    0.5450 C.ar      1 <0>         0.2156
     24 N4         -5.7510    1.3422    0.2594 N.ar      1 <0>        -0.5411
     25 C13        -5.8925    2.6520    0.1199 C.ar      1 <0>         0.6254
     26 N5         -4.8692    3.4808    0.2639 N.ar      1 <0>        -0.5160
     27 N6         -7.1427    3.1682   -0.1788 N.pl3     1 <0>        -0.6061
     28 C14        -7.2911    4.5338   -0.4396 C.ar      1 <0>         0.0902
     29 C15        -6.2697    5.2382   -1.0645 C.ar      1 <0>        -0.0370
     30 C16        -6.4197    6.5867   -1.3210 C.ar      1 <0>        -0.1186
     31 C17        -7.5850    7.2362   -0.9562 C.ar      1 <0>         0.0334
     32 C18        -8.6034    6.5381   -0.3338 C.ar      1 <0>        -0.6606
     33 C19        -8.4623    5.1877   -0.0798 C.ar      1 <0>        -0.0140
     34 S1        -10.0857    7.3705    0.1294 S.o2      1 <0>         2.7024
     35 O1        -10.5091    8.1093   -1.0082 O.2       1 <0>        -0.9461
     36 O2        -10.9137    6.4040    0.7615 O.2       1 <0>        -0.9598
     37 N7         -9.6818    8.4799    1.2907 N.pl3     1 <0>        -1.2481
     38 C20        -7.7450    8.7080   -1.2374 C.3       1 <0>        -0.1567
     39 H9         -8.1929    8.8433   -2.2218 H         1 <0>         0.1090
     40 H10        -8.3897    9.1545   -0.4804 H         1 <0>         0.0769
     41 H11        -6.7680    9.1908   -1.2132 H         1 <0>         0.0924
     42 H12        -4.4665   -0.2581    0.6563 H         1 <0>         0.2280
     43 H13        -2.5039    1.2316    0.9310 H         1 <0>         0.1988
     44 C21        -1.8301    4.3196   -0.4864 C.3       1 <0>         0.0917
     45 H14        -1.0078    3.6271   -0.6659 H         1 <0>         0.0746
     46 H15        -2.4881    4.3354   -1.3553 H         1 <0>         0.0729
     47 H16        -1.4320    5.3196   -0.3140 H         1 <0>         0.0953
     48 H17        -0.4834    5.3620    1.2289 H         1 <0>         0.1346
     49 H18        -7.9152    2.5823   -0.2071 H         1 <0>         0.4391
     50 H19        -5.3592    4.7318   -1.3490 H         1 <0>         0.1427
     51 H20        -5.6260    7.1349   -1.8068 H         1 <0>         0.1482
     52 H21        -9.2599    4.6421    0.4024 H         1 <0>         0.1564
     53 H22        -8.7604    8.5635    1.5820 H         1 <0>         0.4174
     54 H23       -10.3667    9.0460    1.6797 H         1 <0>         0.4270
     55 H24        -6.5221    0.7638    0.1506 H         1 <0>         0.4504
@<TRIPOS>BOND
     1    1    2 1
     2    2    7 ar
     3    2    3 ar
     4    3    4 ar
     5    3   48 1
     6    4    5 ar
     7    4   20 1
     8    5    6 ar
     9    5   19 1
    10    6   10 2
    11    6    7 ar
    12    7    8 2
    13    8    9 1
    14    8   15 1
    15    9   10 1
    16    9   11 1
    17   11   12 1
    18   11   13 1
    19   11   14 1
    20   15   16 1
    21   15   17 1
    22   15   18 1
    23   20   21 1
    24   20   44 1
    25   21   26 ar
    26   21   22 ar
    27   22   23 ar
    28   22   43 1
    29   23   24 ar
    30   23   42 1
    31   24   25 ar
    32   24   55 1
    33   25   26 ar
    34   25   27 1
    35   27   28 1
    36   27   49 1
    37   28   33 ar
    38   28   29 ar
    39   29   30 ar
    40   29   50 1
    41   30   31 ar
    42   30   51 1
    43   31   32 ar
    44   31   38 1
    45   32   33 ar
    46   32   34 1
    47   33   52 1
    48   34   35 2
    49   34   36 2
    50   34   37 1
    51   37   53 1
    52   37   54 1
    53   38   39 1
    54   38   40 1
    55   38   41 1
    56   44   45 1
    57   44   46 1
    58   44   47 1
@<TRIPOS>MOLECULE
ZINC03816310
   51    55     0     0     0
SMALL
USER_CHARGES
4-amino-5-fluoro-3-[5-(4-methylpiperazin-1-yl)-3H-benzoimidazol-2-yl]-1H-quinolin-2-one
@<TRIPOS>ATOM
      1 C1         -4.4670    0.8494    3.0633 C.3       1 <0>        -0.0407
      2 C2         -3.3790    0.9463    0.9019 C.3       1 <0>         0.0019
      3 C3         -3.5151    1.4789   -0.5264 C.3       1 <0>         0.0203
      4 N1         -3.5799    2.9467   -0.4951 N.pl3     1 <0>        -0.4822
      5 C4         -4.7239    3.4034    0.3063 C.3       1 <0>         0.0231
      6 C5         -4.5878    2.8708    1.7347 C.3       1 <0>         0.0021
      7 C6         -3.6324    3.4738   -1.7895 C.ar      1 <0>         0.0898
      8 C7         -3.6187    2.6172   -2.8884 C.ar      1 <0>        -0.1658
      9 C8         -3.6694    3.1157   -4.1588 C.ar      1 <0>        -0.0428
     10 C9         -3.7362    4.4973   -4.3655 C.ar      1 <0>         0.0571
     11 C10        -3.7506    5.3641   -3.2589 C.ar      1 <0>         0.0655
     12 C11        -3.7036    4.8454   -1.9734 C.ar      1 <0>        -0.1134
     13 N2         -3.8198    6.6467   -3.7722 N.pl3     1 <0>        -0.5851
     14 H1         -3.8464    7.4962   -3.2453 H         1 <0>         0.4436
     15 C12        -3.8451    6.5353   -5.1390 C.2       1 <0>         0.4046
     16 N3         -3.7957    5.2687   -5.4809 N.2       1 <0>        -0.5294
     17 C13        -3.9164    7.6652   -6.0804 C.2       1 <0>        -0.3025
     18 C14        -4.0559    7.4305   -7.4504 C.2       1 <0>         0.3760
     19 C15        -4.1228    8.5898   -8.3476 C.ar      1 <0>        -0.1878
     20 C16        -4.0447    9.8830   -7.7997 C.ar      1 <0>         0.2450
     21 C17        -4.1078   10.9864   -8.6429 C.ar      1 <0>        -0.1734
     22 C18        -4.2458   10.8081  -10.0035 C.ar      1 <0>        -0.0185
     23 C19        -4.3231    9.5350  -10.5468 C.ar      1 <0>        -0.1801
     24 C20        -4.2628    8.4239   -9.7304 C.ar      1 <0>         0.1680
     25 F1         -4.3388    7.1843  -10.2623 F         1 <0>        -0.1206
     26 N4         -3.9076   10.0470   -6.4354 N.am      1 <0>        -0.6368
     27 H2         -3.8498   10.9715   -6.0585 H         1 <0>         0.4300
     28 C21        -3.8500    8.9949   -5.6023 C.2       1 <0>         0.5826
     29 O1         -3.7334    9.1908   -4.4050 O.2       1 <0>        -0.5600
     30 N5         -4.1288    6.1500   -7.9440 N.pl3     1 <0>        -0.8025
     31 H3         -3.5472    1.1734    3.5502 H         1 <0>         0.1241
     32 H4         -5.3249    1.2032    3.6351 H         1 <0>         0.1225
     33 H5         -4.4877   -0.2393    3.0134 H         1 <0>         0.1228
     34 H6         -3.3598   -0.1434    0.8835 H         1 <0>         0.1376
     35 H7         -2.4541    1.3189    1.3424 H         1 <0>         0.1399
     36 H8         -2.6529    1.1655   -1.1151 H         1 <0>         0.1307
     37 H9         -4.4260    1.0841   -0.9765 H         1 <0>         0.0717
     38 H10        -4.7431    4.4931    0.3248 H         1 <0>         0.1261
     39 H11        -5.6486    3.0309   -0.1345 H         1 <0>         0.0691
     40 H12        -3.6769    3.2656    2.1847 H         1 <0>         0.1400
     41 H13        -5.4498    3.1846    2.3235 H         1 <0>         0.1367
     42 H14        -3.5672    1.5496   -2.7341 H         1 <0>         0.1314
     43 H15        -3.6582    2.4431   -5.0037 H         1 <0>         0.1346
     44 H16        -3.7183    5.5073   -1.1202 H         1 <0>         0.1268
     45 H17        -4.0491   11.9836   -8.2323 H         1 <0>         0.1496
     46 H18        -4.2944   11.6697  -10.6529 H         1 <0>         0.1516
     47 H19        -4.4307    9.4121  -11.6144 H         1 <0>         0.1515
     48 H20        -4.3218    5.4103   -7.3468 H         1 <0>         0.4285
     49 H21        -3.9874    5.9859   -8.8895 H         1 <0>         0.4092
     50 N6         -4.5458    1.3938    1.6909 N.4       1 <0>        -0.3998
     51 H22        -5.4033    1.0486    1.2438 H         1 <0>         0.4274
@<TRIPOS>BOND
     1    1   31 1
     2    1   32 1
     3    1   33 1
     4    1   50 1
     5    2    3 1
     6    2   34 1
     7    2   35 1
     8    2   50 1
     9    3    4 1
    10    3   36 1
    11    3   37 1
    12    4    5 1
    13    4    7 1
    14    5    6 1
    15    5   38 1
    16    5   39 1
    17    6   40 1
    18    6   41 1
    19    6   50 1
    20    7   12 ar
    21    7    8 ar
    22    8    9 ar
    23    8   42 1
    24    9   10 ar
    25    9   43 1
    26   10   16 1
    27   10   11 ar
    28   11   12 ar
    29   11   13 1
    30   12   44 1
    31   13   14 1
    32   13   15 1
    33   15   16 2
    34   15   17 1
    35   17   28 1
    36   17   18 2
    37   18   19 1
    38   18   30 1
    39   19   24 ar
    40   19   20 ar
    41   20   21 ar
    42   20   26 1
    43   21   22 ar
    44   21   45 1
    45   22   23 ar
    46   22   46 1
    47   23   24 ar
    48   23   47 1
    49   24   25 1
    50   26   27 1
    51   26   28 am
    52   28   29 2
    53   30   48 1
    54   30   49 1
    55   50   51 1
@<TRIPOS>MOLECULE
ZINC03964325
   57    59     0     0     0
SMALL
USER_CHARGES

@<TRIPOS>ATOM
      1 C1          0.1489    2.0884    0.1150 C.3       1 <0>        -0.1876
      2 C2          0.1348    0.5603    0.1888 C.3       1 <0>        -0.0191
      3 N1         -1.2520    0.0881    0.2979 N.4       1 <0>        -0.3822
      4 C3         -1.9779    0.4111   -0.9377 C.3       1 <0>        -0.0142
      5 C4         -3.4549    0.0484   -0.7712 C.3       1 <0>        -0.1895
      6 C5         -1.2593   -1.3663    0.5041 C.3       1 <0>        -0.0265
      7 C6         -0.6131   -1.6936    1.8518 C.3       1 <0>         0.0952
      8 N2         -0.6203   -3.1440    2.0575 N.am      1 <0>        -0.7289
      9 C7         -0.0988   -3.6675    3.1846 C.2       1 <0>         0.6111
     10 O1          0.3779   -2.9358    4.0309 O.2       1 <0>        -0.5184
     11 C8         -0.1061   -5.1270    3.3915 C.2       1 <0>        -0.2420
     12 C9          0.9071   -6.0320    3.0089 C.2       1 <0>        -0.0577
     13 C10         0.4868   -7.2892    3.3960 C.2       1 <0>        -0.0075
     14 N3         -0.7476   -7.1595    3.9982 N.pl3     1 <0>        -0.4910
     15 H1         -1.2731   -7.8879    4.3645 H         1 <0>         0.4270
     16 C11        -1.1044   -5.8642    4.0022 C.2       1 <0>         0.1158
     17 C12        -2.3825   -5.3072    4.5743 C.3       1 <0>        -0.0999
     18 C13         1.1957   -8.4957    3.2079 C.2       1 <0>         0.0729
     19 C14         0.5100   -9.6674    2.9570 C.2       1 <0>        -0.1889
     20 C15         1.0648  -11.0377    2.8871 C.ar      1 <0>        -0.0736
     21 C16         2.3472  -11.5557    3.0375 C.ar      1 <0>        -0.1000
     22 C17         2.5553  -12.9162    2.9116 C.ar      1 <0>         0.0861
     23 C18         1.4888  -13.7593    2.6366 C.ar      1 <0>        -0.1139
     24 C19         0.2139  -13.2531    2.4856 C.ar      1 <0>        -0.1021
     25 C20        -0.0144  -11.8871    2.6092 C.ar      1 <0>         0.1282
     26 N4         -1.1765  -11.1301    2.5069 N.am      1 <0>        -0.6466
     27 C21        -0.9294   -9.8245    2.7079 C.2       1 <0>         0.5595
     28 O2         -1.7538   -8.9280    2.6842 O.2       1 <0>        -0.5156
     29 F1          3.7984  -13.4252    3.0561 F         1 <0>        -0.1318
     30 C22         2.1990   -5.6919    2.3116 C.3       1 <0>        -0.0931
     31 H2          1.1793    2.4435    0.1331 H         1 <0>         0.1076
     32 H3         -0.3308    2.4121   -0.8087 H         1 <0>         0.0811
     33 H4         -0.3916    2.4984    0.9682 H         1 <0>         0.0809
     34 H5          0.5888    0.1488   -0.7126 H         1 <0>         0.1317
     35 H6          0.6996    0.2334    1.0619 H         1 <0>         0.1337
     36 H7         -1.8867    1.4775   -1.1444 H         1 <0>         0.1351
     37 H8         -1.5554   -0.1571   -1.7664 H         1 <0>         0.1307
     38 H9         -3.5537   -1.0316   -0.6617 H         1 <0>         0.0802
     39 H10        -3.8523    0.5414    0.1160 H         1 <0>         0.0808
     40 H11        -4.0109    0.3769   -1.6492 H         1 <0>         0.1074
     41 H12        -2.2871   -1.7292    0.4963 H         1 <0>         0.1397
     42 H13        -0.6973   -1.8494   -0.2952 H         1 <0>         0.1376
     43 H14         0.4147   -1.3306    1.8596 H         1 <0>         0.0893
     44 H15        -1.1751   -1.2105    2.6511 H         1 <0>         0.0890
     45 H16        -1.0005   -3.7277    1.3824 H         1 <0>         0.4099
     46 H17        -3.1529   -5.3000    3.8032 H         1 <0>         0.0840
     47 H18        -2.7087   -5.9289    5.4080 H         1 <0>         0.0782
     48 H19        -2.2103   -4.2898    4.9254 H         1 <0>         0.0840
     49 H20         2.2744   -8.5020    3.2604 H         1 <0>         0.1589
     50 H21         3.1765  -10.8977    3.2512 H         1 <0>         0.1436
     51 H22         1.6578  -14.8215    2.5394 H         1 <0>         0.1485
     52 H23        -0.6084  -13.9196    2.2712 H         1 <0>         0.1415
     53 H24        -2.0541  -11.4980    2.3189 H         1 <0>         0.4217
     54 H25         2.9686   -5.4822    3.0545 H         1 <0>         0.0785
     55 H26         2.5107   -6.5337    1.6932 H         1 <0>         0.0726
     56 H27         2.0522   -4.8138    1.6827 H         1 <0>         0.0634
     57 H28        -1.7009    0.5410    1.0799 H         1 <0>         0.4247
@<TRIPOS>BOND
     1    1    2 1
     2    1   31 1
     3    1   32 1
     4    1   33 1
     5    2    3 1
     6    2   34 1
     7    2   35 1
     8    3    4 1
     9    3    6 1
    10    3   57 1
    11    4    5 1
    12    4   36 1
    13    4   37 1
    14    5   38 1
    15    5   39 1
    16    5   40 1
    17    6    7 1
    18    6   41 1
    19    6   42 1
    20    7    8 1
    21    7   43 1
    22    7   44 1
    23    8    9 am
    24    8   45 1
    25    9   10 2
    26    9   11 1
    27   11   16 2
    28   11   12 1
    29   12   13 2
    30   12   30 1
    31   13   14 1
    32   13   18 1
    33   14   15 1
    34   14   16 1
    35   16   17 1
    36   17   46 1
    37   17   47 1
    38   17   48 1
    39   18   19 2
    40   18   49 1
    41   19   27 1
    42   19   20 1
    43   20   25 ar
    44   20   21 ar
    45   21   22 ar
    46   21   50 1
    47   22   23 ar
    48   22   29 1
    49   23   24 ar
    50   23   51 1
    51   24   25 ar
    52   24   52 1
    53   25   26 1
    54   26   27 am
    55   26   53 1
    56   27   28 2
    57   30   54 1
    58   30   55 1
    59   30   56 1
@<TRIPOS>MOLECULE
ZINC01546066
   52    54     0     0     0
SMALL
USER_CHARGES

@<TRIPOS>ATOM
      1 C1          1.3190    1.4185    0.8998 C.3       1 <0>         0.0308
      2 O1          1.1221    0.0121    0.7412 O.3       1 <0>        -0.3842
      3 C2          1.6336   -0.7719    1.8209 C.3       1 <0>         0.0626
      4 C3          1.3686   -2.2534    1.5456 C.3       1 <0>         0.0560
      5 O2          2.1105   -2.6643    0.3955 O.3       1 <0>        -0.2877
      6 C4          1.9861   -3.9631    0.0122 C.ar      1 <0>         0.1163
      7 C5          1.1727   -4.8014    0.7206 C.ar      1 <0>        -0.1508
      8 C6          1.0439   -6.1386    0.3269 C.ar      1 <0>        -0.1822
      9 C7          1.7562   -6.6146   -0.8018 C.ar      1 <0>         0.2018
     10 C8          2.5842   -5.7378   -1.5132 C.ar      1 <0>        -0.1867
     11 C9          2.6894   -4.4253   -1.1088 C.ar      1 <0>         0.1692
     12 O3          3.4878   -3.5711   -1.8004 O.3       1 <0>        -0.2847
     13 C10         4.1782   -4.1019   -2.9333 C.3       1 <0>         0.0544
     14 C11         5.0210   -3.0002   -3.5791 C.3       1 <0>         0.0626
     15 O4          6.0448   -2.5894   -2.6708 O.3       1 <0>        -0.3848
     16 C12         6.8933   -1.5581   -3.1792 C.3       1 <0>         0.0309
     17 N1          1.6146   -7.9009   -1.1583 N.ar      1 <0>        -0.5426
     18 C13         0.8310   -8.6986   -0.4725 C.ar      1 <0>         0.3422
     19 N2          0.1465   -8.2987    0.5874 N.ar      1 <0>        -0.5807
     20 C14         0.2146   -7.0483    1.0253 C.ar      1 <0>         0.4641
     21 N3         -0.5043   -6.6451    2.1328 N.pl3     1 <0>        -0.6417
     22 C15        -1.2223   -7.5837    2.8797 C.ar      1 <0>         0.1534
     23 C16        -2.4417   -7.2339    3.4483 C.ar      1 <0>        -0.1365
     24 C17        -3.1548   -8.1581    4.1879 C.ar      1 <0>        -0.0976
     25 C18        -2.6612   -9.4349    4.3666 C.ar      1 <0>        -0.1098
     26 C19        -1.4382   -9.7960    3.7995 C.ar      1 <0>         0.0290
     27 C20        -0.7210   -8.8652    3.0488 C.ar      1 <0>        -0.0846
     28 C21        -0.9239  -11.1197    3.9839 C.1       1 <0>        -0.1518
     29 C22        -0.5023  -12.2049    4.1351 C.1       1 <0>        -0.1689
     30 H1          2.3858    1.6300    0.9737 H         1 <0>         0.0438
     31 H2          0.9034    1.9430    0.0394 H         1 <0>         0.0882
     32 H3          0.8182    1.7554    1.8074 H         1 <0>         0.0421
     33 H4          2.7069   -0.6059    1.9138 H         1 <0>         0.0642
     34 H5          1.1392   -0.4804    2.7476 H         1 <0>         0.0738
     35 H6          1.6782   -2.8442    2.4078 H         1 <0>         0.0797
     36 H7          0.3045   -2.4047    1.3647 H         1 <0>         0.0731
     37 H8          0.6320   -4.4344    1.5804 H         1 <0>         0.1376
     38 H9          3.1329   -6.0870   -2.3754 H         1 <0>         0.1546
     39 H10         4.8282   -4.9164   -2.6138 H         1 <0>         0.0783
     40 H11         3.4545   -4.4770   -3.6569 H         1 <0>         0.0849
     41 H12         5.4773   -3.3804   -4.4931 H         1 <0>         0.0752
     42 H13         4.3841   -2.1485   -3.8181 H         1 <0>         0.0638
     43 H14         6.2953   -0.6764   -3.4098 H         1 <0>         0.0434
     44 H15         7.6433   -1.3027   -2.4306 H         1 <0>         0.0879
     45 H16         7.3884   -1.9084   -4.0848 H         1 <0>         0.0424
     46 H17         0.7401   -9.7278   -0.7869 H         1 <0>         0.1966
     47 H18        -0.5113   -5.7106    2.3927 H         1 <0>         0.4197
     48 H19        -2.8329   -6.2365    3.3119 H         1 <0>         0.1281
     49 H20        -4.1012   -7.8805    4.6278 H         1 <0>         0.1331
     50 H21        -3.2213  -10.1542    4.9456 H         1 <0>         0.1284
     51 H22         0.2239   -9.1405    2.6039 H         1 <0>         0.1386
     52 H23        -0.1252  -13.1754    4.2703 H         1 <0>         0.2249
@<TRIPOS>BOND
     1    1    2 1
     2    1   30 1
     3    1   31 1
     4    1   32 1
     5    2    3 1
     6    3    4 1
     7    3   33 1
     8    3   34 1
     9    4    5 1
    10    4   35 1
    11    4   36 1
    12    5    6 1
    13    6   11 ar
    14    6    7 ar
    15    7    8 ar
    16    7   37 1
    17    8   20 ar
    18    8    9 ar
    19    9   10 ar
    20    9   17 ar
    21   10   11 ar
    22   10   38 1
    23   11   12 1
    24   12   13 1
    25   13   14 1
    26   13   39 1
    27   13   40 1
    28   14   15 1
    29   14   41 1
    30   14   42 1
    31   15   16 1
    32   16   43 1
    33   16   44 1
    34   16   45 1
    35   17   18 ar
    36   18   19 ar
    37   18   46 1
    38   19   20 ar
    39   20   21 1
    40   21   22 1
    41   21   47 1
    42   22   27 ar
    43   22   23 ar
    44   23   24 ar
    45   23   48 1
    46   24   25 ar
    47   24   49 1
    48   25   26 ar
    49   25   50 1
    50   26   27 ar
    51   26   28 1
    52   27   51 1
    53   28   29 3
    54   29   52 1
@<TRIPOS>MOLECULE
ZINC18710085
   53    57     0     0     0
SMALL
USER_CHARGES

@<TRIPOS>ATOM
      1 C1          0.0890    1.3306    0.4873 C.3       1 <0>         0.0749
      2 N1          0.4081   -0.0534    0.1284 N.pl3     1 <0>        -0.5085
      3 C2          0.3528   -0.6077   -1.1416 C.ar      1 <0>         0.0507
      4 C3          0.0137   -0.1123   -2.3916 C.ar      1 <0>        -0.0838
      5 C4          0.0591   -0.9388   -3.4947 C.ar      1 <0>        -0.1077
      6 C5          0.4436   -2.2696   -3.3617 C.ar      1 <0>         0.0751
      7 C6          0.7843   -2.7778   -2.1231 C.ar      1 <0>        -0.0835
      8 C7          0.7420   -1.9496   -0.9988 C.ar      1 <0>         0.0911
      9 N2          1.0108   -2.1503    0.3180 N.2       1 <0>        -0.5208
     10 C8          0.8212   -1.0367    0.9810 C.2       1 <0>         0.5369
     11 N3          1.0073   -0.8814    2.3399 N.pl3     1 <0>        -0.6412
     12 C9          1.5328   -1.9319    3.0980 C.ar      1 <0>         0.2053
     13 C10         2.3998   -2.8463    2.5135 C.ar      1 <0>        -0.1275
     14 C11         2.9176   -3.8826    3.2654 C.ar      1 <0>        -0.0424
     15 C12         2.5735   -4.0107    4.5987 C.ar      1 <0>        -0.2053
     16 C13         1.7106   -3.1021    5.1837 C.ar      1 <0>        -0.0432
     17 C14         1.1938   -2.0602    4.4389 C.ar      1 <0>        -0.1549
     18 C15         3.1396   -5.1433    5.4158 C.3       1 <0>         0.5100
     19 F1          4.3412   -4.7372    6.0062 F         1 <0>        -0.1771
     20 F2          2.2267   -5.5000    6.4140 F         1 <0>        -0.1778
     21 F3          3.3767   -6.2442    4.5857 F         1 <0>        -0.1766
     22 O1          0.4838   -3.0743   -4.4569 O.3       1 <0>        -0.2390
     23 C16        -0.5198   -3.9726   -4.6248 C.ar      1 <0>         0.1693
     24 C17        -1.5519   -4.0724   -3.6928 C.ar      1 <0>        -0.2330
     25 C18        -2.5577   -4.9965   -3.8940 C.ar      1 <0>         0.1462
     26 N4         -2.5549   -5.7828   -4.9518 N.ar      1 <0>        -0.5008
     27 C19        -1.5918   -5.7224   -5.8653 C.ar      1 <0>         0.2185
     28 C20        -0.5464   -4.8114   -5.7333 C.ar      1 <0>        -0.1453
     29 C21        -1.6332   -6.6264   -7.0353 C.2       1 <0>         0.2951
     30 N5         -2.5993   -7.5546   -7.2938 N.pl3     1 <0>        -0.5196
     31 H1         -3.3797   -7.7419   -6.7491 H         1 <0>         0.4364
     32 C22        -2.2593   -8.1700   -8.4662 C.2       1 <0>        -0.1211
     33 C23        -1.1072   -7.6076   -8.8883 C.2       1 <0>         0.0664
     34 N6         -0.7487   -6.6689   -8.0066 N.2       1 <0>        -0.4582
     35 C24        -3.0256   -9.2688   -9.1565 C.3       1 <0>         0.5516
     36 F4         -3.9502   -8.7065  -10.0431 F         1 <0>        -0.1675
     37 F5         -2.1361  -10.0835   -9.8651 F         1 <0>        -0.1592
     38 F6         -3.7018  -10.0363   -8.2021 F         1 <0>        -0.1759
     39 H2          0.9883    1.9420    0.4122 H         1 <0>         0.0804
     40 H3         -0.6705    1.7164   -0.1926 H         1 <0>         0.0932
     41 H4         -0.2881    1.3632    1.5095 H         1 <0>         0.0841
     42 H5         -0.2858    0.9195   -2.5011 H         1 <0>         0.1337
     43 H6         -0.2058   -0.5511   -4.4673 H         1 <0>         0.1432
     44 H7          1.0819   -3.8113   -2.0243 H         1 <0>         0.1405
     45 H8          0.7733   -0.0434    2.7688 H         1 <0>         0.4223
     46 H9          2.6684   -2.7473    1.4722 H         1 <0>         0.1551
     47 H10         3.5917   -4.5939    2.8116 H         1 <0>         0.1402
     48 H11         1.4439   -3.2049    6.2251 H         1 <0>         0.1410
     49 H12         0.5234   -1.3483    4.8975 H         1 <0>         0.1374
     50 H13        -1.5643   -3.4335   -2.8221 H         1 <0>         0.1469
     51 H14        -3.3584   -5.0766   -3.1737 H         1 <0>         0.1687
     52 H15         0.2337   -4.7602   -6.4784 H         1 <0>         0.1618
     53 H16        -0.5687   -7.8687   -9.7873 H         1 <0>         0.1936
@<TRIPOS>BOND
     1    1    2 1
     2    1   39 1
     3    1   40 1
     4    1   41 1
     5    2   10 1
     6    2    3 1
     7    3    8 ar
     8    3    4 ar
     9    4    5 ar
    10    4   42 1
    11    5    6 ar
    12    5   43 1
    13    6    7 ar
    14    6   22 1
    15    7    8 ar
    16    7   44 1
    17    8    9 1
    18    9   10 2
    19   10   11 1
    20   11   12 1
    21   11   45 1
    22   12   17 ar
    23   12   13 ar
    24   13   14 ar
    25   13   46 1
    26   14   15 ar
    27   14   47 1
    28   15   16 ar
    29   15   18 1
    30   16   17 ar
    31   16   48 1
    32   17   49 1
    33   18   19 1
    34   18   20 1
    35   18   21 1
    36   22   23 1
    37   23   28 ar
    38   23   24 ar
    39   24   25 ar
    40   24   50 1
    41   25   26 ar
    42   25   51 1
    43   26   27 ar
    44   27   28 ar
    45   27   29 1
    46   28   52 1
    47   29   34 2
    48   29   30 1
    49   30   31 1
    50   30   32 1
    51   32   33 2
    52   32   35 1
    53   33   34 1
    54   33   53 1
    55   35   36 1
    56   35   37 1
    57   35   38 1
@<TRIPOS>MOLECULE
ZINC18825339
   59    62     0     0     0
SMALL
USER_CHARGES
5-[(Z)-(5-fluoro-2-oxo-indolin-3-ylidene)methyl]-N-[(2R)-2-hydroxy-3-morpholino-propyl]-2,4-dimethyl-1H-pyrrole-3-carboxamide
@<TRIPOS>ATOM
      1 C1          3.5607    0.7280    0.3667 C.3       1 <0>        -0.0956
      2 C2          2.0758    0.7165    0.1102 C.2       1 <0>        -0.0564
      3 C3          1.2591    1.8188   -0.0477 C.2       1 <0>        -0.0308
      4 N1         -0.0271    1.3691   -0.2640 N.pl3     1 <0>        -0.5068
      5 H1         -0.8436    2.0903   -0.4163 H         1 <0>         0.4494
      6 C4         -0.0354    0.0257   -0.2455 C.2       1 <0>         0.1277
      7 C5          1.2525   -0.4230   -0.0155 C.2       1 <0>        -0.2308
      8 C6          1.6847   -1.8291    0.0810 C.2       1 <0>         0.5980
      9 O1          2.0430   -2.4250   -0.9167 O.2       1 <0>        -0.5421
     10 N2          1.6827   -2.4542    1.2750 N.am      1 <0>        -0.7266
     11 C7          2.1121   -3.8516    1.3710 C.3       1 <0>         0.1299
     12 C8          2.0150   -4.3162    2.8255 C.3       1 <0>         0.1144
     13 H2          2.5334   -3.6206    3.5018 H         1 <0>         0.0568
     14 C9          2.5799   -5.7329    2.9471 C.3       1 <0>         0.0228
     15 N3          2.4867   -6.1790    4.3436 N.3       1 <0>        -0.5349
     16 C10         3.3671   -5.3829    5.2109 C.3       1 <0>         0.0083
     17 C11         3.1945   -5.8402    6.6618 C.3       1 <0>         0.0618
     18 O2          3.4694   -7.2408    6.7508 O.3       1 <0>        -0.3843
     19 C12         2.6296   -8.0463    5.9193 C.3       1 <0>         0.0614
     20 C13         2.7965   -7.6114    4.4609 C.3       1 <0>         0.0172
     21 O3          0.6463   -4.3123    3.2364 O.3       1 <0>        -0.5882
     22 C14        -1.2476   -0.8477   -0.4426 C.3       1 <0>        -0.0994
     23 C15         1.6686    3.1691    0.0027 C.2       1 <0>         0.0908
     24 C16         0.8216    4.1284    0.5209 C.2       1 <0>        -0.2125
     25 C17         1.0162    5.5955    0.5210 C.ar      1 <0>        -0.0684
     26 C18         2.0202    6.4240    0.0297 C.ar      1 <0>        -0.1043
     27 C19         1.9118    7.7937    0.1786 C.ar      1 <0>         0.0808
     28 C20         0.8031    8.3379    0.8097 C.ar      1 <0>        -0.1198
     29 C21        -0.2000    7.5233    1.2941 C.ar      1 <0>        -0.1061
     30 C22        -0.1080    6.1430    1.1533 C.ar      1 <0>         0.1250
     31 N4         -0.9593    5.1144    1.5420 N.am      1 <0>        -0.6604
     32 C23        -0.4649    3.9133    1.1971 C.2       1 <0>         0.5647
     33 O4         -0.9909    2.8351    1.4086 O.2       1 <0>        -0.5132
     34 F1          2.8866    8.6030   -0.2904 F         1 <0>        -0.1355
     35 H3          3.9167    1.7678    0.4131 H         1 <0>         0.0672
     36 H4          4.0776    0.1994   -0.4478 H         1 <0>         0.0746
     37 H5          3.7717    0.2252    1.3221 H         1 <0>         0.0710
     38 H6          1.3586   -1.9152    2.1775 H         1 <0>         0.4262
     39 H7          1.4633   -4.4786    0.7417 H         1 <0>         0.0750
     40 H8          3.1531   -3.9398    1.0266 H         1 <0>         0.0785
     41 H9          2.0023   -6.4143    2.3052 H         1 <0>         0.0900
     42 H10         3.6334   -5.7360    2.6307 H         1 <0>         0.0465
     43 H11         4.4130   -5.5254    4.9015 H         1 <0>         0.0459
     44 H12         3.1012   -4.3189    5.1257 H         1 <0>         0.0881
     45 H13         3.8925   -5.2859    7.3064 H         1 <0>         0.1001
     46 H14         2.1618   -5.6458    6.9871 H         1 <0>         0.0615
     47 H15         2.9156   -9.1033    6.0238 H         1 <0>         0.1009
     48 H16         1.5805   -7.9185    6.2243 H         1 <0>         0.0621
     49 H17         2.1104   -8.1883    3.8234 H         1 <0>         0.0898
     50 H18         3.8332   -7.7899    4.1393 H         1 <0>         0.0455
     51 H19         0.3780   -4.6185    4.2583 H         1 <0>         0.4136
     52 H20        -0.9523   -1.9052   -0.3757 H         1 <0>         0.0845
     53 H21        -1.6843   -0.6508   -1.4328 H         1 <0>         0.0777
     54 H22        -1.9909   -0.6245    0.3369 H         1 <0>         0.0809
     55 H23         2.6624    3.4568   -0.3709 H         1 <0>         0.1579
     56 H24         2.8828    5.9984   -0.4614 H         1 <0>         0.1409
     57 H25         0.7239    9.4091    0.9228 H         1 <0>         0.1443
     58 H26        -1.0583    7.9589    1.7840 H         1 <0>         0.1386
     59 H27        -1.9003    5.3463    2.0623 H         1 <0>         0.4455
@<TRIPOS>BOND
     1    1    2 1
     2    1   35 1
     3    1   36 1
     4    1   37 1
     5    2    7 1
     6    2    3 2
     7    3    4 1
     8    3   23 1
     9    4    5 1
    10    4    6 1
    11    6    7 2
    12    6   22 1
    13    7    8 1
    14    8    9 2
    15    8   10 am
    16   10   11 1
    17   10   38 1
    18   11   12 1
    19   11   39 1
    20   11   40 1
    21   12   13 1
    22   12   14 1
    23   12   21 1
    24   14   15 1
    25   14   41 1
    26   14   42 1
    27   15   20 1
    28   15   16 1
    29   16   17 1
    30   16   43 1
    31   16   44 1
    32   17   18 1
    33   17   45 1
    34   17   46 1
    35   18   19 1
    36   19   20 1
    37   19   47 1
    38   19   48 1
    39   20   49 1
    40   20   50 1
    41   21   51 1
    42   22   52 1
    43   22   53 1
    44   22   54 1
    45   23   24 2
    46   23   55 1
    47   24   32 1
    48   24   25 1
    49   25   30 ar
    50   25   26 ar
    51   26   27 ar
    52   26   56 1
    53   27   28 ar
    54   27   34 1
    55   28   29 ar
    56   28   57 1
    57   29   30 ar
    58   29   58 1
    59   30   31 1
    60   31   32 am
    61   31   59 1
    62   32   33 2
@<TRIPOS>MOLECULE
ZINC18825344
   59    62     0     0     0
SMALL
USER_CHARGES
5-[(Z)-(5-fluoro-2-oxo-indolin-3-ylidene)methyl]-N-[(2S)-2-hydroxy-3-morpholino-propyl]-2,4-dimethyl-1H-pyrrole-3-carboxamide
@<TRIPOS>ATOM
      1 C1          4.7056    0.6287    1.0117 C.3       1 <0>        -0.0968
      2 C2          3.2464    0.8378    0.6983 C.2       1 <0>        -0.0523
      3 C3          2.5980    2.0501    0.5678 C.2       1 <0>        -0.0327
      4 N1          1.2732    1.7961    0.2789 N.pl3     1 <0>        -0.5060
      5 H1          0.5720    2.6311    0.1339 H         1 <0>         0.4496
      6 C4          1.0783    0.4679    0.2258 C.2       1 <0>         0.1246
      7 C5          2.2801   -0.1676    0.4808 C.2       1 <0>        -0.2308
      8 C6          2.5088   -1.6234    0.5191 C.2       1 <0>         0.5976
      9 O1          2.8262   -2.2159   -0.4944 O.2       1 <0>        -0.5428
     10 N2          2.3662   -2.2977    1.6773 N.am      1 <0>        -0.7254
     11 C7          2.5935   -3.7444    1.7154 C.3       1 <0>         0.1298
     12 C8          2.3672   -4.2590    3.1384 C.3       1 <0>         0.1172
     13 H2          1.3599   -4.0040    3.4994 H         1 <0>         0.0560
     14 C9          2.6045   -5.7699    3.1781 C.3       1 <0>         0.0219
     15 N3          2.3382   -6.2720    4.5327 N.3       1 <0>        -0.5356
     16 C10         2.9762   -7.5793    4.7450 C.3       1 <0>         0.0168
     17 C11         2.7241   -8.0365    6.1842 C.3       1 <0>         0.0612
     18 O2          1.3152   -8.0759    6.4267 O.3       1 <0>        -0.3844
     19 C12         0.6618   -6.8191    6.2299 C.3       1 <0>         0.0617
     20 C13         0.8930   -6.3496    4.7911 C.3       1 <0>         0.0111
     21 O3          3.2765   -3.6103    4.0297 O.3       1 <0>        -0.5892
     22 C14        -0.2328   -0.2165   -0.0637 C.3       1 <0>        -0.0987
     23 C15         3.1876    3.3256    0.7056 C.2       1 <0>         0.0935
     24 C16         2.4515    4.3746    1.2192 C.2       1 <0>        -0.2157
     25 C17         2.8515    5.7966    1.3077 C.ar      1 <0>        -0.0669
     26 C18         3.9943    6.4912    0.9234 C.ar      1 <0>        -0.1048
     27 C19         4.0710    7.8545    1.1363 C.ar      1 <0>         0.0814
     28 C20         3.0098    8.5263    1.7247 C.ar      1 <0>        -0.1204
     29 C21         1.8704    7.8457    2.1029 C.ar      1 <0>        -0.1055
     30 C22         1.7753    6.4739    1.8965 C.ar      1 <0>         0.1237
     31 N4          0.7622    5.5637    2.1775 N.am      1 <0>        -0.6596
     32 C23         1.1039    4.3195    1.8021 C.2       1 <0>         0.5657
     33 O4          0.4171    3.3209    1.9242 O.2       1 <0>        -0.5153
     34 F1          5.1807    8.5334    0.7715 F         1 <0>        -0.1355
     35 H3          5.1994    1.6049    1.1269 H         1 <0>         0.0668
     36 H4          5.1808    0.0720    0.1906 H         1 <0>         0.0744
     37 H5          4.8016    0.0567    1.9464 H         1 <0>         0.0741
     38 H6          2.0791   -1.7617    2.5940 H         1 <0>         0.4273
     39 H7          1.8935   -4.2437    1.0293 H         1 <0>         0.0777
     40 H8          3.6268   -3.9615    1.4070 H         1 <0>         0.0736
     41 H9          1.9304   -6.2658    2.4641 H         1 <0>         0.0486
     42 H10         3.6486   -5.9844    2.9062 H         1 <0>         0.0884
     43 H11         2.5501   -8.3132    4.0451 H         1 <0>         0.0451
     44 H12         4.0587   -7.4917    4.5704 H         1 <0>         0.0900
     45 H13         3.1515   -9.0395    6.3305 H         1 <0>         0.1008
     46 H14         3.1986   -7.3305    6.8817 H         1 <0>         0.0620
     47 H15        -0.4170   -6.9344    6.4112 H         1 <0>         0.1000
     48 H16         1.0741   -6.0778    6.9303 H         1 <0>         0.0613
     49 H17         0.4415   -5.3564    4.6504 H         1 <0>         0.0873
     50 H18         0.4333   -7.0637    4.0920 H         1 <0>         0.0461
     51 H19         3.2627   -3.8533    5.1024 H         1 <0>         0.4141
     52 H20        -0.0899   -1.3070   -0.0417 H         1 <0>         0.0829
     53 H21        -0.5927    0.0862   -1.0581 H         1 <0>         0.0781
     54 H22        -0.9728    0.0718    0.6974 H         1 <0>         0.0803
     55 H23         4.2335    3.4835    0.4037 H         1 <0>         0.1584
     56 H24         4.8196    5.9664    0.4654 H         1 <0>         0.1411
     57 H25         3.0756    9.5918    1.8882 H         1 <0>         0.1443
     58 H26         1.0507    8.3797    2.5605 H         1 <0>         0.1385
     59 H27        -0.1701    5.9069    2.6497 H         1 <0>         0.4455
@<TRIPOS>BOND
     1    1    2 1
     2    1   35 1
     3    1   36 1
     4    1   37 1
     5    2    7 1
     6    2    3 2
     7    3    4 1
     8    3   23 1
     9    4    5 1
    10    4    6 1
    11    6    7 2
    12    6   22 1
    13    7    8 1
    14    8    9 2
    15    8   10 am
    16   10   11 1
    17   10   38 1
    18   11   12 1
    19   11   39 1
    20   11   40 1
    21   12   13 1
    22   12   14 1
    23   12   21 1
    24   14   15 1
    25   14   41 1
    26   14   42 1
    27   15   20 1
    28   15   16 1
    29   16   17 1
    30   16   43 1
    31   16   44 1
    32   17   18 1
    33   17   45 1
    34   17   46 1
    35   18   19 1
    36   19   20 1
    37   19   47 1
    38   19   48 1
    39   20   49 1
    40   20   50 1
    41   21   51 1
    42   22   52 1
    43   22   53 1
    44   22   54 1
    45   23   24 2
    46   23   55 1
    47   24   32 1
    48   24   25 1
    49   25   30 ar
    50   25   26 ar
    51   26   27 ar
    52   26   56 1
    53   27   28 ar
    54   27   34 1
    55   28   29 ar
    56   28   57 1
    57   29   30 ar
    58   29   58 1
    59   30   31 1
    60   31   32 am
    61   31   59 1
    62   32   33 2
@<TRIPOS>MOLECULE
ZINC23247639
   69    72     0     0     0
SMALL
USER_CHARGES
1-[4-[(4-ethylpiperazin-1-yl)methyl]-3-(trifluoromethyl)phenyl]-3-[4-(6-methylaminopyrimidin-4-yl)oxyphenyl]urea
@<TRIPOS>ATOM
      1 C1          8.9417    3.3719    8.2172 C.3       1 <0>        -0.1901
      2 C2         10.1498    2.9102    7.3997 C.3       1 <0>        -0.0070
      3 N1          9.9972    3.3533    6.0075 N.4       1 <0>        -0.4011
      4 C3         11.2367    3.1387    5.2477 C.3       1 <0>         0.0016
      5 C4         11.0629    3.6845    3.8284 C.3       1 <0>         0.0271
      6 N2          9.9288    3.0094    3.1822 N.3       1 <0>        -0.5300
      7 C5          8.6893    3.2240    3.9420 C.3       1 <0>         0.0232
      8 C6          8.8631    2.6781    5.3612 C.3       1 <0>        -0.0016
      9 C7          9.7762    3.4524    1.7899 C.3       1 <0>         0.0786
     10 C8          8.7879    2.5601    1.0842 C.ar      1 <0>        -0.0666
     11 C9          7.5022    3.0092    0.8434 C.ar      1 <0>        -0.0932
     12 C10         6.5958    2.1959    0.1923 C.ar      1 <0>        -0.0888
     13 C11         6.9731    0.9214   -0.2106 C.ar      1 <0>         0.1880
     14 C12         8.2646    0.4735    0.0326 C.ar      1 <0>        -0.1043
     15 C13         9.1683    1.2940    0.6793 C.ar      1 <0>        -0.1369
     16 C14        10.5702    0.8086    0.9441 C.3       1 <0>         0.5111
     17 F1         10.7250   -0.4786    0.4184 F         1 <0>        -0.1776
     18 F2         11.4860    1.6739    0.3362 F         1 <0>        -0.1774
     19 F3         10.8008    0.7797    2.3237 F         1 <0>        -0.1628
     20 N3          6.0552    0.0926   -0.8655 N.am      1 <0>        -0.6979
     21 C15         4.7513    0.1311   -0.5266 C.2       1 <0>         0.7117
     22 O1          4.3858    0.8194    0.4067 O.2       1 <0>        -0.5623
     23 N4          3.8526   -0.5934   -1.2222 N.am      1 <0>        -0.6900
     24 C16         2.4863   -0.4790   -0.9335 C.ar      1 <0>         0.1635
     25 C17         1.5516   -0.5518   -1.9576 C.ar      1 <0>        -0.1265
     26 C18         0.2052   -0.4394   -1.6724 C.ar      1 <0>        -0.0923
     27 C19        -0.2137   -0.2543   -0.3628 C.ar      1 <0>         0.0841
     28 C20         0.7198   -0.1815    0.6609 C.ar      1 <0>        -0.0957
     29 C21         2.0665   -0.2932    0.3769 C.ar      1 <0>        -0.1058
     30 O2         -1.5393   -0.1385   -0.0833 O.3       1 <0>        -0.2424
     31 C22        -2.3129   -1.2454   -0.1983 C.ar      1 <0>         0.3836
     32 C23        -3.6894   -1.1637   -0.0277 C.ar      1 <0>        -0.3134
     33 C24        -4.4409   -2.3284   -0.1601 C.ar      1 <0>         0.4631
     34 N5         -3.8165   -3.4721   -0.4341 N.ar      1 <0>        -0.5936
     35 C25        -2.5082   -3.5081   -0.5840 C.ar      1 <0>         0.3760
     36 N6         -1.7644   -2.4263   -0.4707 N.ar      1 <0>        -0.6039
     37 N7         -5.8178   -2.2988   -0.0034 N.pl3     1 <0>        -0.7218
     38 C26        -6.4937   -1.0344    0.2979 C.3       1 <0>         0.0891
     39 H1          9.0560    3.0401    9.2597 H         1 <0>         0.1066
     40 H2          8.0243    2.9380    7.7928 H         1 <0>         0.0798
     41 H3          8.8763    4.4695    8.1868 H         1 <0>         0.0803
     42 H4         11.0672    3.3441    7.8241 H         1 <0>         0.1306
     43 H5         10.2153    1.8126    7.4301 H         1 <0>         0.1269
     44 H6         12.0665    3.6630    5.7442 H         1 <0>         0.1361
     45 H7         11.4577    2.0621    5.2031 H         1 <0>         0.1357
     46 H8         10.8699    4.7665    3.8728 H         1 <0>         0.0625
     47 H9         11.9796    3.4990    3.2494 H         1 <0>         0.1239
     48 H10         8.4684    4.3007    3.9867 H         1 <0>         0.0621
     49 H11         7.8594    2.6998    3.4455 H         1 <0>         0.1239
     50 H12         9.0569    1.5962    5.3178 H         1 <0>         0.1351
     51 H13         7.9470    2.8635    5.9412 H         1 <0>         0.1359
     52 H14         9.4106    4.4897    1.7732 H         1 <0>         0.0663
     53 H15        10.7489    3.3982    1.2791 H         1 <0>         0.1073
     54 H16         7.2082    3.9988    1.1607 H         1 <0>         0.1358
     55 H17         5.5933    2.5489    0.0003 H         1 <0>         0.1466
     56 H18         8.5625   -0.5152   -0.2838 H         1 <0>         0.1447
     57 H19         6.3979   -0.5903   -1.6569 H         1 <0>         0.4387
     58 H20         4.1917   -1.2745   -2.0166 H         1 <0>         0.4355
     59 H21         1.8775   -0.6959   -2.9771 H         1 <0>         0.1334
     60 H22        -0.5220   -0.4960   -2.4689 H         1 <0>         0.1303
     61 H23         0.3932   -0.0371    1.6801 H         1 <0>         0.1327
     62 H24         2.7931   -0.2369    1.1740 H         1 <0>         0.1442
     63 H25        -4.1646   -0.2205    0.1982 H         1 <0>         0.1466
     64 H26        -2.0315   -4.4515   -0.8058 H         1 <0>         0.2000
     65 H27        -6.4030   -3.2246   -0.1053 H         1 <0>         0.4376
     66 H28        -7.5762   -1.2091    0.3856 H         1 <0>         0.0864
     67 H29        -6.3028   -0.3146   -0.5117 H         1 <0>         0.0603
     68 H30        -6.1096   -0.6302    1.2461 H         1 <0>         0.0599
     69 H31         9.7882    4.4332    6.0188 H         1 <0>         0.4364
@<TRIPOS>BOND
     1    1    2 1
     2    1   39 1
     3    1   40 1
     4    1   41 1
     5    2    3 1
     6    2   42 1
     7    2   43 1
     8    3    8 1
     9    3    4 1
    10    3   69 1
    11    4    5 1
    12    4   44 1
    13    4   45 1
    14    5    6 1
    15    5   46 1
    16    5   47 1
    17    6    7 1
    18    6    9 1
    19    7    8 1
    20    7   48 1
    21    7   49 1
    22    8   50 1
    23    8   51 1
    24    9   10 1
    25    9   52 1
    26    9   53 1
    27   10   15 ar
    28   10   11 ar
    29   11   12 ar
    30   11   54 1
    31   12   13 ar
    32   12   55 1
    33   13   14 ar
    34   13   20 1
    35   14   15 ar
    36   14   56 1
    37   15   16 1
    38   16   17 1
    39   16   18 1
    40   16   19 1
    41   20   21 am
    42   20   57 1
    43   21   22 2
    44   21   23 am
    45   23   24 1
    46   23   58 1
    47   24   29 ar
    48   24   25 ar
    49   25   26 ar
    50   25   59 1
    51   26   27 ar
    52   26   60 1
    53   27   28 ar
    54   27   30 1
    55   28   29 ar
    56   28   61 1
    57   29   62 1
    58   30   31 1
    59   31   36 ar
    60   31   32 ar
    61   32   33 ar
    62   32   63 1
    63   33   34 ar
    64   33   37 1
    65   34   35 ar
    66   35   36 ar
    67   35   64 1
    68   37   38 1
    69   37   65 1
    70   38   66 1
    71   38   67 1
    72   38   68 1
@<TRIPOS>MOLECULE
ZINC23247639
   69    72     0     0     0
SMALL
USER_CHARGES
1-[4-[(4-ethylpiperazin-1-yl)methyl]-3-(trifluoromethyl)phenyl]-3-[4-(6-methylaminopyrimidin-4-yl)oxyphenyl]urea
@<TRIPOS>ATOM
      1 C1          8.9417    3.3719    8.2172 C.3       1 <0>        -0.1569
      2 C2         10.1498    2.9102    7.3997 C.3       1 <0>         0.0486
      3 N1          9.9972    3.3533    6.0075 N.3       1 <0>        -0.5379
      4 C3         11.2367    3.1387    5.2477 C.3       1 <0>         0.0250
      5 C4         11.0629    3.6845    3.8284 C.3       1 <0>         0.0004
      6 N2          9.9288    3.0094    3.1822 N.4       1 <0>        -0.4202
      7 C5          8.6893    3.2240    3.9420 C.3       1 <0>        -0.0009
      8 C6          8.8631    2.6781    5.3612 C.3       1 <0>         0.0222
      9 C7          9.7762    3.4524    1.7899 C.3       1 <0>         0.0266
     10 C8          8.7879    2.5601    1.0842 C.ar      1 <0>        -0.1272
     11 C9          7.5022    3.0092    0.8434 C.ar      1 <0>        -0.0630
     12 C10         6.5958    2.1959    0.1923 C.ar      1 <0>        -0.0846
     13 C11         6.9731    0.9214   -0.2106 C.ar      1 <0>         0.2154
     14 C12         8.2646    0.4735    0.0326 C.ar      1 <0>        -0.0955
     15 C13         9.1683    1.2940    0.6793 C.ar      1 <0>        -0.1507
     16 C14        10.5702    0.8086    0.9441 C.3       1 <0>         0.5109
     17 F1         10.7250   -0.4786    0.4184 F         1 <0>        -0.1491
     18 F2         11.4860    1.6739    0.3362 F         1 <0>        -0.1584
     19 F3         10.8008    0.7797    2.3237 F         1 <0>        -0.1724
     20 N3          6.0552    0.0926   -0.8655 N.am      1 <0>        -0.6988
     21 C15         4.7513    0.1311   -0.5266 C.2       1 <0>         0.7114
     22 O1          4.3858    0.8194    0.4067 O.2       1 <0>        -0.5584
     23 N4          3.8526   -0.5934   -1.2222 N.am      1 <0>        -0.6858
     24 C16         2.4863   -0.4790   -0.9335 C.ar      1 <0>         0.1577
     25 C17         1.5516   -0.5518   -1.9576 C.ar      1 <0>        -0.1240
     26 C18         0.2052   -0.4394   -1.6724 C.ar      1 <0>        -0.0926
     27 C19        -0.2137   -0.2543   -0.3628 C.ar      1 <0>         0.0883
     28 C20         0.7198   -0.1815    0.6609 C.ar      1 <0>        -0.0957
     29 C21         2.0665   -0.2932    0.3769 C.ar      1 <0>        -0.1046
     30 O2         -1.5393   -0.1385   -0.0833 O.3       1 <0>        -0.2426
     31 C22        -2.3129   -1.2454   -0.1983 C.ar      1 <0>         0.3832
     32 C23        -3.6894   -1.1637   -0.0277 C.ar      1 <0>        -0.3126
     33 C24        -4.4409   -2.3284   -0.1601 C.ar      1 <0>         0.4635
     34 N5         -3.8165   -3.4721   -0.4341 N.ar      1 <0>        -0.5931
     35 C25        -2.5082   -3.5081   -0.5840 C.ar      1 <0>         0.3762
     36 N6         -1.7644   -2.4263   -0.4707 N.ar      1 <0>        -0.6049
     37 N7         -5.8178   -2.2988   -0.0034 N.pl3     1 <0>        -0.7212
     38 C26        -6.4937   -1.0344    0.2979 C.3       1 <0>         0.0887
     39 H1          9.0560    3.0401    9.2597 H         1 <0>         0.0714
     40 H2          8.0243    2.9380    7.7928 H         1 <0>         0.0562
     41 H3          8.8763    4.4695    8.1868 H         1 <0>         0.0696
     42 H4         11.0672    3.3441    7.8241 H         1 <0>         0.0895
     43 H5         10.2153    1.8126    7.4301 H         1 <0>         0.0455
     44 H6         12.0665    3.6630    5.7442 H         1 <0>         0.1253
     45 H7         11.4577    2.0621    5.2031 H         1 <0>         0.0582
     46 H8         10.8699    4.7665    3.8728 H         1 <0>         0.1369
     47 H9         11.9796    3.4990    3.2494 H         1 <0>         0.1329
     48 H10         8.4684    4.3007    3.9867 H         1 <0>         0.1355
     49 H11         7.8594    2.6998    3.4455 H         1 <0>         0.1312
     50 H12         9.0569    1.5962    5.3178 H         1 <0>         0.0572
     51 H13         7.9470    2.8635    5.9412 H         1 <0>         0.1266
     52 H14         9.4106    4.4897    1.7732 H         1 <0>         0.1472
     53 H15        10.7489    3.3982    1.2791 H         1 <0>         0.1420
     54 H16         7.2082    3.9988    1.1607 H         1 <0>         0.1512
     55 H17         5.5933    2.5489    0.0003 H         1 <0>         0.1583
     56 H18         8.5625   -0.5152   -0.2838 H         1 <0>         0.1556
     57 H19         6.3979   -0.5903   -1.6569 H         1 <0>         0.4440
     58 H20         4.1917   -1.2745   -2.0166 H         1 <0>         0.4371
     59 H21         1.8775   -0.6959   -2.9771 H         1 <0>         0.1338
     60 H22        -0.5220   -0.4960   -2.4689 H         1 <0>         0.1313
     61 H23         0.3932   -0.0371    1.6801 H         1 <0>         0.1341
     62 H24         2.7931   -0.2369    1.1740 H         1 <0>         0.1440
     63 H25        -4.1646   -0.2205    0.1982 H         1 <0>         0.1470
     64 H26        -2.0315   -4.4515   -0.8058 H         1 <0>         0.2001
     65 H27        -6.4030   -3.2246   -0.1053 H         1 <0>         0.4380
     66 H28        -7.5762   -1.2091    0.3856 H         1 <0>         0.0868
     67 H29        -6.3028   -0.3146   -0.5117 H         1 <0>         0.0604
     68 H30        -6.1096   -0.6302    1.2461 H         1 <0>         0.0603
     69 H31        10.1379    1.9295    3.1711 H         1 <0>         0.4253
@<TRIPOS>BOND
     1    1    2 1
     2    1   39 1
     3    1   40 1
     4    1   41 1
     5    2    3 1
     6    2   42 1
     7    2   43 1
     8    3    8 1
     9    3    4 1
    10    4    5 1
    11    4   44 1
    12    4   45 1
    13    5    6 1
    14    5   46 1
    15    5   47 1
    16    6    7 1
    17    6    9 1
    18    6   69 1
    19    7    8 1
    20    7   48 1
    21    7   49 1
    22    8   50 1
    23    8   51 1
    24    9   10 1
    25    9   52 1
    26    9   53 1
    27   10   15 ar
    28   10   11 ar
    29   11   12 ar
    30   11   54 1
    31   12   13 ar
    32   12   55 1
    33   13   14 ar
    34   13   20 1
    35   14   15 ar
    36   14   56 1
    37   15   16 1
    38   16   17 1
    39   16   18 1
    40   16   19 1
    41   20   21 am
    42   20   57 1
    43   21   22 2
    44   21   23 am
    45   23   24 1
    46   23   58 1
    47   24   29 ar
    48   24   25 ar
    49   25   26 ar
    50   25   59 1
    51   26   27 ar
    52   26   60 1
    53   27   28 ar
    54   27   30 1
    55   28   29 ar
    56   28   61 1
    57   29   62 1
    58   30   31 1
    59   31   36 ar
    60   31   32 ar
    61   32   33 ar
    62   32   63 1
    63   33   34 ar
    64   33   37 1
    65   34   35 ar
    66   35   36 ar
    67   35   64 1
    68   37   38 1
    69   37   65 1
    70   38   66 1
    71   38   67 1
    72   38   68 1
@<TRIPOS>MOLECULE
ZINC23247639
   68    71     0     0     0
SMALL
USER_CHARGES
1-[4-[(4-ethylpiperazin-1-yl)methyl]-3-(trifluoromethyl)phenyl]-3-[4-(6-methylaminopyrimidin-4-yl)oxyphenyl]urea
@<TRIPOS>ATOM
      1 C1          8.9417    3.3719    8.2172 C.3       1 <0>        -0.1510
      2 C2         10.1498    2.9102    7.3997 C.3       1 <0>         0.0499
      3 N1          9.9972    3.3533    6.0075 N.3       1 <0>        -0.5402
      4 C3         11.2367    3.1387    5.2477 C.3       1 <0>         0.0569
      5 C4         11.0629    3.6845    3.8284 C.3       1 <0>         0.0590
      6 N2          9.9288    3.0094    3.1822 N.3       1 <0>        -0.5268
      7 C5          8.6893    3.2240    3.9420 C.3       1 <0>         0.0561
      8 C6          8.8631    2.6781    5.3612 C.3       1 <0>         0.0550
      9 C7          9.7762    3.4524    1.7899 C.3       1 <0>         0.0729
     10 C8          8.7879    2.5601    1.0842 C.ar      1 <0>        -0.0447
     11 C9          7.5022    3.0092    0.8434 C.ar      1 <0>        -0.0942
     12 C10         6.5958    2.1959    0.1923 C.ar      1 <0>        -0.0884
     13 C11         6.9731    0.9214   -0.2106 C.ar      1 <0>         0.1720
     14 C12         8.2646    0.4735    0.0326 C.ar      1 <0>        -0.1038
     15 C13         9.1683    1.2940    0.6793 C.ar      1 <0>        -0.1404
     16 C14        10.5702    0.8086    0.9441 C.3       1 <0>         0.5095
     17 F1         10.7250   -0.4786    0.4184 F         1 <0>        -0.1841
     18 F2         11.4860    1.6739    0.3362 F         1 <0>        -0.1795
     19 F3         10.8008    0.7797    2.3237 F         1 <0>        -0.1519
     20 N3          6.0552    0.0926   -0.8655 N.am      1 <0>        -0.6948
     21 C15         4.7513    0.1311   -0.5266 C.2       1 <0>         0.7096
     22 O1          4.3858    0.8194    0.4067 O.2       1 <0>        -0.5587
     23 N4          3.8526   -0.5934   -1.2222 N.am      1 <0>        -0.6930
     24 C16         2.4863   -0.4790   -0.9335 C.ar      1 <0>         0.1697
     25 C17         1.5516   -0.5518   -1.9576 C.ar      1 <0>        -0.1297
     26 C18         0.2052   -0.4394   -1.6724 C.ar      1 <0>        -0.0930
     27 C19        -0.2137   -0.2543   -0.3628 C.ar      1 <0>         0.0783
     28 C20         0.7198   -0.1815    0.6609 C.ar      1 <0>        -0.0936
     29 C21         2.0665   -0.2932    0.3769 C.ar      1 <0>        -0.1059
     30 O2         -1.5393   -0.1385   -0.0833 O.3       1 <0>        -0.2412
     31 C22        -2.3129   -1.2454   -0.1983 C.ar      1 <0>         0.3851
     32 C23        -3.6894   -1.1637   -0.0277 C.ar      1 <0>        -0.3141
     33 C24        -4.4409   -2.3284   -0.1601 C.ar      1 <0>         0.4620
     34 N5         -3.8165   -3.4721   -0.4341 N.ar      1 <0>        -0.5954
     35 C25        -2.5082   -3.5081   -0.5840 C.ar      1 <0>         0.3753
     36 N6         -1.7644   -2.4263   -0.4707 N.ar      1 <0>        -0.6017
     37 N7         -5.8178   -2.2988   -0.0034 N.pl3     1 <0>        -0.7231
     38 C26        -6.4937   -1.0344    0.2979 C.3       1 <0>         0.0898
     39 H1          9.0560    3.0401    9.2597 H         1 <0>         0.0595
     40 H2          8.0243    2.9380    7.7928 H         1 <0>         0.0547
     41 H3          8.8763    4.4695    8.1868 H         1 <0>         0.0631
     42 H4         11.0672    3.3441    7.8241 H         1 <0>         0.0746
     43 H5         10.2153    1.8126    7.4301 H         1 <0>         0.0335
     44 H6         12.0665    3.6630    5.7442 H         1 <0>         0.0800
     45 H7         11.4577    2.0621    5.2031 H         1 <0>         0.0441
     46 H8         10.8699    4.7665    3.8728 H         1 <0>         0.0445
     47 H9         11.9796    3.4990    3.2494 H         1 <0>         0.0809
     48 H10         8.4684    4.3007    3.9867 H         1 <0>         0.0435
     49 H11         7.8594    2.6998    3.4455 H         1 <0>         0.0808
     50 H12         9.0569    1.5962    5.3178 H         1 <0>         0.0425
     51 H13         7.9470    2.8635    5.9412 H         1 <0>         0.0819
     52 H14         9.4106    4.4897    1.7732 H         1 <0>         0.0550
     53 H15        10.7489    3.3982    1.2791 H         1 <0>         0.0962
     54 H16         7.2082    3.9988    1.1607 H         1 <0>         0.1355
     55 H17         5.5933    2.5489    0.0003 H         1 <0>         0.1427
     56 H18         8.5625   -0.5152   -0.2838 H         1 <0>         0.1409
     57 H19         6.3979   -0.5903   -1.6569 H         1 <0>         0.4343
     58 H20         4.1917   -1.2745   -2.0166 H         1 <0>         0.4332
     59 H21         1.8775   -0.6959   -2.9771 H         1 <0>         0.1323
     60 H22        -0.5220   -0.4960   -2.4689 H         1 <0>         0.1282
     61 H23         0.3932   -0.0371    1.6801 H         1 <0>         0.1328
     62 H24         2.7931   -0.2369    1.1740 H         1 <0>         0.1466
     63 H25        -4.1646   -0.2205    0.1982 H         1 <0>         0.1463
     64 H26        -2.0315   -4.4515   -0.8058 H         1 <0>         0.1996
     65 H27        -6.4030   -3.2246   -0.1053 H         1 <0>         0.4362
     66 H28        -7.5762   -1.2091    0.3856 H         1 <0>         0.0851
     67 H29        -6.3028   -0.3146   -0.5117 H         1 <0>         0.0598
     68 H30        -6.1096   -0.6302    1.2461 H         1 <0>         0.0599
@<TRIPOS>BOND
     1    1    2 1
     2    1   39 1
     3    1   40 1
     4    1   41 1
     5    2    3 1
     6    2   42 1
     7    2   43 1
     8    3    8 1
     9    3    4 1
    10    4    5 1
    11    4   44 1
    12    4   45 1
    13    5    6 1
    14    5   46 1
    15    5   47 1
    16    6    7 1
    17    6    9 1
    18    7    8 1
    19    7   48 1
    20    7   49 1
    21    8   50 1
    22    8   51 1
    23    9   10 1
    24    9   52 1
    25    9   53 1
    26   10   15 ar
    27   10   11 ar
    28   11   12 ar
    29   11   54 1
    30   12   13 ar
    31   12   55 1
    32   13   14 ar
    33   13   20 1
    34   14   15 ar
    35   14   56 1
    36   15   16 1
    37   16   17 1
    38   16   18 1
    39   16   19 1
    40   20   21 am
    41   20   57 1
    42   21   22 2
    43   21   23 am
    44   23   24 1
    45   23   58 1
    46   24   29 ar
    47   24   25 ar
    48   25   26 ar
    49   25   59 1
    50   26   27 ar
    51   26   60 1
    52   27   28 ar
    53   27   30 1
    54   28   29 ar
    55   28   61 1
    56   29   62 1
    57   30   31 1
    58   31   36 ar
    59   31   32 ar
    60   32   33 ar
    61   32   63 1
    62   33   34 ar
    63   33   37 1
    64   34   35 ar
    65   35   36 ar
    66   35   64 1
    67   37   38 1
    68   37   65 1
    69   38   66 1
    70   38   67 1
    71   38   68 1
@<TRIPOS>MOLECULE
ZINC00602803
   57    59     0     0     0
SMALL
USER_CHARGES

@<TRIPOS>ATOM
      1 C1         -1.3402   -4.8618    1.2145 C.3       1 <0>        -0.1534
      2 C2         -0.8181   -3.6495    0.4408 C.3       1 <0>         0.0511
      3 O1         -0.7742   -2.5142    1.3074 O.3       1 <0>        -0.3148
      4 C3         -0.3304   -1.3470    0.7727 C.ar      1 <0>         0.1525
      5 C4          0.0498   -1.3049   -0.5488 C.ar      1 <0>        -0.1831
      6 C5          0.5092   -0.1023   -1.1071 C.ar      1 <0>         0.1876
      7 C6          0.5748    1.0570   -0.2965 C.ar      1 <0>        -0.1304
      8 C7          0.1883    0.9932    1.0499 C.ar      1 <0>        -0.0592
      9 C8         -0.2650   -0.1967    1.5740 C.ar      1 <0>         0.1185
     10 N1         -0.6575   -0.2608    2.9161 N.am      1 <0>        -0.6449
     11 C9         -0.1566    0.6173    3.8075 C.2       1 <0>         0.5328
     12 O2          0.7152    1.3957    3.4703 O.2       1 <0>        -0.5071
     13 C10        -0.6641    0.6344    5.1877 C.2       1 <0>        -0.1271
     14 C11        -0.1697    1.5011    6.0673 C.2       1 <0>        -0.1492
     15 C12        -0.6897    1.5186    7.4817 C.3       1 <0>         0.0302
     16 C13         1.3312    2.5206    8.3617 C.3       1 <0>        -0.0486
     17 C14        -0.0528    1.1357    9.7861 C.3       1 <0>        -0.0433
     18 C15         1.0386    2.2666   -0.8642 C.ar      1 <0>         0.2844
     19 C16         1.4144    2.2536   -2.2161 C.ar      1 <0>        -0.1029
     20 C17         1.3165    1.0573   -2.9447 C.ar      1 <0>         0.2010
     21 N2          0.8834   -0.0478   -2.3940 N.ar      1 <0>        -0.4743
     22 C18         1.8922    3.4476   -2.8459 C.1       1 <0>         0.2469
     23 N3          2.2712    4.3948   -3.3456 N.1       1 <0>        -0.3851
     24 N4          1.1194    3.4219   -0.1130 N.pl3     1 <0>        -0.6979
     25 C19         2.3677    3.9814    0.1773 C.ar      1 <0>         0.1846
     26 C20         3.4715    3.1592    0.3659 C.ar      1 <0>        -0.1231
     27 C21         4.7048    3.7137    0.6463 C.ar      1 <0>        -0.1069
     28 C22         4.8398    5.0877    0.7520 C.ar      1 <0>         0.0844
     29 C23         3.7394    5.9099    0.5700 C.ar      1 <0>        -0.0407
     30 C24         2.5044    5.3592    0.2831 C.ar      1 <0>        -0.1222
     31 Cl1         3.9119    7.6322    0.7020 Cl        1 <0>        -0.0373
     32 F1          6.0462    5.6274    1.0324 F         1 <0>        -0.1244
     33 H1         -2.3423   -4.6506    1.5877 H         1 <0>         0.0676
     34 H2         -1.3737   -5.7279    0.5535 H         1 <0>         0.0859
     35 H3         -0.6765   -5.0706    2.0536 H         1 <0>         0.0665
     36 H4         -1.4818   -3.4407   -0.3983 H         1 <0>         0.0727
     37 H5          0.1840   -3.8607    0.0676 H         1 <0>         0.0719
     38 H6         -0.0049   -2.1965   -1.1558 H         1 <0>         0.1557
     39 H7          0.2375    1.8756    1.6707 H         1 <0>         0.1646
     40 H8         -1.2900   -0.9373    3.2047 H         1 <0>         0.4221
     41 H9         -1.4381   -0.0567    5.4870 H         1 <0>         0.1454
     42 H10         0.6043    2.1922    5.7680 H         1 <0>         0.1533
     43 H11        -1.1915    2.4672    7.6726 H         1 <0>         0.1468
     44 H12        -1.3959    0.6999    7.6193 H         1 <0>         0.1366
     45 H13         0.7789    3.4221    8.6269 H         1 <0>         0.1257
     46 H14         2.1523    2.3777    9.0642 H         1 <0>         0.1250
     47 H15         1.7302    2.6227    7.3524 H         1 <0>         0.1232
     48 H16        -0.6601    0.2309    9.8124 H         1 <0>         0.1226
     49 H17         0.7976    1.0222   10.4584 H         1 <0>         0.1252
     50 H18        -0.6553    1.9870   10.1029 H         1 <0>         0.1250
     51 H19         1.6056    1.0492   -3.9853 H         1 <0>         0.1765
     52 H20         0.3102    3.8456    0.2136 H         1 <0>         0.4201
     53 H21         3.3660    2.0871    0.2888 H         1 <0>         0.1375
     54 H22         5.5639    3.0747    0.7881 H         1 <0>         0.1500
     55 H23         1.6466    6.0000    0.1416 H         1 <0>         0.1457
     56 N5          0.4465    1.3376    8.4096 N.4       1 <0>        -0.3970
     57 H24         0.9816    0.5092    8.1241 H         1 <0>         0.4334
@<TRIPOS>BOND
     1    1    2 1
     2    1   33 1
     3    1   34 1
     4    1   35 1
     5    2    3 1
     6    2   36 1
     7    2   37 1
     8    3    4 1
     9    4    9 ar
    10    4    5 ar
    11    5    6 ar
    12    5   38 1
    13    6   21 ar
    14    6    7 ar
    15    7    8 ar
    16    7   18 ar
    17    8    9 ar
    18    8   39 1
    19    9   10 1
    20   10   11 am
    21   10   40 1
    22   11   12 2
    23   11   13 1
    24   13   14 2
    25   13   41 1
    26   14   15 1
    27   14   42 1
    28   15   43 1
    29   15   44 1
    30   15   56 1
    31   16   45 1
    32   16   46 1
    33   16   47 1
    34   16   56 1
    35   17   48 1
    36   17   49 1
    37   17   50 1
    38   17   56 1
    39   18   19 ar
    40   18   24 1
    41   19   20 ar
    42   19   22 1
    43   20   21 ar
    44   20   51 1
    45   22   23 3
    46   24   25 1
    47   24   52 1
    48   25   30 ar
    49   25   26 ar
    50   26   27 ar
    51   26   53 1
    52   27   28 ar
    53   27   54 1
    54   28   29 ar
    55   28   32 1
    56   29   30 ar
    57   29   31 1
    58   30   55 1
    59   56   57 1
@<TRIPOS>MOLECULE
ZINC03991710
   36    41     0     0     0
SMALL
USER_CHARGES

@<TRIPOS>ATOM
      1 C1          1.1698    2.0901    0.0021 C.ar      1 <0>        -0.1470
      2 C2          2.3802    1.4132   -0.0139 C.ar      1 <0>        -0.0714
      3 C3          2.4136    0.0354   -0.0214 C.ar      1 <0>        -0.1437
      4 C4          1.2263   -0.6905   -0.0133 C.ar      1 <0>         0.1445
      5 C5          0.0021   -0.0041    0.0020 C.ar      1 <0>        -0.1076
      6 C6         -0.0168    1.3900    0.0097 C.ar      1 <0>        -0.0468
      7 C7         -1.0533   -1.0311    0.0066 C.ar      1 <0>        -0.0092
      8 C8         -2.4524   -0.9704    0.0209 C.ar      1 <0>        -0.1059
      9 C9         -3.2046   -2.1581    0.0224 C.ar      1 <0>        -0.1073
     10 C10        -2.5513   -3.3971    0.0095 C.ar      1 <0>        -0.0140
     11 C11        -3.0283   -4.7902    0.0080 C.ar      1 <0>        -0.0924
     12 C12        -4.2968   -5.3691    0.0176 C.ar      1 <0>        -0.0389
     13 C13        -4.4227   -6.7408    0.0127 C.ar      1 <0>        -0.1213
     14 C14        -3.2927   -7.5464   -0.0024 C.ar      1 <0>        -0.0474
     15 C15        -2.0322   -6.9869   -0.0121 C.ar      1 <0>        -0.1137
     16 C16        -1.8842   -5.6033   -0.0073 C.ar      1 <0>         0.1498
     17 N1         -0.7696   -4.7856   -0.0148 N.pl3     1 <0>        -0.6026
     18 H1          0.1480   -5.0999   -0.0251 H         1 <0>         0.4226
     19 C17        -1.1485   -3.4570   -0.0049 C.ar      1 <0>         0.1511
     20 C18        -0.3991   -2.2735   -0.0064 C.ar      1 <0>         0.1482
     21 N2          0.9639   -2.0477   -0.0181 N.pl3     1 <0>        -0.6053
     22 H2          1.6405   -2.7427   -0.0288 H         1 <0>         0.4208
     23 Br1        -3.4830   -9.4278   -0.0103 Br        1 <0>        -0.0356
     24 C19        -4.6182   -1.7422    0.0387 C.2       1 <0>         0.5843
     25 O1         -5.5770   -2.4887    0.0449 O.2       1 <0>        -0.4579
     26 N3         -4.6696   -0.3981    0.0461 N.am      1 <0>        -0.6804
     27 C20        -3.4326    0.1301    0.0364 C.2       1 <0>         0.5838
     28 O2         -3.1677    1.3160    0.0392 O.2       1 <0>        -0.4567
     29 H3          1.1573    3.1701    0.0076 H         1 <0>         0.1321
     30 H4          3.3050    1.9709   -0.0199 H         1 <0>         0.1333
     31 H5          3.3619   -0.4813   -0.0332 H         1 <0>         0.1275
     32 H6         -0.9583    1.9192    0.0170 H         1 <0>         0.1424
     33 H7         -5.1776   -4.7442    0.0294 H         1 <0>         0.1518
     34 H8         -5.4044   -7.1910    0.0201 H         1 <0>         0.1423
     35 H9         -1.1594   -7.6229   -0.0238 H         1 <0>         0.1380
     36 H10        -5.4891    0.1208    0.0573 H         1 <0>         0.4326
@<TRIPOS>BOND
     1    1    6 ar
     2    1    2 ar
     3    1   29 1
     4    2    3 ar
     5    2   30 1
     6    3    4 ar
     7    3   31 1
     8    4   21 1
     9    4    5 ar
    10    5    6 ar
    11    5    7 1
    12    6   32 1
    13    7   20 ar
    14    7    8 ar
    15    8   27 1
    16    8    9 ar
    17    9   10 ar
    18    9   24 1
    19   10   19 ar
    20   10   11 1
    21   11   16 ar
    22   11   12 ar
    23   12   13 ar
    24   12   33 1
    25   13   14 ar
    26   13   34 1
    27   14   15 ar
    28   14   23 1
    29   15   16 ar
    30   15   35 1
    31   16   17 1
    32   17   18 1
    33   17   19 1
    34   19   20 ar
    35   20   21 1
    36   21   22 1
    37   24   25 2
    38   24   26 am
    39   26   27 am
    40   26   36 1
    41   27   28 2
@<TRIPOS>MOLECULE
ZINC04335977
   25    28     0     0     0
SMALL
USER_CHARGES

@<TRIPOS>ATOM
      1 C1         -0.0166    1.3742    0.0096 C.ar      1 <0>        -0.0830
      2 C2          1.1706    2.0916    0.0021 C.ar      1 <0>        -0.1243
      3 C3          2.3823    1.4397   -0.0153 C.ar      1 <0>        -0.0569
      4 C4          2.4281    0.0410   -0.0258 C.ar      1 <0>        -0.1454
      5 C5          1.2170   -0.6851   -0.0143 C.ar      1 <0>         0.0500
      6 C6          0.0021   -0.0041    0.0020 C.ar      1 <0>        -0.1088
      7 C7          1.2506   -2.1591   -0.0199 C.2       1 <0>         0.0730
      8 C8          2.5639   -2.7742   -0.0443 C.ar      1 <0>        -0.1429
      9 C9          3.7793   -2.1038   -0.0604 C.ar      1 <0>        -0.1081
     10 C10         4.9294   -2.8876   -0.0855 C.ar      1 <0>        -0.0580
     11 C11         4.7889   -4.2709   -0.0911 C.ar      1 <0>        -0.1027
     12 C12         3.5603   -4.9095   -0.0724 C.ar      1 <0>        -0.0703
     13 C13         2.3922   -4.1530   -0.0476 C.ar      1 <0>         0.0737
     14 N1          1.0342   -4.3134   -0.0236 N.pl3     1 <0>        -0.4208
     15 H1          0.5868   -5.1740   -0.0178 H         1 <0>         0.4498
     16 N2          0.4180   -3.1700   -0.0087 N.2       1 <0>        -0.2006
     17 C14         3.7440   -0.6349   -0.0491 C.2       1 <0>         0.4424
     18 O1          4.7754    0.0120   -0.0592 O.2       1 <0>        -0.4413
     19 H2         -0.9607    1.8984    0.0260 H         1 <0>         0.1352
     20 H3          1.1437    3.1712    0.0097 H         1 <0>         0.1350
     21 H4          3.3001    2.0089   -0.0212 H         1 <0>         0.1415
     22 H5         -0.9260   -0.5563    0.0084 H         1 <0>         0.1375
     23 H6          5.9084   -2.4317   -0.1006 H         1 <0>         0.1458
     24 H7          5.6823   -4.8774   -0.1113 H         1 <0>         0.1405
     25 H8          3.5088   -5.9882   -0.0775 H         1 <0>         0.1387
@<TRIPOS>BOND
     1    1    6 ar
     2    1    2 ar
     3    1   19 1
     4    2    3 ar
     5    2   20 1
     6    3    4 ar
     7    3   21 1
     8    4   17 1
     9    4    5 ar
    10    5    6 ar
    11    5    7 1
    12    6   22 1
    13    7   16 2
    14    7    8 1
    15    8   13 ar
    16    8    9 ar
    17    9   10 ar
    18    9   17 1
    19   10   11 ar
    20   10   23 1
    21   11   12 ar
    22   11   24 1
    23   12   13 ar
    24   12   25 1
    25   13   14 1
    26   14   15 1
    27   14   16 1
    28   17   18 2
@<TRIPOS>MOLECULE
ZINC04335977
   25    28     0     0     0
SMALL
USER_CHARGES

@<TRIPOS>ATOM
      1 C1         -0.0168    1.3856    0.0097 C.ar      1 <0>        -0.1427
      2 C2          1.1170    2.1945    0.0032 C.ar      1 <0>        -0.0217
      3 C3          2.3711    1.6150   -0.0018 C.ar      1 <0>        -0.1545
      4 C4          2.3811    0.2055    0.0219 C.ar      1 <0>        -0.1284
      5 C5          1.2547   -0.6338   -0.0010 C.ar      1 <0>        -0.0019
      6 C6          0.0021   -0.0041    0.0020 C.ar      1 <0>        -0.0002
      7 N1          1.7529   -1.8663   -0.0388 N.2       1 <0>        -0.2064
      8 N2          3.0585   -1.8827   -0.0212 N.2       1 <0>        -0.1750
      9 C7          3.5637   -0.6566    0.0553 C.2       1 <0>        -0.0804
     10 C8          4.8090   -0.0488    0.2082 C.2       1 <0>         0.1832
     11 C9          5.9893   -0.7697    0.0663 C.2       1 <0>        -0.1794
     12 C10         7.1922   -0.1305    0.0279 C.2       1 <0>         0.0175
     13 C11         7.2645    1.2786    0.0514 C.2       1 <0>        -0.1580
     14 C12         6.1810    2.0262    0.2746 C.2       1 <0>        -0.0648
     15 C13         4.8472    1.4205    0.5359 C.3       1 <0>        -0.1143
     16 H1          4.7113    1.4792    1.6158 H         1 <0>         0.1756
     17 C14         3.7065    2.2205   -0.0350 C.2       1 <0>         0.4372
     18 O1          3.8852    3.3247   -0.5044 O.2       1 <0>        -0.4218
     19 H2         -0.9802    1.8735    0.0262 H         1 <0>         0.1380
     20 H3          1.0162    3.2698    0.0017 H         1 <0>         0.1414
     21 H4         -0.9134   -0.5771   -0.0011 H         1 <0>         0.1493
     22 H5          5.9525   -1.8461   -0.0139 H         1 <0>         0.1574
     23 H6          8.1023   -0.7101   -0.0209 H         1 <0>         0.1503
     24 H7          8.2158    1.7622   -0.1141 H         1 <0>         0.1476
     25 H8          6.2755    3.1020    0.2656 H         1 <0>         0.1520
@<TRIPOS>BOND
     1    1    6 ar
     2    1    2 ar
     3    1   19 1
     4    2    3 ar
     5    2   20 1
     6    3   17 1
     7    3    4 ar
     8    4    9 1
     9    4    5 ar
    10    5    6 ar
    11    5    7 1
    12    6   21 1
    13    7    8 2
    14    8    9 1
    15    9   10 2
    16   10   15 1
    17   10   11 1
    18   11   12 2
    19   11   22 1
    20   12   13 1
    21   12   23 1
    22   13   14 2
    23   13   24 1
    24   14   15 1
    25   14   25 1
    26   15   16 1
    27   15   17 1
    28   17   18 2
@<TRIPOS>MOLECULE
ZINC04335977
   25    28     0     0     0
SMALL
USER_CHARGES

@<TRIPOS>ATOM
      1 C1         -0.0164    1.3596    0.0095 C.ar      1 <0>        -0.0576
      2 C2          1.1713    2.0855    0.0021 C.ar      1 <0>        -0.1347
      3 C3          2.3768    1.4549   -0.0120 C.ar      1 <0>        -0.0679
      4 C4          2.4386    0.0472   -0.0213 C.ar      1 <0>        -0.1308
      5 C5          1.2221   -0.6871   -0.0140 C.ar      1 <0>         0.1082
      6 C6          0.0021   -0.0041    0.0020 C.ar      1 <0>        -0.1288
      7 C7          1.2623   -2.1488   -0.0253 C.ar      1 <0>        -0.0283
      8 C8          2.5333   -2.7124   -0.0445 C.ar      1 <0>        -0.1739
      9 C9          3.7767   -1.9860   -0.0536 C.ar      1 <0>        -0.1204
     10 C10         3.7083   -0.5824   -0.0381 C.ar      1 <0>         0.2929
     11 O1          4.8379    0.1571   -0.0391 O.3       1 <0>        -0.4795
     12 C11         4.9469   -2.7593   -0.0757 C.ar      1 <0>         0.0289
     13 C12         4.8276   -4.1389   -0.0827 C.ar      1 <0>        -0.1839
     14 C13         3.6180   -4.8159   -0.0703 C.ar      1 <0>         0.1011
     15 C14         2.4158   -4.1083   -0.0517 C.ar      1 <0>        -0.0377
     16 N1          1.0921   -4.3196   -0.0378 N.2       1 <0>        -0.2189
     17 N2          0.4367   -3.1958   -0.0225 N.2       1 <0>        -0.1913
     18 H1         -0.9619    1.8814    0.0259 H         1 <0>         0.1383
     19 H2          1.1354    3.1649    0.0072 H         1 <0>         0.1360
     20 H3          3.2881    2.0345   -0.0163 H         1 <0>         0.1414
     21 H4         -0.9259   -0.5566    0.0089 H         1 <0>         0.1451
     22 H5          5.9191   -2.2892   -0.0875 H         1 <0>         0.1508
     23 H6          5.7348   -4.7247   -0.0991 H         1 <0>         0.1453
     24 H7          3.6062   -5.8959   -0.0754 H         1 <0>         0.1485
     25 H8          5.1739    0.3631    0.8439 H         1 <0>         0.4170
@<TRIPOS>BOND
     1    1    6 ar
     2    1    2 ar
     3    1   18 1
     4    2    3 ar
     5    2   19 1
     6    3    4 ar
     7    3   20 1
     8    4   10 ar
     9    4    5 ar
    10    5    6 ar
    11    5    7 ar
    12    6   21 1
    13    7   17 1
    14    7    8 ar
    15    8   15 ar
    16    8    9 ar
    17    9   10 ar
    18    9   12 ar
    19   10   11 1
    20   11   25 1
    21   12   13 ar
    22   12   22 1
    23   13   14 ar
    24   13   23 1
    25   14   15 ar
    26   14   24 1
    27   15   16 1
    28   16   17 2
@<TRIPOS>MOLECULE
ZINC04335977
   25    28     0     0     0
SMALL
USER_CHARGES

@<TRIPOS>ATOM
      1 C1         -0.0166    1.3716    0.0096 C.ar      1 <0>        -0.0800
      2 C2          1.1708    2.0918    0.0021 C.ar      1 <0>        -0.1245
      3 C3          2.3828    1.4428   -0.0127 C.ar      1 <0>        -0.0544
      4 C4          2.4320    0.0434   -0.0205 C.ar      1 <0>        -0.1405
      5 C5          1.2210   -0.6886   -0.0124 C.ar      1 <0>         0.0405
      6 C6          0.0021   -0.0041    0.0020 C.ar      1 <0>        -0.1261
      7 C7          1.2457   -2.1536   -0.0208 C.2       1 <0>         0.0504
      8 C8          2.4853   -2.7488   -0.0355 C.ar      1 <0>        -0.1585
      9 C9          3.7667   -2.0921   -0.0444 C.ar      1 <0>        -0.1299
     10 C10         4.8847   -2.9128   -0.0585 C.ar      1 <0>        -0.0238
     11 C11         4.7118   -4.2966   -0.0633 C.ar      1 <0>        -0.1212
     12 C12         3.5050   -4.9362   -0.0556 C.ar      1 <0>        -0.0231
     13 C13         2.3094   -4.1914   -0.0406 C.ar      1 <0>         0.0660
     14 N1          0.9988   -4.3425   -0.0297 N.2       1 <0>        -0.2551
     15 H1         -0.5846   -3.1031   -0.0098 H         1 <0>         0.4487
     16 N2          0.3807   -3.1981   -0.0186 N.pl3     1 <0>        -0.3308
     17 C14         3.7519   -0.6254   -0.0360 C.2       1 <0>         0.4405
     18 O1          4.7871    0.0179   -0.0431 O.2       1 <0>        -0.4447
     19 H2         -0.9611    1.8950    0.0259 H         1 <0>         0.1352
     20 H3          1.1418    3.1714    0.0076 H         1 <0>         0.1359
     21 H4          3.2994    2.0140   -0.0187 H         1 <0>         0.1430
     22 H5         -0.9262   -0.5560    0.0082 H         1 <0>         0.1296
     23 H6          5.8766   -2.4856   -0.0660 H         1 <0>         0.1446
     24 H7          5.6007   -4.9099   -0.0744 H         1 <0>         0.1377
     25 H8          3.4673   -6.0156   -0.0604 H         1 <0>         0.1406
@<TRIPOS>BOND
     1    1    6 ar
     2    1    2 ar
     3    1   19 1
     4    2    3 ar
     5    2   20 1
     6    3    4 ar
     7    3   21 1
     8    4   17 1
     9    4    5 ar
    10    5    6 ar
    11    5    7 1
    12    6   22 1
    13    7    8 2
    14    7   16 1
    15    8    9 ar
    16    8   13 ar
    17    9   10 ar
    18    9   17 1
    19   10   11 ar
    20   10   23 1
    21   11   12 ar
    22   11   24 1
    23   12   13 ar
    24   12   25 1
    25   13   14 2
    26   14   16 1
    27   15   16 1
    28   17   18 2
