@<TRIPOS>MOLECULE
ZINC03882963
   32    34     0     0     0
SMALL
USER_CHARGES
2-[2-(2-quinolyl)vinyl]phenol
@<TRIPOS>ATOM
      1 C1         -0.0126    1.0758    0.0080 C.ar      1 <0>        -0.1180
      2 C2         -1.2337    1.7466    0.0174 C.ar      1 <0>        -0.0992
      3 C3         -1.2872    3.1065    0.0306 C.ar      1 <0>        -0.0953
      4 C4         -0.0944    3.8522    0.0227 C.ar      1 <0>         0.1343
      5 C5          1.1467    3.1669    0.0076 C.ar      1 <0>        -0.1082
      6 C6          1.1631    1.7639    0.0004 C.ar      1 <0>        -0.0954
      7 C7          2.3440    3.9116   -0.0003 C.ar      1 <0>        -0.0561
      8 C8          2.2603    5.2708    0.0055 C.ar      1 <0>        -0.1623
      9 C9          0.9985    5.8942    0.0210 C.ar      1 <0>         0.1915
     10 N1         -0.1197    5.1871    0.0288 N.ar      1 <0>        -0.4733
     11 C10         0.9213    7.3635    0.0281 C.2       1 <0>        -0.1319
     12 C11        -0.2769    7.9738    0.0424 C.2       1 <0>        -0.0476
     13 C12        -0.3541    9.4437    0.0496 C.ar      1 <0>        -0.0945
     14 C13         0.8154   10.2092    0.0416 C.ar      1 <0>        -0.0929
     15 C14         0.7356   11.5854    0.0484 C.ar      1 <0>        -0.1290
     16 C15        -0.4985   12.2136    0.0627 C.ar      1 <0>        -0.0966
     17 C16        -1.6624   11.4686    0.0708 C.ar      1 <0>        -0.1469
     18 C17        -1.6017   10.0846    0.0587 C.ar      1 <0>         0.1244
     19 O1         -2.7447    9.3518    0.0605 O.3       1 <0>        -0.4933
     20 H1          0.0021   -0.0041    0.0020 H         1 <0>         0.1284
     21 H2         -2.1522    1.1784    0.0187 H         1 <0>         0.1309
     22 H3         -2.2420    3.6112    0.0420 H         1 <0>         0.1356
     23 H4          2.1031    1.2322   -0.0107 H         1 <0>         0.1303
     24 H5          3.3037    3.4163   -0.0119 H         1 <0>         0.1408
     25 H6          3.1597    5.8688   -0.0013 H         1 <0>         0.1394
     26 H7          1.8270    7.9518    0.0219 H         1 <0>         0.1326
     27 H8         -1.1826    7.3855    0.0487 H         1 <0>         0.1394
     28 H9          1.7798    9.7233    0.0304 H         1 <0>         0.1310
     29 H10         1.6396   12.1763    0.0422 H         1 <0>         0.1284
     30 H11        -0.5517   13.2923    0.0680 H         1 <0>         0.1288
     31 H12        -2.6209   11.9662    0.0819 H         1 <0>         0.1317
     32 H13        -3.0716    9.1351    0.9444 H         1 <0>         0.3929
@<TRIPOS>BOND
     1    1    6 ar
     2    1    2 ar
     3    1   20 1
     4    2    3 ar
     5    2   21 1
     6    3    4 ar
     7    3   22 1
     8    4   10 ar
     9    4    5 ar
    10    5    6 ar
    11    5    7 ar
    12    6   23 1
    13    7    8 ar
    14    7   24 1
    15    8    9 ar
    16    8   25 1
    17    9   10 ar
    18    9   11 1
    19   11   12 2
    20   11   26 1
    21   12   13 1
    22   12   27 1
    23   13   18 ar
    24   13   14 ar
    25   14   15 ar
    26   14   28 1
    27   15   16 ar
    28   15   29 1
    29   16   17 ar
    30   16   30 1
    31   17   18 ar
    32   17   31 1
    33   18   19 1
    34   19   32 1
@<TRIPOS>MOLECULE
ZINC53178300
   32    34     0     0     0
SMALL
USER_CHARGES

@<TRIPOS>ATOM
      1 C1          0.7392    0.8894    3.3538 C.ar      1 <0>        -0.1165
      2 C2          2.0240    1.1913    3.8002 C.ar      1 <0>        -0.1014
      3 C3          3.1147    0.5760    3.2672 C.ar      1 <0>        -0.0904
      4 C4          2.9487   -0.3808    2.2494 C.ar      1 <0>         0.1343
      5 C5          1.6401   -0.6860    1.7972 C.ar      1 <0>        -0.1064
      6 C6          0.5391   -0.0314    2.3701 C.ar      1 <0>        -0.0976
      7 C7          1.4704   -1.6445    0.7771 C.ar      1 <0>        -0.0580
      8 C8          2.5793   -2.2443    0.2623 C.ar      1 <0>        -0.1670
      9 C9          3.8528   -1.8994    0.7525 C.ar      1 <0>         0.1875
     10 N1          4.0022   -0.9990    1.7103 N.ar      1 <0>        -0.4514
     11 C10         5.0433   -2.5545    0.1881 C.2       1 <0>        -0.1221
     12 C11         6.1110   -1.8182   -0.1672 C.2       1 <0>        -0.0592
     13 C12         6.0274   -0.3487   -0.1589 C.ar      1 <0>        -0.0716
     14 C13         4.8502    0.2908   -0.5577 C.ar      1 <0>        -0.0832
     15 C14         4.7787    1.6674   -0.5469 C.ar      1 <0>        -0.1281
     16 C15         5.8686    2.4204   -0.1430 C.ar      1 <0>        -0.1004
     17 C16         7.0385    1.8008    0.2533 C.ar      1 <0>        -0.1462
     18 C17         7.1265    0.4181    0.2549 C.ar      1 <0>         0.1200
     19 O1          8.2736   -0.1917    0.6494 O.3       1 <0>        -0.4930
     20 H1         -0.1098    1.3888    3.7967 H         1 <0>         0.1275
     21 H2          2.1565    1.9254    4.5812 H         1 <0>         0.1296
     22 H3          4.1040    0.8216    3.6242 H         1 <0>         0.1333
     23 H4         -0.4619   -0.2567    2.0330 H         1 <0>         0.1292
     24 H5          0.4853   -1.8971    0.4133 H         1 <0>         0.1394
     25 H6          2.4819   -2.9828   -0.5197 H         1 <0>         0.1387
     26 H7          5.0596   -3.6267    0.0592 H         1 <0>         0.1407
     27 H8          7.0299   -2.3052   -0.4588 H         1 <0>         0.1322
     28 H9          3.9982   -0.2926   -0.8741 H         1 <0>         0.1185
     29 H10         3.8689    2.1609   -0.8552 H         1 <0>         0.1205
     30 H11         5.8039    3.4985   -0.1380 H         1 <0>         0.1248
     31 H12         7.8842    2.3952    0.5662 H         1 <0>         0.1283
     32 H13         8.9036   -0.3464   -0.0678 H         1 <0>         0.3880
@<TRIPOS>BOND
     1    1    6 ar
     2    1    2 ar
     3    1   20 1
     4    2    3 ar
     5    2   21 1
     6    3    4 ar
     7    3   22 1
     8    4   10 ar
     9    4    5 ar
    10    5    6 ar
    11    5    7 ar
    12    6   23 1
    13    7    8 ar
    14    7   24 1
    15    8    9 ar
    16    8   25 1
    17    9   10 ar
    18    9   11 1
    19   11   12 2
    20   11   26 1
    21   12   13 1
    22   12   27 1
    23   13   18 ar
    24   13   14 ar
    25   14   15 ar
    26   14   28 1
    27   15   16 ar
    28   15   29 1
    29   16   17 ar
    30   16   30 1
    31   17   18 ar
    32   17   31 1
    33   18   19 1
    34   19   32 1
