@<TRIPOS>MOLECULE
ZINC04165898
   78    81     0     0     0
SMALL
USER_CHARGES

@<TRIPOS>ATOM
      1 C1          0.0711    1.6542    0.3900 C.3       1 <0>        -0.1518
      2 C2         -0.0792    0.1317    0.4057 C.3       1 <0>        -0.0387
      3 C3         -1.5370   -0.2302    0.5777 C.3       1 <0>        -0.1105
      4 C4         -2.0718    0.5822    1.7675 C.3       1 <0>        -0.1197
      5 C5         -1.2908    0.3071    3.0519 C.3       1 <0>        -0.0501
      6 H1         -1.5530   -0.6990    3.3794 H         1 <0>         0.0907
      7 C6          0.1964    0.3302    2.8219 C.2       1 <0>        -0.0364
      8 C7          1.0589    0.9569    3.6136 C.2       1 <0>        -0.2304
      9 C8          0.5784    1.6757    4.7994 C.2       1 <0>         0.3940
     10 O1          1.2417    2.5404    5.3327 O.2       1 <0>        -0.4480
     11 C9         -0.7873    1.2839    5.3234 C.3       1 <0>        -0.1184
     12 H2         -1.1235    2.0155    6.0582 H         1 <0>         0.1096
     13 C10        -1.7450    1.2669    4.1374 C.3       1 <0>        -0.0385
     14 C11        -3.1386    0.8697    4.6328 C.3       1 <0>        -0.0969
     15 C12        -3.0738   -0.5220    5.2656 C.3       1 <0>         0.0704
     16 H3         -2.7325   -1.2430    4.5228 H         1 <0>         0.0666
     17 C13        -2.0986   -0.5041    6.4441 C.3       1 <0>         0.0788
     18 H4         -2.0518   -1.4968    6.8919 H         1 <0>         0.0596
     19 C14        -0.7031   -0.0988    5.9721 C.3       1 <0>        -0.0986
     20 O2         -2.5485    0.4377    7.4201 O.3       1 <0>        -0.5546
     21 O3         -4.3731   -0.8950    5.7290 O.3       1 <0>        -0.5621
     22 C15        -1.8343    2.6748    3.5452 C.3       1 <0>        -0.1550
     23 C16         0.6863   -0.4521    1.6264 C.3       1 <0>         0.1521
     24 C17         2.1396   -0.2345    1.1991 C.3       1 <0>        -0.1476
     25 C18         2.1212   -0.6438   -0.3009 C.3       1 <0>        -0.1007
     26 C19         0.6581   -0.4641   -0.7837 C.3       1 <0>        -0.0913
     27 H5          0.2268   -1.4285   -1.0522 H         1 <0>         0.0833
     28 C20         0.6054    0.4935   -1.9758 C.3       1 <0>         0.1127
     29 C21        -0.8530    0.8169   -2.3061 C.3       1 <0>        -0.1570
     30 C22         1.2691   -0.1637   -3.1876 C.3       1 <0>         0.0823
     31 H6          0.7404   -1.0837   -3.4369 H         1 <0>         0.1015
     32 C23         1.2165    0.7938   -4.3797 C.3       1 <0>        -0.1451
     33 C24         1.7669    0.0916   -5.6226 C.3       1 <0>        -0.1400
     34 C25         1.7142    1.0492   -6.8147 C.3       1 <0>         0.1253
     35 C26         2.1469    0.3098   -8.0824 C.3       1 <0>        -0.1801
     36 C27         0.2855    1.5680   -6.9895 C.3       1 <0>        -0.1431
     37 O4          2.5953    2.1497   -6.5810 O.3       1 <0>        -0.5593
     38 O5          2.6313   -0.4659   -2.8791 O.3       1 <0>        -0.5517
     39 O6          1.2986    1.6996   -1.6489 O.3       1 <0>        -0.5435
     40 O7          0.3996   -1.8424    1.7908 O.3       1 <0>        -0.5363
     41 H7          1.1279    1.9144    0.3297 H         1 <0>         0.0683
     42 H8         -0.4533    2.0622   -0.4741 H         1 <0>         0.0810
     43 H9         -0.3541    2.0708    1.3030 H         1 <0>         0.0505
     44 H10        -2.0916    0.0253   -0.3252 H         1 <0>         0.0722
     45 H11        -1.6326   -1.2963    0.7836 H         1 <0>         0.0771
     46 H12        -2.0012    1.6440    1.5312 H         1 <0>         0.0795
     47 H13        -3.1190    0.3263    1.9285 H         1 <0>         0.0688
     48 H14         2.1142    0.9379    3.3846 H         1 <0>         0.1362
     49 H15        -3.4801    1.5912    5.3751 H         1 <0>         0.0836
     50 H16        -3.8329    0.8552    3.7927 H         1 <0>         0.0772
     51 H17        -0.3437   -0.8225    5.2405 H         1 <0>         0.0817
     52 H18        -0.0151   -0.0629    6.8168 H         1 <0>         0.0819
     53 H19        -3.4256    0.2443    7.7783 H         1 <0>         0.3816
     54 H20        -4.4073   -1.7684    6.1428 H         1 <0>         0.3791
     55 H21        -2.6388    2.7097    2.8106 H         1 <0>         0.0702
     56 H22        -2.0376    3.3915    4.3409 H         1 <0>         0.0620
     57 H23        -0.8901    2.9264    3.0622 H         1 <0>         0.0596
     58 H24         2.4223    0.8123    1.3104 H         1 <0>         0.0817
     59 H25         2.8100   -0.8793    1.7673 H         1 <0>         0.0708
     60 H26         2.7864    0.0026   -0.8735 H         1 <0>         0.0670
     61 H27         2.4258   -1.6848   -0.4087 H         1 <0>         0.0714
     62 H28        -1.3614    1.1626   -1.4060 H         1 <0>         0.0833
     63 H29        -0.8890    1.5974   -3.0661 H         1 <0>         0.0674
     64 H30        -1.3478   -0.0788   -2.6815 H         1 <0>         0.0685
     65 H31         0.1842    1.0941   -4.5592 H         1 <0>         0.0779
     66 H32         1.8192    1.6761   -4.1640 H         1 <0>         0.0774
     67 H33         2.7992   -0.2087   -5.4431 H         1 <0>         0.0697
     68 H34         1.1641   -0.7906   -5.8383 H         1 <0>         0.0679
     69 H35         1.4749   -0.5296   -8.2607 H         1 <0>         0.0651
     70 H36         2.1094    0.9920   -8.9317 H         1 <0>         0.0636
     71 H37         3.1648   -0.0598   -7.9579 H         1 <0>         0.0577
     72 H38        -0.0228    2.0948   -6.0864 H         1 <0>         0.0660
     73 H39         0.2480    2.2502   -7.8388 H         1 <0>         0.0611
     74 H40        -0.3866    0.7285   -7.1678 H         1 <0>         0.0684
     75 H41         3.5202    1.8944   -6.4607 H         1 <0>         0.3742
     76 H42         3.1630    0.3079   -2.6472 H         1 <0>         0.3679
     77 H43         2.2311    1.5699   -1.4281 H         1 <0>         0.3656
     78 H44         0.8541   -2.2518    2.5397 H         1 <0>         0.3758
@<TRIPOS>BOND
     1    1    2 1
     2    1   41 1
     3    1   42 1
     4    1   43 1
     5    2   23 1
     6    2   26 1
     7    2    3 1
     8    3    4 1
     9    3   44 1
    10    3   45 1
    11    4    5 1
    12    4   46 1
    13    4   47 1
    14    5    6 1
    15    5   13 1
    16    5    7 1
    17    7    8 2
    18    7   23 1
    19    8    9 1
    20    8   48 1
    21    9   10 2
    22    9   11 1
    23   11   12 1
    24   11   19 1
    25   11   13 1
    26   13   14 1
    27   13   22 1
    28   14   15 1
    29   14   49 1
    30   14   50 1
    31   15   16 1
    32   15   17 1
    33   15   21 1
    34   17   18 1
    35   17   19 1
    36   17   20 1
    37   19   51 1
    38   19   52 1
    39   20   53 1
    40   21   54 1
    41   22   55 1
    42   22   56 1
    43   22   57 1
    44   23   24 1
    45   23   40 1
    46   24   25 1
    47   24   58 1
    48   24   59 1
    49   25   26 1
    50   25   60 1
    51   25   61 1
    52   26   27 1
    53   26   28 1
    54   28   29 1
    55   28   30 1
    56   28   39 1
    57   29   62 1
    58   29   63 1
    59   29   64 1
    60   30   31 1
    61   30   32 1
    62   30   38 1
    63   32   33 1
    64   32   65 1
    65   32   66 1
    66   33   34 1
    67   33   67 1
    68   33   68 1
    69   34   35 1
    70   34   36 1
    71   34   37 1
    72   35   69 1
    73   35   70 1
    74   35   71 1
    75   36   72 1
    76   36   73 1
    77   36   74 1
    78   37   75 1
    79   38   76 1
    80   39   77 1
    81   40   78 1
@<TRIPOS>MOLECULE
ZINC04165898
   78    81     0     0     0
SMALL
USER_CHARGES

@<TRIPOS>ATOM
      1 C1         -0.0411    1.4179    0.0486 C.3       1 <0>        -0.1460
      2 C2         -0.0006   -0.1088   -0.0223 C.3       1 <0>        -0.0393
      3 C3         -1.3862   -0.6834    0.0140 C.3       1 <0>        -0.1047
      4 C4         -1.9152   -0.8647    1.4432 C.3       1 <0>        -0.1059
      5 C5         -1.1756   -0.0143    2.4602 C.3       1 <0>        -0.0629
      6 H1         -1.2771    1.0232    2.1056 H         1 <0>         0.0967
      7 C6          0.2958   -0.3105    2.4237 C.2       1 <0>        -0.0368
      8 C7          1.0673   -0.2947    3.5079 C.2       1 <0>        -0.2301
      9 C8          0.4432   -0.0620    4.8177 C.2       1 <0>         0.3954
     10 O1          1.0338    0.4406    5.7488 O.2       1 <0>        -0.4439
     11 C9         -0.9893   -0.5459    4.9471 C.3       1 <0>        -0.1172
     12 H2         -1.3918   -0.2305    5.9129 H         1 <0>         0.1100
     13 C10        -1.8142    0.0623    3.8198 C.3       1 <0>        -0.0281
     14 C11        -3.2365   -0.4819    3.8423 C.3       1 <0>        -0.0948
     15 C12        -3.2910   -2.0025    3.8526 C.3       1 <0>         0.0711
     16 H3         -2.9251   -2.4053    2.9057 H         1 <0>         0.0733
     17 C13        -2.4525   -2.5593    5.0011 C.3       1 <0>         0.0793
     18 H4         -2.4684   -3.6505    4.9653 H         1 <0>         0.0587
     19 C14        -1.0104   -2.0715    4.8555 C.3       1 <0>        -0.0991
     20 O2         -2.9840   -2.1226    6.2513 O.3       1 <0>        -0.5542
     21 O3         -4.6486   -2.4233    4.0254 O.3       1 <0>        -0.5672
     22 C15        -1.9266    1.5683    4.1432 C.3       1 <0>        -0.1577
     23 C16         0.8757   -0.7159    1.1025 C.3       1 <0>         0.1608
     24 C17         2.2574   -0.1419    0.7595 C.3       1 <0>        -0.1443
     25 C18         2.3035   -0.2317   -0.7907 C.3       1 <0>        -0.0985
     26 C19         0.8437   -0.4598   -1.2612 C.3       1 <0>        -0.0938
     27 H5          0.6789   -1.4917   -1.5434 H         1 <0>         0.0869
     28 C20         0.4952    0.4888   -2.4077 C.3       1 <0>         0.1114
     29 C21        -1.0135    0.4519   -2.6596 C.3       1 <0>        -0.1558
     30 C22         1.2345    0.0517   -3.6739 C.3       1 <0>         0.0823
     31 H6          0.9349   -0.9626   -3.9377 H         1 <0>         0.1014
     32 C23         0.8857    1.0013   -4.8217 C.3       1 <0>        -0.1462
     33 C24         1.5247    0.4935   -6.1158 C.3       1 <0>        -0.1399
     34 C25         1.1759    1.4431   -7.2636 C.3       1 <0>         0.1253
     35 C26         1.7088    0.8710   -8.5788 C.3       1 <0>        -0.1801
     36 C27        -0.3436    1.5982   -7.3534 C.3       1 <0>        -0.1431
     37 O4          1.7716    2.7197   -7.0234 O.3       1 <0>        -0.5594
     38 O5          2.6436    0.0861   -3.4387 O.3       1 <0>        -0.5521
     39 O6          0.8880    1.8185   -2.0619 O.3       1 <0>        -0.5446
     40 O7          0.9089   -2.1535    0.9970 O.3       1 <0>        -0.5384
     41 H7          0.9635    1.8151   -0.0966 H         1 <0>         0.0697
     42 H8         -0.6993    1.8005   -0.7314 H         1 <0>         0.0832
     43 H9         -0.4163    1.7264    1.0244 H         1 <0>         0.0428
     44 H10        -2.0689   -0.0203   -0.5326 H         1 <0>         0.0678
     45 H11        -1.3879   -1.6543   -0.4952 H         1 <0>         0.0680
     46 H12        -2.9788   -0.6166    1.4607 H         1 <0>         0.0743
     47 H13        -1.8021   -1.9233    1.7135 H         1 <0>         0.0661
     48 H14         2.1317   -0.4519    3.4272 H         1 <0>         0.1378
     49 H15        -3.7432   -0.0988    4.7416 H         1 <0>         0.0789
     50 H16        -3.7901   -0.0972    2.9797 H         1 <0>         0.0772
     51 H17        -0.6135   -2.3901    3.8922 H         1 <0>         0.0853
     52 H18        -0.3989   -2.4947    5.6518 H         1 <0>         0.0768
     53 H19        -3.8962   -2.4014    6.4097 H         1 <0>         0.3816
     54 H20        -4.7638   -3.3832    4.0422 H         1 <0>         0.3788
     55 H21        -2.5417    2.0572    3.3878 H         1 <0>         0.0643
     56 H22        -2.3852    1.6961    5.1237 H         1 <0>         0.0648
     57 H23        -0.9320    2.0144    4.1463 H         1 <0>         0.0556
     58 H24         2.3581    0.8838    1.1019 H         1 <0>         0.0796
     59 H25         3.0430   -0.7606    1.1998 H         1 <0>         0.0691
     60 H26         2.6924    0.6983   -1.2081 H         1 <0>         0.0597
     61 H27         2.9288   -1.0695   -1.0985 H         1 <0>         0.0737
     62 H28        -1.5351    0.8844   -1.8058 H         1 <0>         0.0820
     63 H29        -1.2462    1.0260   -3.5565 H         1 <0>         0.0659
     64 H30        -1.3339   -0.5809   -2.7960 H         1 <0>         0.0701
     65 H31        -0.1967    1.0427   -4.9428 H         1 <0>         0.0790
     66 H32         1.2645    1.9982   -4.5963 H         1 <0>         0.0773
     67 H33         2.6071    0.4521   -5.9947 H         1 <0>         0.0697
     68 H34         1.1459   -0.5034   -6.3412 H         1 <0>         0.0679
     69 H35         1.2544   -0.1027   -8.7620 H         1 <0>         0.0651
     70 H36         1.4603    1.5475   -9.3965 H         1 <0>         0.0636
     71 H37         2.7913    0.7606   -8.5148 H         1 <0>         0.0577
     72 H38        -0.7232    2.0058   -6.4165 H         1 <0>         0.0659
     73 H39        -0.5921    2.2747   -8.1711 H         1 <0>         0.0612
     74 H40        -0.7980    0.6245   -7.5366 H         1 <0>         0.0685
     75 H41         2.7359    2.6971   -6.9548 H         1 <0>         0.3742
     76 H42         2.9810    0.9600   -3.1986 H         1 <0>         0.3673
     77 H43         1.8342    1.9165   -1.8880 H         1 <0>         0.3660
     78 H44         1.4437   -2.5855    1.6770 H         1 <0>         0.3751
@<TRIPOS>BOND
     1    1    2 1
     2    1   41 1
     3    1   42 1
     4    1   43 1
     5    2   23 1
     6    2   26 1
     7    2    3 1
     8    3    4 1
     9    3   44 1
    10    3   45 1
    11    4    5 1
    12    4   46 1
    13    4   47 1
    14    5    6 1
    15    5   13 1
    16    5    7 1
    17    7    8 2
    18    7   23 1
    19    8    9 1
    20    8   48 1
    21    9   10 2
    22    9   11 1
    23   11   12 1
    24   11   19 1
    25   11   13 1
    26   13   14 1
    27   13   22 1
    28   14   15 1
    29   14   49 1
    30   14   50 1
    31   15   16 1
    32   15   17 1
    33   15   21 1
    34   17   18 1
    35   17   19 1
    36   17   20 1
    37   19   51 1
    38   19   52 1
    39   20   53 1
    40   21   54 1
    41   22   55 1
    42   22   56 1
    43   22   57 1
    44   23   24 1
    45   23   40 1
    46   24   25 1
    47   24   58 1
    48   24   59 1
    49   25   26 1
    50   25   60 1
    51   25   61 1
    52   26   27 1
    53   26   28 1
    54   28   29 1
    55   28   30 1
    56   28   39 1
    57   29   62 1
    58   29   63 1
    59   29   64 1
    60   30   31 1
    61   30   32 1
    62   30   38 1
    63   32   33 1
    64   32   65 1
    65   32   66 1
    66   33   34 1
    67   33   67 1
    68   33   68 1
    69   34   35 1
    70   34   36 1
    71   34   37 1
    72   35   69 1
    73   35   70 1
    74   35   71 1
    75   36   72 1
    76   36   73 1
    77   36   74 1
    78   37   75 1
    79   38   76 1
    80   39   77 1
    81   40   78 1
@<TRIPOS>MOLECULE
ZINC04097822
   77    80     0     0     0
SMALL
USER_CHARGES
17-(1,2-dihydroxy-1,5-dimethyl-hexyl)-2,3,14-trihydroxy-10,13-dimethyl-2,3,4,5,9,11,12,15,16,17-decahydro-1H-cyclopenta[a]phenanthren-6-one
@<TRIPOS>ATOM
      1 C1          0.8982    3.8811   -3.4832 C.3       1 <0>        -0.1490
      2 C2          0.7796    2.3567   -3.5383 C.3       1 <0>        -0.0976
      3 C3          1.6222    1.8212   -4.6977 C.3       1 <0>        -0.1489
      4 C4          1.2826    1.7581   -2.2232 C.3       1 <0>        -0.1111
      5 C5          0.3642    2.1945   -1.0799 C.3       1 <0>        -0.1496
      6 C6          0.8672    1.5959    0.2352 C.3       1 <0>         0.0829
      7 H1          0.9506    0.5139    0.1335 H         1 <0>         0.1025
      8 C7         -0.1187    1.9283    1.3569 C.3       1 <0>         0.1112
      9 C8         -1.4907    1.3404    1.0208 C.3       1 <0>        -0.1521
     10 C9          0.3843    1.3298    2.6721 C.3       1 <0>        -0.0912
     11 H2          0.4845    0.2482    2.5812 H         1 <0>         0.0827
     12 C10         1.7425    1.9653    3.0687 C.3       1 <0>        -0.1063
     13 C11         1.5389    2.5763    4.4865 C.3       1 <0>        -0.1494
     14 C12         0.3754    1.7534    5.0446 C.3       1 <0>         0.1514
     15 C13        -0.5643    1.6789    3.8085 C.3       1 <0>        -0.0381
     16 C14        -1.6682    0.7024    4.1457 C.3       1 <0>        -0.1091
     17 C15        -2.5410    1.3585    5.2270 C.3       1 <0>        -0.1203
     18 C16        -1.7391    1.7215    6.4761 C.3       1 <0>        -0.0504
     19 H3         -1.5000    0.7893    6.9879 H         1 <0>         0.0905
     20 C17        -0.4359    2.3924    6.1354 C.2       1 <0>        -0.0357
     21 C18         0.0183    3.4815    6.7449 C.2       1 <0>        -0.2309
     22 C19        -0.7649    4.1013    7.8199 C.2       1 <0>         0.3931
     23 O1         -0.6001    5.2591    8.1430 O.2       1 <0>        -0.4470
     24 C20        -1.7898    3.2219    8.5052 C.3       1 <0>        -0.1070
     25 H4         -2.3755    3.7849    9.0883 H         1 <0>         0.0987
     26 C21        -2.6123    2.5295    7.4201 C.3       1 <0>        -0.0393
     27 C22        -3.6506    1.6159    8.0777 C.3       1 <0>        -0.0967
     28 C23        -2.9332    0.5602    8.9217 C.3       1 <0>         0.0691
     29 H5         -2.2786   -0.0322    8.2826 H         1 <0>         0.0670
     30 C24        -2.1008    1.2495   10.0045 C.3       1 <0>         0.0786
     31 H6         -1.5881    0.4963   10.6028 H         1 <0>         0.0611
     32 C25        -1.0682    2.1690    9.3487 C.3       1 <0>        -0.1021
     33 O2         -2.9599    2.0218   10.8455 O.3       1 <0>        -0.5544
     34 O3         -3.8995   -0.2946    9.5363 O.3       1 <0>        -0.5624
     35 C26        -3.3586    3.5934    6.6127 C.3       1 <0>        -0.1560
     36 C27        -1.1826    3.0551    3.5539 C.3       1 <0>        -0.1467
     37 O4          0.8077    0.4487    5.4355 O.3       1 <0>        -0.5361
     38 O5         -0.2280    3.3469    1.4902 O.3       1 <0>        -0.5433
     39 O6          2.1487    2.1450    0.5491 O.3       1 <0>        -0.5490
     40 H7          0.5398    4.3075   -4.4201 H         1 <0>         0.0521
     41 H8          0.2979    4.2626   -2.6572 H         1 <0>         0.0560
     42 H9          1.9414    4.1592   -3.3329 H         1 <0>         0.0534
     43 H10        -0.2636    2.0786   -3.6885 H         1 <0>         0.0667
     44 H11         1.5377    0.7352   -4.7369 H         1 <0>         0.0533
     45 H12         1.2639    2.2476   -5.6346 H         1 <0>         0.0536
     46 H13         2.6654    2.0993   -4.5474 H         1 <0>         0.0540
     47 H14         2.2963    2.1085   -2.0288 H         1 <0>         0.0672
     48 H15         1.2816    0.6705   -2.2951 H         1 <0>         0.0586
     49 H16        -0.6495    1.8442   -1.2743 H         1 <0>         0.0737
     50 H17         0.3652    3.2821   -1.0080 H         1 <0>         0.0738
     51 H18        -1.4073    0.2584    0.9192 H         1 <0>         0.0693
     52 H19        -2.1931    1.5772    1.8200 H         1 <0>         0.0777
     53 H20        -1.8491    1.7669    0.0839 H         1 <0>         0.0671
     54 H21         2.5194    1.2013    3.0967 H         1 <0>         0.0703
     55 H22         2.0114    2.7474    2.3587 H         1 <0>         0.0761
     56 H23         1.2692    3.6302    4.4189 H         1 <0>         0.0809
     57 H24         2.4322    2.4460    5.0973 H         1 <0>         0.0702
     58 H25        -2.2673    0.4986    3.2583 H         1 <0>         0.0711
     59 H26        -1.2399   -0.2248    4.5265 H         1 <0>         0.0762
     60 H27        -3.3369    0.6679    5.5061 H         1 <0>         0.0686
     61 H28        -2.9872    2.2648    4.8175 H         1 <0>         0.0806
     62 H29         0.9641    3.9110    6.4492 H         1 <0>         0.1370
     63 H30        -4.3049    2.2093    8.7163 H         1 <0>         0.0838
     64 H31        -4.2429    1.1238    7.3062 H         1 <0>         0.0782
     65 H32        -0.4102    1.5799    8.7099 H         1 <0>         0.0837
     66 H33        -0.4789    2.6633   10.1210 H         1 <0>         0.0802
     67 H34        -3.6409    1.5027   11.2948 H         1 <0>         0.3822
     68 H35        -3.5153   -0.9903   10.0871 H         1 <0>         0.3791
     69 H36        -4.0715    3.1094    5.9452 H         1 <0>         0.0704
     70 H37        -3.8912    4.2584    7.2926 H         1 <0>         0.0619
     71 H38        -2.6447    4.1706    6.0250 H         1 <0>         0.0600
     72 H39        -1.8284    3.0067    2.6772 H         1 <0>         0.0816
     73 H40        -1.7698    3.3557    4.4216 H         1 <0>         0.0485
     74 H41        -0.3900    3.7833    3.3816 H         1 <0>         0.0650
     75 H42         1.3963    0.4428    6.2028 H         1 <0>         0.3757
     76 H43         0.6060    3.7873    1.7036 H         1 <0>         0.3653
     77 H44         2.1496    3.1063    0.6543 H         1 <0>         0.3679
@<TRIPOS>BOND
     1    1    2 1
     2    1   40 1
     3    1   41 1
     4    1   42 1
     5    2    3 1
     6    2    4 1
     7    2   43 1
     8    3   44 1
     9    3   45 1
    10    3   46 1
    11    4    5 1
    12    4   47 1
    13    4   48 1
    14    5    6 1
    15    5   49 1
    16    5   50 1
    17    6    7 1
    18    6    8 1
    19    6   39 1
    20    8    9 1
    21    8   10 1
    22    8   38 1
    23    9   51 1
    24    9   52 1
    25    9   53 1
    26   10   11 1
    27   10   15 1
    28   10   12 1
    29   12   13 1
    30   12   54 1
    31   12   55 1
    32   13   14 1
    33   13   56 1
    34   13   57 1
    35   14   20 1
    36   14   15 1
    37   14   37 1
    38   15   16 1
    39   15   36 1
    40   16   17 1
    41   16   58 1
    42   16   59 1
    43   17   18 1
    44   17   60 1
    45   17   61 1
    46   18   19 1
    47   18   26 1
    48   18   20 1
    49   20   21 2
    50   21   22 1
    51   21   62 1
    52   22   23 2
    53   22   24 1
    54   24   25 1
    55   24   32 1
    56   24   26 1
    57   26   27 1
    58   26   35 1
    59   27   28 1
    60   27   63 1
    61   27   64 1
    62   28   29 1
    63   28   30 1
    64   28   34 1
    65   30   31 1
    66   30   32 1
    67   30   33 1
    68   32   65 1
    69   32   66 1
    70   33   67 1
    71   34   68 1
    72   35   69 1
    73   35   70 1
    74   35   71 1
    75   36   72 1
    76   36   73 1
    77   36   74 1
    78   37   75 1
    79   38   76 1
    80   39   77 1
