@<TRIPOS>MOLECULE
ZINC03945732
   62    65     0     0     0
SMALL
USER_CHARGES
2-benzo[1,3]dioxol-5-yl-4-(4-methoxyphenyl)-4-oxo-3-[(3,4,5-trimethoxyphenyl)methyl]but-2-enoic acid
@<TRIPOS>ATOM
      1 C1          6.3268    1.0855   -2.8550 C.3       1 <0>         0.0262
      2 O1          6.2362    0.1186   -1.8066 O.3       1 <0>        -0.3166
      3 C2          5.0130   -0.0764   -1.2525 C.ar      1 <0>         0.1430
      4 C3          4.8559   -1.0031   -0.2276 C.ar      1 <0>        -0.1632
      5 C4          3.6168   -1.2040    0.3373 C.ar      1 <0>        -0.0223
      6 C5          2.5152   -0.4743   -0.1205 C.ar      1 <0>        -0.1728
      7 C6          2.6767    0.4532   -1.1547 C.ar      1 <0>        -0.0390
      8 C7          3.9202    0.6514   -1.7107 C.ar      1 <0>        -0.2209
      9 C8          1.1847   -0.6867    0.4818 C.2       1 <0>         0.4510
     10 O2          1.0591   -1.4397    1.4298 O.2       1 <0>        -0.4089
     11 C9          0.0144    0.0093   -0.0617 C.2       1 <0>        -0.1567
     12 C10        -0.9487   -0.6912   -0.7199 C.2       1 <0>        -0.0545
     13 C11        -2.0709    0.0209   -1.3608 C.ar      1 <0>         0.0057
     14 C12        -1.8320    0.8823   -2.4364 C.ar      1 <0>        -0.1077
     15 C13        -2.8811    1.5457   -3.0334 C.ar      1 <0>        -0.0971
     16 C14        -4.1780    1.3629   -2.5708 C.ar      1 <0>         0.0169
     17 C15        -4.4235    0.5044   -1.4975 C.ar      1 <0>         0.0304
     18 C16        -3.3768   -0.1681   -0.8982 C.ar      1 <0>        -0.0689
     19 O3         -5.7644    0.5011   -1.2407 O.3       1 <0>        -0.3094
     20 C17        -6.3827    1.0441   -2.4222 C.3       1 <0>         0.2133
     21 O4         -5.3649    1.8944   -2.9822 O.3       1 <0>        -0.3123
     22 C18        -0.8706   -2.1687   -0.7930 C.2       1 <0>         0.4814
     23 O5          0.0068   -2.7604   -0.1981 O.co2     1 <0>        -0.5993
     24 C19        -0.1219    1.5004    0.1085 C.3       1 <0>        -0.0452
     25 C20        -0.7272    1.7989    1.4560 C.ar      1 <0>         0.0067
     26 C21        -2.1014    1.8230    1.6042 C.ar      1 <0>        -0.2216
     27 C22        -2.6623    2.0917    2.8436 C.ar      1 <0>         0.1527
     28 C23        -1.8410    2.3476    3.9351 C.ar      1 <0>         0.0209
     29 C24        -0.4599    2.3279    3.7806 C.ar      1 <0>         0.1507
     30 C25         0.0931    2.0533    2.5390 C.ar      1 <0>        -0.2242
     31 O6          0.3480    2.5781    4.8456 O.3       1 <0>        -0.3043
     32 C26         1.7575    2.5417    4.6133 C.3       1 <0>         0.0246
     33 O7         -2.3876    2.6163    5.1522 O.3       1 <0>        -0.3112
     34 C27        -2.6619    3.9863    5.4520 C.3       1 <0>         0.0358
     35 O8         -4.0142    2.1093    2.9897 O.3       1 <0>        -0.3039
     36 C28        -4.7963    1.8373    1.8251 C.3       1 <0>         0.0277
     37 H1          7.3563    1.1428   -3.2084 H         1 <0>         0.0983
     38 H2          5.6759    0.7909   -3.6782 H         1 <0>         0.0571
     39 H3          6.0173    2.0602   -2.4780 H         1 <0>         0.0559
     40 H4          5.7072   -1.5663    0.1253 H         1 <0>         0.1337
     41 H5          3.4957   -1.9240    1.1332 H         1 <0>         0.1411
     42 H6          1.8278    1.0159   -1.5140 H         1 <0>         0.1324
     43 H7          4.0467    1.3704   -2.5066 H         1 <0>         0.1308
     44 H8         -0.8250    1.0277   -2.7985 H         1 <0>         0.1376
     45 H9         -2.6947    2.2105   -3.8639 H         1 <0>         0.1339
     46 H10        -3.5661   -0.8356   -0.0706 H         1 <0>         0.1341
     47 H11        -6.6420    0.2472   -3.1193 H         1 <0>         0.0807
     48 H12        -7.2658    1.6263   -2.1590 H         1 <0>         0.1268
     49 H13         0.8617    1.9652    0.0411 H         1 <0>         0.0857
     50 H14        -0.7663    1.8982   -0.6754 H         1 <0>         0.0949
     51 H15        -2.7389    1.6284    0.7545 H         1 <0>         0.1364
     52 H16         1.1662    2.0378    2.4181 H         1 <0>         0.1332
     53 H17         2.2846    2.7580    5.5426 H         1 <0>         0.0997
     54 H18         2.0415    1.5516    4.2565 H         1 <0>         0.0601
     55 H19         2.0216    3.2876    3.8637 H         1 <0>         0.0550
     56 H20        -3.3652    4.3845    4.7207 H         1 <0>         0.0419
     57 H21        -3.0944    4.0603    6.4498 H         1 <0>         0.0881
     58 H22        -1.7353    4.5590    5.4143 H         1 <0>         0.0414
     59 H23        -5.8552    1.8828    2.0796 H         1 <0>         0.1008
     60 H24        -4.5750    2.5789    1.0575 H         1 <0>         0.0537
     61 H25        -4.5552    0.8428    1.4496 H         1 <0>         0.0607
     62 O9         -1.7731   -2.8556   -1.5195 O.co2     1 <0>        -0.7407
@<TRIPOS>BOND
     1    1    2 1
     2    1   37 1
     3    1   38 1
     4    1   39 1
     5    2    3 1
     6    3    8 ar
     7    3    4 ar
     8    4    5 ar
     9    4   40 1
    10    5    6 ar
    11    5   41 1
    12    6    7 ar
    13    6    9 1
    14    7    8 ar
    15    7   42 1
    16    8   43 1
    17    9   10 2
    18    9   11 1
    19   11   12 2
    20   11   24 1
    21   12   13 1
    22   12   22 1
    23   13   18 ar
    24   13   14 ar
    25   14   15 ar
    26   14   44 1
    27   15   16 ar
    28   15   45 1
    29   16   21 1
    30   16   17 ar
    31   17   18 ar
    32   17   19 1
    33   18   46 1
    34   19   20 1
    35   20   21 1
    36   20   47 1
    37   20   48 1
    38   22   23 2
    39   22   62 1
    40   24   25 1
    41   24   49 1
    42   24   50 1
    43   25   30 ar
    44   25   26 ar
    45   26   27 ar
    46   26   51 1
    47   27   28 ar
    48   27   35 1
    49   28   29 ar
    50   28   33 1
    51   29   30 ar
    52   29   31 1
    53   30   52 1
    54   31   32 1
    55   32   53 1
    56   32   54 1
    57   32   55 1
    58   33   34 1
    59   34   56 1
    60   34   57 1
    61   34   58 1
    62   35   36 1
    63   36   59 1
    64   36   60 1
    65   36   61 1
@<TRIPOS>MOLECULE
ZINC01891205
   77    81     0     0     0
SMALL
USER_CHARGES
2-[2-[(3,5-dimethylbenzoyl)-methyl-amino]-3-(4-phenylphenyl)-propanoyl]amino-3-(1H-indol-3-yl)propanoic acid
@<TRIPOS>ATOM
      1 C1          2.7331   -5.9532    4.1900 C.3       1 <0>        -0.1120
      2 C2          3.1519   -4.5719    4.6231 C.ar      1 <0>        -0.0954
      3 C3          2.7435   -4.0797    5.8500 C.ar      1 <0>        -0.1006
      4 C4          3.1235   -2.8125    6.2552 C.ar      1 <0>        -0.0941
      5 C5          3.9134   -2.0314    5.4372 C.ar      1 <0>        -0.0655
      6 C6          4.3289   -2.5219    4.1982 C.ar      1 <0>        -0.1155
      7 C7          3.9372   -3.7988    3.7931 C.ar      1 <0>        -0.1365
      8 C8          5.1751   -1.6900    3.3163 C.2       1 <0>         0.5647
      9 O1          5.2639   -0.4935    3.5112 O.2       1 <0>        -0.5297
     10 N1          5.8480   -2.2584    2.2962 N.am      1 <0>        -0.5809
     11 C9          5.6023   -3.6599    1.9472 C.3       1 <0>         0.0723
     12 C10         6.8251   -1.4748    1.5363 C.3       1 <0>         0.1337
     13 H1          6.8064   -0.4402    1.8787 H         1 <0>         0.1211
     14 C11         6.4735   -1.5260    0.0482 C.3       1 <0>        -0.0863
     15 C12         5.1502   -0.8417   -0.1792 C.ar      1 <0>        -0.0623
     16 C13         5.1134    0.5136   -0.4532 C.ar      1 <0>        -0.1050
     17 C14         3.9043    1.1453   -0.6627 C.ar      1 <0>        -0.1037
     18 C15         2.7193    0.4154   -0.5972 C.ar      1 <0>        -0.0554
     19 C16         2.7618   -0.9485   -0.3152 C.ar      1 <0>        -0.1065
     20 C17         3.9769   -1.5713   -0.1135 C.ar      1 <0>        -0.1085
     21 C18         1.4163    1.0892   -0.8211 C.ar      1 <0>        -0.0359
     22 C19         0.2312    0.3592   -0.7556 C.ar      1 <0>        -0.1136
     23 C20        -0.9776    0.9900   -0.9693 C.ar      1 <0>        -0.1180
     24 C21        -1.0148    2.3465   -1.2377 C.ar      1 <0>        -0.1249
     25 C22         0.1586    3.0760   -1.3039 C.ar      1 <0>        -0.1175
     26 C23         1.3733    2.4543   -1.0970 C.ar      1 <0>        -0.1129
     27 C24         8.2025   -2.0488    1.7471 C.2       1 <0>         0.5102
     28 O2          8.3306   -3.1889    2.1406 O.2       1 <0>        -0.5385
     29 N2          9.2919   -1.2953    1.4983 N.am      1 <0>        -0.6873
     30 C25        10.6309   -1.8533    1.7032 C.3       1 <0>         0.1125
     31 H2         10.6268   -2.9121    1.4441 H         1 <0>         0.0875
     32 C26        11.6329   -1.1145    0.8138 C.3       1 <0>        -0.0404
     33 C27        11.3086   -1.3775   -0.6342 C.2       1 <0>        -0.1506
     34 C28        11.8537   -2.3232   -1.4154 C.2       1 <0>         0.0465
     35 N3         11.3121   -2.2609   -2.6705 N.pl3     1 <0>        -0.5977
     36 H3         11.5485   -2.8437   -3.4090 H         1 <0>         0.4123
     37 C29        10.3815   -1.2478   -2.7289 C.ar      1 <0>         0.0953
     38 C30        10.3342   -0.6537   -1.4543 C.ar      1 <0>        -0.0932
     39 C31         9.4721    0.4182   -1.2171 C.ar      1 <0>        -0.0720
     40 C32         8.6696    0.8789   -2.2229 C.ar      1 <0>        -0.1482
     41 C33         8.7083    0.2925   -3.4803 C.ar      1 <0>        -0.1012
     42 C34         9.5557   -0.7631   -3.7377 C.ar      1 <0>        -0.1321
     43 C35        11.0269   -1.6913    3.1482 C.2       1 <0>         0.4572
     44 O3         10.2685   -1.1639    3.9269 O.co2     1 <0>        -0.6247
     45 C36         2.6740   -2.2846    7.5932 C.3       1 <0>        -0.1127
     46 H4          1.7896   -5.8935    3.6475 H         1 <0>         0.0690
     47 H5          3.4989   -6.3783    3.5412 H         1 <0>         0.0678
     48 H6          2.6080   -6.5869    5.0680 H         1 <0>         0.0656
     49 H7          2.1256   -4.6874    6.4944 H         1 <0>         0.1217
     50 H8          4.2100   -1.0427    5.7549 H         1 <0>         0.1323
     51 H9          4.2516   -4.1824    2.8337 H         1 <0>         0.1698
     52 H10         6.3250   -3.9794    1.1964 H         1 <0>         0.0846
     53 H11         5.7057   -4.2796    2.8379 H         1 <0>         0.0824
     54 H12         4.5934   -3.7634    1.5477 H         1 <0>         0.0621
     55 H13         6.4051   -2.5652   -0.2735 H         1 <0>         0.0815
     56 H14         7.2485   -1.0182   -0.5259 H         1 <0>         0.0954
     57 H15         6.0326    1.0785   -0.5037 H         1 <0>         0.1257
     58 H16         3.8767    2.2036   -0.8766 H         1 <0>         0.1232
     59 H17         1.8460   -1.5181   -0.2589 H         1 <0>         0.1209
     60 H18         4.0114   -2.6293    0.1005 H         1 <0>         0.1200
     61 H19         0.2589   -0.6992   -0.5425 H         1 <0>         0.1239
     62 H20        -1.8964    0.4244   -0.9229 H         1 <0>         0.1219
     63 H21        -1.9631    2.8369   -1.4006 H         1 <0>         0.1202
     64 H22         0.1241    4.1340   -1.5182 H         1 <0>         0.1225
     65 H23         2.2889    3.0247   -1.1492 H         1 <0>         0.1254
     66 H24         9.1894   -0.3835    1.1836 H         1 <0>         0.3888
     67 H25        11.5733   -0.0441    1.0109 H         1 <0>         0.0689
     68 H26        12.6408   -1.4682    1.0305 H         1 <0>         0.0954
     69 H27        12.6083   -3.0286   -1.1002 H         1 <0>         0.1704
     70 H28         9.4363    0.8792   -0.2411 H         1 <0>         0.1174
     71 H29         7.9997    1.7055   -2.0377 H         1 <0>         0.1194
     72 H30         8.0676    0.6673   -4.2648 H         1 <0>         0.1198
     73 H31         9.5783   -1.2128   -4.7193 H         1 <0>         0.1140
     74 H32         1.7232   -1.7643    7.4777 H         1 <0>         0.0697
     75 H33         2.5517   -3.1148    8.2889 H         1 <0>         0.0660
     76 H34         3.4220   -1.5930    7.9808 H         1 <0>         0.0687
     77 O4         12.2221   -2.1330    3.5700 O.co2     1 <0>        -0.7677
@<TRIPOS>BOND
     1    1    2 1
     2    1   46 1
     3    1   47 1
     4    1   48 1
     5    2    7 ar
     6    2    3 ar
     7    3    4 ar
     8    3   49 1
     9    4    5 ar
    10    4   45 1
    11    5    6 ar
    12    5   50 1
    13    6    7 ar
    14    6    8 1
    15    7   51 1
    16    8    9 2
    17    8   10 am
    18   10   11 1
    19   10   12 1
    20   11   52 1
    21   11   53 1
    22   11   54 1
    23   12   13 1
    24   12   14 1
    25   12   27 1
    26   14   15 1
    27   14   55 1
    28   14   56 1
    29   15   20 ar
    30   15   16 ar
    31   16   17 ar
    32   16   57 1
    33   17   18 ar
    34   17   58 1
    35   18   19 ar
    36   18   21 1
    37   19   20 ar
    38   19   59 1
    39   20   60 1
    40   21   26 ar
    41   21   22 ar
    42   22   23 ar
    43   22   61 1
    44   23   24 ar
    45   23   62 1
    46   24   25 ar
    47   24   63 1
    48   25   26 ar
    49   25   64 1
    50   26   65 1
    51   27   28 2
    52   27   29 am
    53   29   30 1
    54   29   66 1
    55   30   31 1
    56   30   32 1
    57   30   43 1
    58   32   33 1
    59   32   67 1
    60   32   68 1
    61   33   38 1
    62   33   34 2
    63   34   35 1
    64   34   69 1
    65   35   36 1
    66   35   37 1
    67   37   42 ar
    68   37   38 ar
    69   38   39 ar
    70   39   40 ar
    71   39   70 1
    72   40   41 ar
    73   40   71 1
    74   41   42 ar
    75   41   72 1
    76   42   73 1
    77   43   44 2
    78   43   77 1
    79   45   74 1
    80   45   75 1
    81   45   76 1
@<TRIPOS>MOLECULE
ZINC34026476
   75    78     0     0     0
SMALL
USER_CHARGES
(2R,3S,4S)-4-(1,3-benzodioxol-5-yl)-1-[2-(dibutylamino)-2-oxo-ethyl]-2-(4-methoxyphenyl)pyrrolidine-3-carboxylic acid
@<TRIPOS>ATOM
      1 C1          2.0123   10.2502   -1.7050 C.3       1 <0>        -0.1552
      2 C2          1.2019    9.1925   -2.4569 C.3       1 <0>        -0.1227
      3 C3          2.0066    7.8935   -2.5347 C.3       1 <0>        -0.1358
      4 C4          1.1961    6.8358   -3.2867 C.3       1 <0>         0.1097
      5 N1          1.9666    5.5920   -3.3611 N.am      1 <0>        -0.5897
      6 C5          2.8660    5.3542   -4.4928 C.3       1 <0>         0.0915
      7 C6          2.1005    4.6467   -5.6128 C.3       1 <0>        -0.1408
      8 C7          3.0399    4.3983   -6.7946 C.3       1 <0>        -0.1247
      9 C8          2.2744    3.6908   -7.9146 C.3       1 <0>        -0.1566
     10 C9          1.8479    4.6665   -2.3886 C.2       1 <0>         0.5034
     11 O1          1.1033    4.8635   -1.4517 O.2       1 <0>        -0.5181
     12 C10         2.6404    3.3871   -2.4652 C.3       1 <0>        -0.0455
     13 N2          2.3366    2.5521   -1.2954 N.4       1 <0>        -0.3922
     14 C11         0.8742    2.3223   -1.1706 C.3       1 <0>         0.0063
     15 C12         0.7525    1.0568   -0.2949 C.3       1 <0>        -0.0345
     16 H1         -0.1181    0.4390   -0.5603 H         1 <0>         0.1220
     17 C13         2.0906    0.3117   -0.4792 C.3       1 <0>        -0.1539
     18 H2          1.9567   -0.7169   -0.8453 H         1 <0>         0.1246
     19 C14         2.9082    1.1897   -1.4508 C.3       1 <0>         0.1096
     20 H3          2.8614    0.8582   -2.4986 H         1 <0>         0.1418
     21 C15         4.3650    1.1838   -1.0654 C.ar      1 <0>        -0.1106
     22 C16         5.0225    2.3779   -0.8338 C.ar      1 <0>        -0.0879
     23 C17         6.3565    2.3749   -0.4748 C.ar      1 <0>        -0.1890
     24 C18         7.0395    1.1730   -0.3583 C.ar      1 <0>         0.1366
     25 C19         6.3790   -0.0235   -0.5967 C.ar      1 <0>        -0.1270
     26 C20         5.0434   -0.0154   -0.9494 C.ar      1 <0>        -0.0427
     27 O2          8.3536    1.1677   -0.0115 O.3       1 <0>        -0.3148
     28 C21         8.9688    2.4367    0.2188 C.3       1 <0>         0.0236
     29 C22         2.8061    0.1862    0.8411 C.2       1 <0>         0.4751
     30 O3          3.4934    1.0944    1.2445 O.co2     1 <0>        -0.6132
     31 O4          2.6798   -0.9344    1.5691 O.co2     1 <0>        -0.7277
     32 C23         0.5588    1.4348    1.1510 C.ar      1 <0>        -0.0987
     33 C24         1.4455    2.3019    1.7620 C.ar      1 <0>        -0.0498
     34 C25         1.2718    2.6520    3.0879 C.ar      1 <0>        -0.0993
     35 C26         0.2077    2.1339    3.8082 C.ar      1 <0>         0.0427
     36 C27        -0.6855    1.2604    3.1927 C.ar      1 <0>         0.0238
     37 C28        -0.5084    0.9184    1.8618 C.ar      1 <0>        -0.0740
     38 O5         -1.6350    0.8945    4.1026 O.3       1 <0>        -0.3109
     39 C29        -1.5498    1.8684    5.1597 C.3       1 <0>         0.2094
     40 O6         -0.1822    2.3152    5.1037 O.3       1 <0>        -0.3054
     41 H4          1.4337   11.1841   -1.6491 H         1 <0>         0.0580
     42 H5          2.9569   10.4353   -2.2375 H         1 <0>         0.0543
     43 H6          2.2289    9.8916   -0.6879 H         1 <0>         0.0554
     44 H7          0.2573    9.0074   -1.9244 H         1 <0>         0.0660
     45 H8          0.9853    9.5511   -3.4740 H         1 <0>         0.0641
     46 H9          2.9512    8.0787   -3.0671 H         1 <0>         0.0655
     47 H10         2.2232    7.5349   -1.5176 H         1 <0>         0.0688
     48 H11         0.2515    6.6507   -2.7543 H         1 <0>         0.0927
     49 H12         0.9795    7.1944   -4.3038 H         1 <0>         0.0869
     50 H13         3.2517    6.3156   -4.8629 H         1 <0>         0.0962
     51 H14         3.7060    4.7230   -4.1673 H         1 <0>         0.0835
     52 H15         1.7147    3.6854   -5.2427 H         1 <0>         0.0636
     53 H16         1.2606    5.2780   -5.9384 H         1 <0>         0.0745
     54 H17         3.4257    5.3597   -7.1647 H         1 <0>         0.0679
     55 H18         3.8798    3.7670   -6.4690 H         1 <0>         0.0663
     56 H19         2.9498    3.5122   -8.7643 H         1 <0>         0.0595
     57 H20         1.4345    4.3221   -8.2402 H         1 <0>         0.0560
     58 H21         1.8886    2.7295   -7.5445 H         1 <0>         0.0550
     59 H22         2.3718    2.8438   -3.3832 H         1 <0>         0.1541
     60 H23         3.7150    3.6217   -2.4791 H         1 <0>         0.1571
     61 H24         0.4050    3.1961   -0.6948 H         1 <0>         0.1566
     62 H25         0.4400    2.1719   -2.1700 H         1 <0>         0.1246
     63 H26         4.4916    3.3135   -0.9297 H         1 <0>         0.1009
     64 H27         6.8684    3.3076   -0.2894 H         1 <0>         0.1287
     65 H28         6.9087   -0.9604   -0.5069 H         1 <0>         0.1347
     66 H29         4.5288   -0.9466   -1.1351 H         1 <0>         0.1324
     67 H30        10.0246    2.2886    0.4897 H         1 <0>         0.1029
     68 H31         8.4486    2.9528    1.0392 H         1 <0>         0.0580
     69 H32         8.9067    3.0455   -0.6952 H         1 <0>         0.0547
     70 H33         2.2760    2.7062    1.2023 H         1 <0>         0.1308
     71 H34         1.9660    3.3296    3.5627 H         1 <0>         0.1319
     72 H35        -1.2021    0.2448    1.3807 H         1 <0>         0.1324
     73 H36        -2.2626    2.6834    4.9657 H         1 <0>         0.0827
     74 H37        -1.7927    1.3897    6.1198 H         1 <0>         0.1314
     75 H38         2.7570    3.0944   -0.4357 H         1 <0>         0.4524
@<TRIPOS>BOND
     1    1    2 1
     2    1   41 1
     3    1   42 1
     4    1   43 1
     5    2    3 1
     6    2   44 1
     7    2   45 1
     8    3    4 1
     9    3   46 1
    10    3   47 1
    11    4    5 1
    12    4   48 1
    13    4   49 1
    14    5    6 1
    15    5   10 am
    16    6    7 1
    17    6   50 1
    18    6   51 1
    19    7    8 1
    20    7   52 1
    21    7   53 1
    22    8    9 1
    23    8   54 1
    24    8   55 1
    25    9   56 1
    26    9   57 1
    27    9   58 1
    28   10   11 2
    29   10   12 1
    30   12   13 1
    31   12   59 1
    32   12   60 1
    33   13   19 1
    34   13   14 1
    35   13   75 1
    36   14   15 1
    37   14   61 1
    38   14   62 1
    39   15   16 1
    40   15   17 1
    41   15   32 1
    42   17   18 1
    43   17   19 1
    44   17   29 1
    45   19   20 1
    46   19   21 1
    47   21   26 ar
    48   21   22 ar
    49   22   23 ar
    50   22   63 1
    51   23   24 ar
    52   23   64 1
    53   24   25 ar
    54   24   27 1
    55   25   26 ar
    56   25   65 1
    57   26   66 1
    58   27   28 1
    59   28   67 1
    60   28   68 1
    61   28   69 1
    62   29   30 2
    63   29   31 1
    64   32   37 ar
    65   32   33 ar
    66   33   34 ar
    67   33   70 1
    68   34   35 ar
    69   34   71 1
    70   35   40 1
    71   35   36 ar
    72   36   37 ar
    73   36   38 1
    74   37   72 1
    75   38   39 1
    76   39   40 1
    77   39   73 1
    78   39   74 1
@<TRIPOS>MOLECULE
ZINC34026477
   75    78     0     0     0
SMALL
USER_CHARGES
(2R,3S,4R)-4-(1,3-benzodioxol-5-yl)-1-[2-(dibutylamino)-2-oxo-ethyl]-2-(4-methoxyphenyl)pyrrolidine-3-carboxylic acid
@<TRIPOS>ATOM
      1 C1          8.8444   -1.3691    6.8363 C.3       1 <0>        -0.1551
      2 C2          7.7797   -0.2728    6.7623 C.3       1 <0>        -0.1228
      3 C3          7.7285    0.2932    5.3417 C.3       1 <0>        -0.1355
      4 C4          6.6638    1.3895    5.2676 C.3       1 <0>         0.1095
      5 N1          6.6147    1.9314    3.9074 N.am      1 <0>        -0.5896
      6 C5          7.4614    3.0696    3.5414 C.3       1 <0>         0.0915
      7 C6          6.7085    4.3735    3.8134 C.3       1 <0>        -0.1411
      8 C7          7.5928    5.5622    3.4311 C.3       1 <0>        -0.1246
      9 C8          6.8399    6.8661    3.7031 C.3       1 <0>        -0.1568
     10 C9          5.7907    1.3829    2.9928 C.2       1 <0>         0.5045
     11 O1          5.0898    0.4406    3.2958 O.2       1 <0>        -0.5238
     12 C10         5.7402    1.9403    1.5936 C.3       1 <0>        -0.0360
     13 N2          4.7727    1.1748    0.7961 N.4       1 <0>        -0.3968
     14 C11         3.3825    1.4416    1.2460 C.3       1 <0>         0.0119
     15 C12         2.5272    1.0141    0.0269 C.3       1 <0>        -0.0459
     16 H1          2.2689   -0.0550    0.0115 H         1 <0>         0.1328
     17 C13         3.3861    1.4702   -1.1749 C.3       1 <0>        -0.1442
     18 H2          3.0326    2.4125   -1.6188 H         1 <0>         0.1194
     19 C14         4.8208    1.5784   -0.6259 C.3       1 <0>         0.1137
     20 H3          5.2256    2.5983   -0.7027 H         1 <0>         0.1367
     21 C15         5.7341    0.6555   -1.3909 C.ar      1 <0>        -0.1627
     22 C16         5.8045   -0.6830   -1.0516 C.ar      1 <0>        -0.0519
     23 C17         6.6367   -1.5322   -1.7550 C.ar      1 <0>        -0.1954
     24 C18         7.4111   -1.0385   -2.7949 C.ar      1 <0>         0.1497
     25 C19         7.3429    0.3061   -3.1296 C.ar      1 <0>        -0.1436
     26 C20         6.5045    1.1499   -2.4271 C.ar      1 <0>        -0.0246
     27 O2          8.2354   -1.8706   -3.4841 O.3       1 <0>        -0.3136
     28 C21         8.2543   -3.2425   -3.0845 C.3       1 <0>         0.0216
     29 C22         3.3246    0.4473   -2.2799 C.2       1 <0>         0.4754
     30 O3          3.0784   -0.7070   -2.0215 O.co2     1 <0>        -0.6201
     31 O4          3.5434    0.8186   -3.5511 O.co2     1 <0>        -0.7341
     32 C23         1.1981    1.7244    0.0325 C.ar      1 <0>        -0.0694
     33 C24         1.1544    3.1061    0.0123 C.ar      1 <0>        -0.1080
     34 C25        -0.0624    3.7622    0.0179 C.ar      1 <0>        -0.0963
     35 C26        -1.2418    3.0357    0.0438 C.ar      1 <0>         0.0348
     36 C27        -1.1977    1.6438    0.0580 C.ar      1 <0>         0.0398
     37 C28         0.0254    0.9931    0.0585 C.ar      1 <0>        -0.0818
     38 O5         -2.4765    1.1672    0.0873 O.3       1 <0>        -0.3076
     39 C29        -3.2943    2.2804    0.4938 C.3       1 <0>         0.2087
     40 O6         -2.5482    3.4311    0.0549 O.3       1 <0>        -0.3035
     41 H4          8.8813   -1.7761    7.8576 H         1 <0>         0.0581
     42 H5          9.8254   -0.9458    6.5746 H         1 <0>         0.0546
     43 H6          8.5920   -2.1736    6.1299 H         1 <0>         0.0552
     44 H7          6.7987   -0.6961    7.0240 H         1 <0>         0.0658
     45 H8          8.0321    0.5317    7.4687 H         1 <0>         0.0644
     46 H9          8.7095    0.7165    5.0801 H         1 <0>         0.0659
     47 H10         7.4762   -0.5114    4.6353 H         1 <0>         0.0683
     48 H11         5.6828    0.9662    5.5293 H         1 <0>         0.0921
     49 H12         6.9162    2.1941    5.9740 H         1 <0>         0.0871
     50 H13         8.3843    3.0474    4.1396 H         1 <0>         0.0963
     51 H14         7.7155    3.0089    2.4729 H         1 <0>         0.0845
     52 H15         5.7856    4.3956    3.2152 H         1 <0>         0.0636
     53 H16         6.4544    4.4342    4.8819 H         1 <0>         0.0743
     54 H17         8.5157    5.5400    4.0293 H         1 <0>         0.0680
     55 H18         7.8469    5.5015    2.3626 H         1 <0>         0.0666
     56 H19         7.4756    7.7207    3.4283 H         1 <0>         0.0597
     57 H20         6.5858    6.9267    4.7716 H         1 <0>         0.0558
     58 H21         5.9170    6.8882    3.1049 H         1 <0>         0.0552
     59 H22         5.4318    2.9955    1.6302 H         1 <0>         0.1533
     60 H23         6.7362    1.8652    1.1328 H         1 <0>         0.1577
     61 H24         3.1660    0.8426    2.1429 H         1 <0>         0.1416
     62 H25         3.2726    2.5100    1.4834 H         1 <0>         0.1250
     63 H26         5.2053   -1.0658   -0.2387 H         1 <0>         0.1158
     64 H27         6.6883   -2.5785   -1.4923 H         1 <0>         0.1322
     65 H28         7.9450    0.6929   -3.9385 H         1 <0>         0.1363
     66 H29         6.4511    2.1967   -2.6873 H         1 <0>         0.1336
     67 H30         8.9582   -3.7998   -3.7201 H         1 <0>         0.1040
     68 H31         7.2463   -3.6695   -3.1918 H         1 <0>         0.0610
     69 H32         8.5730   -3.3141   -2.0341 H         1 <0>         0.0560
     70 H33         2.0727    3.6741   -0.0076 H         1 <0>         0.1349
     71 H34        -0.0936    4.8417    0.0023 H         1 <0>         0.1381
     72 H35         0.0626   -0.0862    0.0746 H         1 <0>         0.1409
     73 H36        -4.2776    2.2105    0.0058 H         1 <0>         0.1353
     74 H37        -3.4247    2.2601    1.5859 H         1 <0>         0.0867
     75 H38         5.0485    0.1177    0.9246 H         1 <0>         0.4470
@<TRIPOS>BOND
     1    1    2 1
     2    1   41 1
     3    1   42 1
     4    1   43 1
     5    2    3 1
     6    2   44 1
     7    2   45 1
     8    3    4 1
     9    3   46 1
    10    3   47 1
    11    4    5 1
    12    4   48 1
    13    4   49 1
    14    5    6 1
    15    5   10 am
    16    6    7 1
    17    6   50 1
    18    6   51 1
    19    7    8 1
    20    7   52 1
    21    7   53 1
    22    8    9 1
    23    8   54 1
    24    8   55 1
    25    9   56 1
    26    9   57 1
    27    9   58 1
    28   10   11 2
    29   10   12 1
    30   12   13 1
    31   12   59 1
    32   12   60 1
    33   13   19 1
    34   13   14 1
    35   13   75 1
    36   14   15 1
    37   14   61 1
    38   14   62 1
    39   15   16 1
    40   15   17 1
    41   15   32 1
    42   17   18 1
    43   17   19 1
    44   17   29 1
    45   19   20 1
    46   19   21 1
    47   21   26 ar
    48   21   22 ar
    49   22   23 ar
    50   22   63 1
    51   23   24 ar
    52   23   64 1
    53   24   25 ar
    54   24   27 1
    55   25   26 ar
    56   25   65 1
    57   26   66 1
    58   27   28 1
    59   28   67 1
    60   28   68 1
    61   28   69 1
    62   29   30 2
    63   29   31 1
    64   32   37 ar
    65   32   33 ar
    66   33   34 ar
    67   33   70 1
    68   34   35 ar
    69   34   71 1
    70   35   40 1
    71   35   36 ar
    72   36   37 ar
    73   36   38 1
    74   37   72 1
    75   38   39 1
    76   39   40 1
    77   39   73 1
    78   39   74 1
@<TRIPOS>MOLECULE
ZINC03812144
   75    78     0     0     0
SMALL
USER_CHARGES
4-benzo[1,3]dioxol-5-yl-1-(dibutylcarbamoylmethyl)-2-(4-methoxyphenyl)-pyrrolidine-3-carboxylic acid
@<TRIPOS>ATOM
      1 C1          0.9498    0.9127    6.1925 C.3       1 <0>        -0.1547
      2 C2          1.4487    1.9314    5.1658 C.3       1 <0>        -0.1218
      3 C3          2.9242    1.6664    4.8598 C.3       1 <0>        -0.1414
      4 C4          3.4231    2.6851    3.8331 C.3       1 <0>         0.0947
      5 N1          4.8359    2.4314    3.5401 N.am      1 <0>        -0.5904
      6 C5          5.8779    3.0876    4.3337 C.3       1 <0>         0.1109
      7 C6          6.2477    4.4231    3.6852 C.3       1 <0>        -0.1341
      8 C7          7.3360    5.1084    4.5141 C.3       1 <0>        -0.1225
      9 C8          7.7058    6.4440    3.8656 C.3       1 <0>        -0.1534
     10 C9          5.1770    1.5942    2.5404 C.2       1 <0>         0.5035
     11 O1          6.3466    1.3841    2.2979 O.2       1 <0>        -0.5231
     12 C10         4.1051    0.9192    1.7241 C.3       1 <0>        -0.0256
     13 C11         5.2114    0.8721   -0.4443 C.3       1 <0>        -0.0107
     14 C12         5.3321   -0.1707   -1.5838 C.3       1 <0>        -0.0381
     15 H1          6.2642   -0.7294   -1.4983 H         1 <0>         0.1169
     16 C13         4.1166   -1.0938   -1.3378 C.3       1 <0>        -0.1352
     17 H2          3.2821   -0.8008   -1.9749 H         1 <0>         0.1149
     18 C14         3.7530   -0.8934    0.1451 C.3       1 <0>         0.0779
     19 H3          3.8150   -1.8442    0.6744 H         1 <0>         0.1699
     20 C15         2.3593   -0.3318    0.2606 C.ar      1 <0>        -0.1581
     21 C16         1.3712   -1.0623    0.8944 C.ar      1 <0>        -0.0434
     22 C17         0.0927   -0.5499    1.0011 C.ar      1 <0>        -0.1410
     23 C18        -0.1993    0.6987    0.4718 C.ar      1 <0>         0.1506
     24 C19         0.7939    1.4297   -0.1637 C.ar      1 <0>        -0.2016
     25 C20         2.0708    0.9129   -0.2678 C.ar      1 <0>        -0.0893
     26 O2         -1.4576    1.2025    0.5706 O.3       1 <0>        -0.3100
     27 C21        -1.6858    2.4939    0.0029 C.3       1 <0>         0.0234
     28 C22         4.4905   -2.5308   -1.5951 C.2       1 <0>         0.4678
     29 O3          4.4730   -3.3310   -0.6900 O.co2     1 <0>        -0.6261
     30 C23         5.2306    0.4972   -2.9309 C.ar      1 <0>        -0.0557
     31 C24         4.1485    1.3079   -3.2190 C.ar      1 <0>        -0.1146
     32 C25         4.0532    1.9264   -4.4516 C.ar      1 <0>        -0.0972
     33 C26         5.0380    1.7268   -5.4055 C.ar      1 <0>         0.0362
     34 C27         6.1254    0.9058   -5.1172 C.ar      1 <0>         0.0412
     35 C28         6.2168    0.2932   -3.8779 C.ar      1 <0>        -0.0669
     36 O4          6.9464    0.8704   -6.2071 O.3       1 <0>        -0.3041
     37 C29         6.5617    1.9985   -7.0150 C.3       1 <0>         0.2126
     38 O5          5.1777    2.2057   -6.6761 O.3       1 <0>        -0.3079
     39 H4         -0.1014    1.1015    6.4105 H         1 <0>         0.0586
     40 H5          1.0622   -0.0939    5.7898 H         1 <0>         0.0559
     41 H6          1.5331    1.0047    7.1087 H         1 <0>         0.0553
     42 H7          1.3363    2.9380    5.5685 H         1 <0>         0.0660
     43 H8          0.8654    1.8394    4.2496 H         1 <0>         0.0650
     44 H9          3.0366    0.6598    4.4571 H         1 <0>         0.0651
     45 H10         3.5075    1.7584    5.7760 H         1 <0>         0.0742
     46 H11         3.3106    3.6917    4.2358 H         1 <0>         0.0946
     47 H12         2.8398    2.5931    2.9169 H         1 <0>         0.0810
     48 H13         5.5082    3.2641    5.3438 H         1 <0>         0.0868
     49 H14         6.7594    2.4478    4.3760 H         1 <0>         0.0918
     50 H15         6.6174    4.2465    2.6752 H         1 <0>         0.0673
     51 H16         5.3663    5.0629    3.6429 H         1 <0>         0.0650
     52 H17         6.9663    5.2850    5.5242 H         1 <0>         0.0644
     53 H18         8.2174    4.4687    4.5564 H         1 <0>         0.0659
     54 H19         8.0755    6.2674    2.8555 H         1 <0>         0.0545
     55 H20         6.8243    7.0837    3.8233 H         1 <0>         0.0539
     56 H21         8.4811    6.9322    4.4561 H         1 <0>         0.0578
     57 H22         3.4899    1.6751    1.2361 H         1 <0>         0.1524
     58 H23         3.4811    0.3091    2.3772 H         1 <0>         0.1571
     59 H24         6.1826    1.3151   -0.2238 H         1 <0>         0.1444
     60 H25         4.4879    1.6446   -0.7048 H         1 <0>         0.1266
     61 H26         1.5989   -2.0345    1.3060 H         1 <0>         0.1445
     62 H27        -0.6789   -1.1211    1.4960 H         1 <0>         0.1420
     63 H28         0.5690    2.4019   -0.5769 H         1 <0>         0.1373
     64 H29         2.8444    1.4817   -0.7621 H         1 <0>         0.1254
     65 H30        -1.0389    3.2241    0.4893 H         1 <0>         0.0579
     66 H31        -1.4644    2.4661   -1.0640 H         1 <0>         0.0601
     67 H32        -2.7281    2.7767    0.1504 H         1 <0>         0.1056
     68 H33         3.3777    1.4613   -2.4782 H         1 <0>         0.1291
     69 H34         3.2088    2.5625   -4.6725 H         1 <0>         0.1367
     70 H35         7.0591   -0.3436   -3.6514 H         1 <0>         0.1411
     71 H36         7.1550    2.8754   -6.7557 H         1 <0>         0.0853
     72 H37         6.6682    1.7650   -8.0743 H         1 <0>         0.1337
     73 N2          4.7351    0.0571    0.6793 N.4       1 <0>        -0.3729
     74 H38         5.5228   -0.4539    1.0947 H         1 <0>         0.4398
     75 O6          4.8430   -2.9218   -2.8299 O.co2     1 <0>        -0.7221
@<TRIPOS>BOND
     1    1    2 1
     2    1   39 1
     3    1   40 1
     4    1   41 1
     5    2    3 1
     6    2   42 1
     7    2   43 1
     8    3    4 1
     9    3   44 1
    10    3   45 1
    11    4    5 1
    12    4   46 1
    13    4   47 1
    14    5    6 1
    15    5   10 am
    16    6    7 1
    17    6   48 1
    18    6   49 1
    19    7    8 1
    20    7   50 1
    21    7   51 1
    22    8    9 1
    23    8   52 1
    24    8   53 1
    25    9   54 1
    26    9   55 1
    27    9   56 1
    28   10   11 2
    29   10   12 1
    30   12   57 1
    31   12   58 1
    32   12   73 1
    33   13   14 1
    34   13   59 1
    35   13   60 1
    36   13   73 1
    37   14   15 1
    38   14   16 1
    39   14   30 1
    40   16   17 1
    41   16   18 1
    42   16   28 1
    43   18   19 1
    44   18   20 1
    45   18   73 1
    46   20   25 ar
    47   20   21 ar
    48   21   22 ar
    49   21   61 1
    50   22   23 ar
    51   22   62 1
    52   23   24 ar
    53   23   26 1
    54   24   25 ar
    55   24   63 1
    56   25   64 1
    57   26   27 1
    58   27   65 1
    59   27   66 1
    60   27   67 1
    61   28   29 2
    62   28   75 1
    63   30   35 ar
    64   30   31 ar
    65   31   32 ar
    66   31   68 1
    67   32   33 ar
    68   32   69 1
    69   33   38 1
    70   33   34 ar
    71   34   35 ar
    72   34   36 1
    73   35   70 1
    74   36   37 1
    75   37   38 1
    76   37   71 1
    77   37   72 1
    78   73   74 1
