@<TRIPOS>MOLECULE
ZINC60291636
   85    88     0     0     0
SMALL
USER_CHARGES

@<TRIPOS>ATOM
      1 C1         -5.4025    1.3849   -3.9242 C.3       1 <0>        -0.1458
      2 C2         -5.2204   -0.0231   -3.3538 C.3       1 <0>        -0.0937
      3 C3         -6.2892   -0.2849   -2.2908 C.3       1 <0>        -0.1500
      4 C4         -5.3576   -1.0508   -4.4789 C.3       1 <0>        -0.1115
      5 C5         -5.0533   -2.4450   -3.9348 C.3       1 <0>         0.1291
      6 H1         -5.6984   -2.6505   -3.0756 H         1 <0>         0.1034
      7 C6         -5.2929   -3.4912   -4.9968 C.2       1 <0>         0.5124
      8 O1         -5.5322   -3.1620   -6.1381 O.2       1 <0>        -0.4913
      9 N1         -5.2381   -4.8034   -4.6427 N.am      1 <0>        -0.7150
     10 C7         -5.3319   -5.7933   -5.7393 C.3       1 <0>         0.1345
     11 H2         -5.6043   -5.3024   -6.6716 H         1 <0>         0.1151
     12 C8         -3.9719   -6.4354   -5.8765 C.2       1 <0>         0.5193
     13 O2         -3.4704   -6.9977   -4.9264 O.2       1 <0>        -0.5415
     14 N2         -3.3204   -6.3791   -7.0754 N.am      1 <0>        -0.6769
     15 C9         -1.9388   -6.9353   -7.0587 C.3       1 <0>         0.1669
     16 H3         -1.8718   -7.7574   -6.3527 H         1 <0>         0.1139
     17 C10        -1.0174   -5.8129   -6.6450 C.2       1 <0>         0.5118
     18 O3         -1.3656   -4.6731   -6.9004 O.2       1 <0>        -0.5050
     19 N3          0.1576   -6.0399   -6.0422 N.am      1 <0>        -0.6094
     20 C11         0.9208   -7.2957   -6.0527 C.3       1 <0>         0.0975
     21 C12         2.4044   -6.9253   -5.9381 C.3       1 <0>        -0.1325
     22 C13         2.4269   -5.4154   -5.6746 C.3       1 <0>        -0.1229
     23 C14         0.9753   -5.0816   -5.2837 C.3       1 <0>         0.1033
     24 H4          0.8822   -5.2680   -4.2168 H         1 <0>         0.1079
     25 C15         0.6480   -3.6731   -5.6412 C.2       1 <0>         0.5468
     26 O4          1.5306   -3.0220   -6.2170 O.2       1 <0>        -0.5431
     27 N4         -0.5095   -3.0232   -5.4052 N.am      1 <0>        -0.7071
     28 C16        -1.3020   -3.1105   -4.1741 C.3       1 <0>         0.1432
     29 H5         -0.9074   -2.4160   -3.4228 H         1 <0>         0.0848
     30 C17        -2.7172   -2.6823   -4.5120 C.2       1 <0>         0.5043
     31 O5         -2.9961   -2.4645   -5.6704 O.2       1 <0>        -0.4704
     32 N5         -3.6354   -2.5500   -3.5210 N.am      1 <0>        -0.7349
     33 C18        -1.3762   -4.5090   -3.5693 C.3       1 <0>        -0.1127
     34 C19        -0.2453   -4.6862   -2.5540 C.3       1 <0>        -0.1539
     35 C20        -2.7239   -4.6907   -2.8683 C.3       1 <0>        -0.1647
     36 C21        -1.5751   -7.4153   -8.4656 C.3       1 <0>        -0.1919
     37 C22        -2.4683   -8.5665   -8.8503 C.2       1 <0>         0.4966
     38 O6         -3.3171   -8.9661   -8.0716 O.co2     1 <0>        -0.6797
     39 O7         -2.3422   -9.0982   -9.9402 O.co2     1 <0>        -0.6992
     40 C23        -6.3722   -6.8601   -5.3900 C.3       1 <0>        -0.0453
     41 C24        -7.7369   -6.2254   -5.3146 C.2       1 <0>        -0.1502
     42 C25        -8.3459   -5.7704   -4.2083 C.2       1 <0>         0.0490
     43 N6         -9.5749   -5.2608   -4.5282 N.pl3     1 <0>        -0.5972
     44 H6        -10.1999   -4.8743   -3.8950 H         1 <0>         0.4120
     45 C26        -9.7922   -5.3785   -5.8827 C.ar      1 <0>         0.0970
     46 C27        -8.6478   -5.9821   -6.4358 C.ar      1 <0>        -0.0965
     47 C28        -8.5825   -6.2238   -7.8090 C.ar      1 <0>        -0.0625
     48 C29        -9.6308   -5.8690   -8.6109 C.ar      1 <0>        -0.1477
     49 C30       -10.7601   -5.2697   -8.0709 C.ar      1 <0>        -0.0980
     50 C31       -10.8494   -5.0304   -6.7168 C.ar      1 <0>        -0.1376
     51 H7         -5.3048    2.1171   -3.1227 H         1 <0>         0.0525
     52 H8         -4.6411    1.5714   -4.6815 H         1 <0>         0.0550
     53 H9         -6.3914    1.4693   -4.3748 H         1 <0>         0.0543
     54 H10        -4.2315   -0.1075   -2.9033 H         1 <0>         0.0693
     55 H11        -7.2781   -0.2005   -2.7414 H         1 <0>         0.0549
     56 H12        -6.1595   -1.2880   -1.8845 H         1 <0>         0.0528
     57 H13        -6.1914    0.4473   -1.4893 H         1 <0>         0.0537
     58 H14        -6.3747   -1.0276   -4.8702 H         1 <0>         0.0751
     59 H15        -4.6555   -0.8112   -5.2775 H         1 <0>         0.0866
     60 H16        -5.1449   -5.0771   -3.7136 H         1 <0>         0.4062
     61 H17        -3.7227   -6.0063   -7.8776 H         1 <0>         0.4107
     62 H18         0.6302   -7.9042   -5.2005 H         1 <0>         0.0733
     63 H19         0.7516   -7.8280   -6.9821 H         1 <0>         0.0840
     64 H20         2.8587   -7.4568   -5.1050 H         1 <0>         0.0796
     65 H21         2.9189   -7.1505   -6.8690 H         1 <0>         0.0795
     66 H22         3.0941   -5.1832   -4.8516 H         1 <0>         0.0809
     67 H23         2.7021   -4.8804   -6.5773 H         1 <0>         0.0896
     68 H24        -0.8476   -2.4233   -6.1368 H         1 <0>         0.4214
     69 H25        -3.3772   -2.5213   -2.5807 H         1 <0>         0.4121
     70 H26        -1.2746   -5.2526   -4.3597 H         1 <0>         0.0989
     71 H27        -0.4856   -4.1380   -1.6431 H         1 <0>         0.0614
     72 H28        -0.1288   -5.7446   -2.3210 H         1 <0>         0.0662
     73 H29         0.6841   -4.3024   -2.9747 H         1 <0>         0.0568
     74 H30        -3.5303   -4.5235   -3.5823 H         1 <0>         0.0867
     75 H31        -2.7937   -5.7037   -2.4719 H         1 <0>         0.0651
     76 H32        -2.8079   -3.9742   -2.0511 H         1 <0>         0.0491
     77 H33        -1.7098   -6.5983   -9.1744 H         1 <0>         0.0686
     78 H34        -0.5351   -7.7416   -8.4807 H         1 <0>         0.0721
     79 H35        -6.3727   -7.6326   -6.1589 H         1 <0>         0.0936
     80 H36        -6.1254   -7.3066   -4.4267 H         1 <0>         0.0828
     81 H37        -7.9279   -5.8021   -3.2129 H         1 <0>         0.1641
     82 H38        -7.7066   -6.6891   -8.2363 H         1 <0>         0.1250
     83 H39        -9.5798   -6.0562   -9.6733 H         1 <0>         0.1217
     84 H40       -11.5801   -4.9944   -8.7176 H         1 <0>         0.1214
     85 H41       -11.7319   -4.5624   -6.3064 H         1 <0>         0.1148
@<TRIPOS>BOND
     1    1    2 1
     2    1   51 1
     3    1   52 1
     4    1   53 1
     5    2    3 1
     6    2    4 1
     7    2   54 1
     8    3   55 1
     9    3   56 1
    10    3   57 1
    11    4    5 1
    12    4   58 1
    13    4   59 1
    14    5    6 1
    15    5   32 1
    16    5    7 1
    17    7    8 2
    18    7    9 am
    19    9   10 1
    20    9   60 1
    21   10   11 1
    22   10   12 1
    23   10   40 1
    24   12   13 2
    25   12   14 am
    26   14   15 1
    27   14   61 1
    28   15   16 1
    29   15   17 1
    30   15   36 1
    31   17   18 2
    32   17   19 am
    33   19   23 1
    34   19   20 1
    35   20   21 1
    36   20   62 1
    37   20   63 1
    38   21   22 1
    39   21   64 1
    40   21   65 1
    41   22   23 1
    42   22   66 1
    43   22   67 1
    44   23   24 1
    45   23   25 1
    46   25   26 2
    47   25   27 am
    48   27   28 1
    49   27   68 1
    50   28   29 1
    51   28   30 1
    52   28   33 1
    53   30   31 2
    54   30   32 am
    55   32   69 1
    56   33   34 1
    57   33   35 1
    58   33   70 1
    59   34   71 1
    60   34   72 1
    61   34   73 1
    62   35   74 1
    63   35   75 1
    64   35   76 1
    65   36   37 1
    66   36   77 1
    67   36   78 1
    68   37   38 2
    69   37   39 1
    70   40   41 1
    71   40   79 1
    72   40   80 1
    73   41   46 1
    74   41   42 2
    75   42   43 1
    76   42   81 1
    77   43   44 1
    78   43   45 1
    79   45   50 ar
    80   45   46 ar
    81   46   47 ar
    82   47   48 ar
    83   47   82 1
    84   48   49 ar
    85   48   83 1
    86   49   50 ar
    87   49   84 1
    88   50   85 1
