@<TRIPOS>MOLECULE
ZINC03815700
   43    46     0     0     0
SMALL
USER_CHARGES

@<TRIPOS>ATOM
      1 C1         -0.4417    2.5108    0.1274 C.3       1 <0>        -0.4980
      2 S1         -0.2285    0.7138    0.0013 S.o       1 <0>         1.3317
      3 O1          0.3381    0.2184    1.2066 O.2       1 <0>        -0.8500
      4 C2         -1.8753    0.0872    0.0153 C.ar      1 <0>        -0.4539
      5 C3         -2.4807   -0.2316    1.2179 C.ar      1 <0>        -0.0505
      6 C4         -3.7698   -0.7226    1.2359 C.ar      1 <0>        -0.0905
      7 C5         -4.4635   -0.8973    0.0374 C.ar      1 <0>         0.0183
      8 C6         -3.8471   -0.5733   -1.1722 C.ar      1 <0>        -0.1282
      9 C7         -2.5593   -0.0786   -1.1759 C.ar      1 <0>        -0.0372
     10 C8         -5.8450   -1.4235    0.0492 C.2       1 <0>         0.2539
     11 N1         -6.6187   -1.6414   -1.0552 N.pl3     1 <0>        -0.5494
     12 H1         -6.3641   -1.4808   -1.9773 H         1 <0>         0.4258
     13 C9         -7.8254   -2.1307   -0.6157 C.2       1 <0>         0.0559
     14 C10        -7.7421   -2.1946    0.7659 C.2       1 <0>         0.0600
     15 N2         -6.5217   -1.7612    1.1224 N.2       1 <0>        -0.4460
     16 C11        -8.8052   -2.6624    1.6841 C.ar      1 <0>         0.0397
     17 C12        -9.5683   -3.7960    1.3824 C.ar      1 <0>        -0.1547
     18 C13       -10.5481   -4.1969    2.2660 C.ar      1 <0>         0.1020
     19 N3        -10.7699   -3.5273    3.3814 N.ar      1 <0>        -0.4829
     20 C14       -10.0734   -2.4536    3.7038 C.ar      1 <0>         0.1009
     21 C15        -9.0708   -1.9865    2.8804 C.ar      1 <0>        -0.1469
     22 C16        -8.9814   -2.5126   -1.4503 C.ar      1 <0>        -0.0400
     23 C17       -10.2631   -2.0665   -1.1192 C.ar      1 <0>        -0.0563
     24 C18       -11.3392   -2.4265   -1.9026 C.ar      1 <0>        -0.1471
     25 C19       -11.1511   -3.2299   -3.0163 C.ar      1 <0>         0.1129
     26 C20        -9.8817   -3.6756   -3.3498 C.ar      1 <0>        -0.1491
     27 C21        -8.7972   -3.3169   -2.5775 C.ar      1 <0>        -0.0765
     28 F1        -12.2093   -3.5802   -3.7797 F         1 <0>        -0.1335
     29 H2          0.5355    2.9936    0.1264 H         1 <0>         0.1086
     30 H3         -1.0243    2.8681   -0.7218 H         1 <0>         0.1118
     31 H4         -0.9645    2.7506    1.0533 H         1 <0>         0.0820
     32 H5         -1.9427   -0.0960    2.1446 H         1 <0>         0.1340
     33 H6         -4.2409   -0.9717    2.1752 H         1 <0>         0.1409
     34 H7         -4.3783   -0.7065   -2.1030 H         1 <0>         0.1252
     35 H8         -2.0825    0.1760   -2.1109 H         1 <0>         0.1447
     36 H9         -9.3927   -4.3483    0.4711 H         1 <0>         0.1333
     37 H10       -11.1422   -5.0705    2.0420 H         1 <0>         0.1579
     38 H11       -10.2890   -1.9361    4.6268 H         1 <0>         0.1588
     39 H12        -8.5017   -1.1100    3.1527 H         1 <0>         0.1379
     40 H13       -10.4110   -1.4411   -0.2513 H         1 <0>         0.1357
     41 H14       -12.3306   -2.0822   -1.6477 H         1 <0>         0.1434
     42 H15        -9.7412   -4.3013   -4.2187 H         1 <0>         0.1424
     43 H16        -7.8079   -3.6609   -2.8410 H         1 <0>         0.1331
@<TRIPOS>BOND
     1    1    2 1
     2    1   29 1
     3    1   30 1
     4    1   31 1
     5    2    3 2
     6    2    4 1
     7    4    9 ar
     8    4    5 ar
     9    5    6 ar
    10    5   32 1
    11    6    7 ar
    12    6   33 1
    13    7    8 ar
    14    7   10 1
    15    8    9 ar
    16    8   34 1
    17    9   35 1
    18   10   15 2
    19   10   11 1
    20   11   12 1
    21   11   13 1
    22   13   14 2
    23   13   22 1
    24   14   15 1
    25   14   16 1
    26   16   21 ar
    27   16   17 ar
    28   17   18 ar
    29   17   36 1
    30   18   19 ar
    31   18   37 1
    32   19   20 ar
    33   20   21 ar
    34   20   38 1
    35   21   39 1
    36   22   27 ar
    37   22   23 ar
    38   23   24 ar
    39   23   40 1
    40   24   25 ar
    41   24   41 1
    42   25   26 ar
    43   25   28 1
    44   26   27 ar
    45   26   42 1
    46   27   43 1
@<TRIPOS>MOLECULE
ZINC18274812
   43    46     0     0     0
SMALL
USER_CHARGES

@<TRIPOS>ATOM
      1 C1          0.0458    2.4645   -0.3714 C.3       1 <0>        -0.4977
      2 S1          0.1034    0.6635   -0.1624 S.o       1 <0>         1.3328
      3 O1          0.9995    0.3374    0.8912 O.2       1 <0>        -0.8522
      4 C2          0.9248    0.0922   -1.6127 C.ar      1 <0>        -0.4531
      5 C3          0.1894   -0.2245   -2.7411 C.ar      1 <0>        -0.0385
      6 C4          0.8263   -0.6720   -3.8801 C.ar      1 <0>        -0.0921
      7 C5          2.2157   -0.8050   -3.8925 C.ar      1 <0>         0.0171
      8 C6          2.9515   -0.4838   -2.7508 C.ar      1 <0>        -0.1253
      9 C7          2.3027   -0.0324   -1.6200 C.ar      1 <0>        -0.0497
     10 C8          2.9049   -1.2844   -5.1094 C.2       1 <0>         0.2582
     11 N1          4.2515   -1.4590   -5.2384 N.pl3     1 <0>        -0.5486
     12 H1          4.9216   -1.2936   -4.5568 H         1 <0>         0.4252
     13 C9          4.4814   -1.9147   -6.5171 C.2       1 <0>         0.0337
     14 C10         3.2416   -2.0017   -7.1294 C.2       1 <0>         0.0807
     15 N2          2.3171   -1.6154   -6.2370 N.2       1 <0>        -0.4488
     16 C11         2.9826   -2.4473   -8.5186 C.ar      1 <0>        -0.0206
     17 C12         3.6496   -3.5590   -9.0325 C.ar      1 <0>        -0.0694
     18 C13         3.4051   -3.9700  -10.3265 C.ar      1 <0>        -0.1511
     19 C14         2.4988   -3.2799  -11.1154 C.ar      1 <0>         0.1060
     20 C15         1.8337   -2.1747  -10.6093 C.ar      1 <0>        -0.1526
     21 C16         2.0668   -1.7598   -9.3145 C.ar      1 <0>        -0.0599
     22 F1          2.2634   -3.6856  -12.3824 F         1 <0>        -0.1371
     23 C17         5.7881   -2.2443   -7.1163 C.ar      1 <0>         0.0226
     24 C18         6.1399   -1.7662   -8.3862 C.ar      1 <0>        -0.1423
     25 C19         7.3716   -2.0992   -8.9074 C.ar      1 <0>         0.1081
     26 N3          8.2131   -2.8565   -8.2286 N.ar      1 <0>        -0.4784
     27 C20         7.9224   -3.3278   -7.0303 C.ar      1 <0>         0.1071
     28 C21         6.7158   -3.0398   -6.4296 C.ar      1 <0>        -0.1652
     29 H2          1.0609    2.8540   -0.4489 H         1 <0>         0.0810
     30 H3         -0.5069    2.7075   -1.2790 H         1 <0>         0.1130
     31 H4         -0.4514    2.9143    0.4881 H         1 <0>         0.1088
     32 H5         -0.8856   -0.1215   -2.7301 H         1 <0>         0.1470
     33 H6          0.2512   -0.9192   -4.7602 H         1 <0>         0.1462
     34 H7          4.0268   -0.5845   -2.7539 H         1 <0>         0.1202
     35 H8          2.8713    0.2203   -0.7373 H         1 <0>         0.1322
     36 H9          4.3566   -4.0971   -8.4186 H         1 <0>         0.1287
     37 H10         3.9211   -4.8308  -10.7253 H         1 <0>         0.1387
     38 H11         1.1282   -1.6400  -11.2280 H         1 <0>         0.1401
     39 H12         1.5446   -0.9009   -8.9194 H         1 <0>         0.1377
     40 H13         5.4562   -1.1467   -8.9476 H         1 <0>         0.1400
     41 H14         7.6520   -1.7358   -9.8850 H         1 <0>         0.1626
     42 H15         8.6418   -3.9441   -6.5116 H         1 <0>         0.1610
     43 H16         6.4868   -3.4248   -5.4469 H         1 <0>         0.1340
@<TRIPOS>BOND
     1    1    2 1
     2    1   29 1
     3    1   30 1
     4    1   31 1
     5    2    3 2
     6    2    4 1
     7    4    9 ar
     8    4    5 ar
     9    5    6 ar
    10    5   32 1
    11    6    7 ar
    12    6   33 1
    13    7    8 ar
    14    7   10 1
    15    8    9 ar
    16    8   34 1
    17    9   35 1
    18   10   15 2
    19   10   11 1
    20   11   12 1
    21   11   13 1
    22   13   14 2
    23   13   23 1
    24   14   15 1
    25   14   16 1
    26   16   21 ar
    27   16   17 ar
    28   17   18 ar
    29   17   36 1
    30   18   19 ar
    31   18   37 1
    32   19   20 ar
    33   19   22 1
    34   20   21 ar
    35   20   38 1
    36   21   39 1
    37   23   28 ar
    38   23   24 ar
    39   24   25 ar
    40   24   40 1
    41   25   26 ar
    42   25   41 1
    43   26   27 ar
    44   27   28 ar
    45   27   42 1
    46   28   43 1
@<TRIPOS>MOLECULE
ZINC18274812
   43    46     0     0     0
SMALL
USER_CHARGES

@<TRIPOS>ATOM
      1 C1          0.0761    2.5207   -0.3946 C.3       1 <0>        -0.4977
      2 S1          0.1067    0.7194   -0.1829 S.o       1 <0>         1.3328
      3 O1          0.9925    0.3819    0.8757 O.2       1 <0>        -0.8523
      4 C2          0.9273    0.1342   -1.6283 C.ar      1 <0>        -0.4535
      5 C3          0.1933   -0.1734   -2.7600 C.ar      1 <0>        -0.0382
      6 C4          0.8295   -0.6320   -3.8950 C.ar      1 <0>        -0.0929
      7 C5          2.2169   -0.7850   -3.8999 C.ar      1 <0>         0.0183
      8 C6          2.9514   -0.4724   -2.7550 C.ar      1 <0>        -0.1257
      9 C7          2.3033   -0.0102   -1.6282 C.ar      1 <0>        -0.0496
     10 C8          2.9053   -1.2765   -5.1125 C.2       1 <0>         0.2536
     11 N1          4.2517   -1.4710   -5.2346 N.pl3     1 <0>        -0.5504
     12 H1          4.9205   -1.3136   -4.5499 H         1 <0>         0.4255
     13 C9          4.4817   -1.9314   -6.5089 C.2       1 <0>         0.0556
     14 C10         3.2446   -2.0022   -7.1288 C.2       1 <0>         0.0602
     15 N2          2.3192   -1.6008   -6.2417 N.2       1 <0>        -0.4443
     16 C11         2.9879   -2.4463   -8.5176 C.ar      1 <0>         0.0401
     17 C12         3.6482   -3.5593   -9.0502 C.ar      1 <0>        -0.1549
     18 C13         3.3789   -3.9386  -10.3482 C.ar      1 <0>         0.1021
     19 N3          2.5133   -3.2676  -11.0845 N.ar      1 <0>        -0.4831
     20 C14         1.8693   -2.2129  -10.6212 C.ar      1 <0>         0.1008
     21 C15         2.0741   -1.7682   -9.3321 C.ar      1 <0>        -0.1466
     22 C16         5.7882   -2.2812   -7.1001 C.ar      1 <0>        -0.0406
     23 C17         6.1350   -1.8042   -8.3665 C.ar      1 <0>        -0.0561
     24 C18         7.3568   -2.1344   -8.9137 C.ar      1 <0>        -0.1471
     25 C19         8.2399   -2.9383   -8.2101 C.ar      1 <0>         0.1131
     26 C20         7.9012   -3.4146   -6.9533 C.ar      1 <0>        -0.1492
     27 C21         6.6848   -3.0860   -6.3932 C.ar      1 <0>        -0.0767
     28 F1          9.4352   -3.2593   -8.7516 F         1 <0>        -0.1334
     29 H2          1.0971    2.8954   -0.4674 H         1 <0>         0.0810
     30 H3         -0.4683    2.7703   -1.3054 H         1 <0>         0.1130
     31 H4         -0.4189    2.9788    0.4616 H         1 <0>         0.1087
     32 H5         -0.8802   -0.0546   -2.7549 H         1 <0>         0.1468
     33 H6          0.2554   -0.8725   -4.7775 H         1 <0>         0.1457
     34 H7          4.0251   -0.5889   -2.7522 H         1 <0>         0.1204
     35 H8          2.8708    0.2356   -0.7429 H         1 <0>         0.1321
     36 H9          4.3583   -4.1127   -8.4536 H         1 <0>         0.1329
     37 H10         3.8834   -4.7962  -10.7681 H         1 <0>         0.1577
     38 H11         1.1696   -1.6933  -11.2591 H         1 <0>         0.1590
     39 H12         1.5402   -0.9072   -8.9580 H         1 <0>         0.1385
     40 H13         5.4474   -1.1783   -8.9159 H         1 <0>         0.1360
     41 H14         7.6261   -1.7662   -9.8926 H         1 <0>         0.1436
     42 H15         8.5933   -4.0406   -6.4097 H         1 <0>         0.1423
     43 H16         6.4240   -3.4537   -5.4118 H         1 <0>         0.1327
@<TRIPOS>BOND
     1    1    2 1
     2    1   29 1
     3    1   30 1
     4    1   31 1
     5    2    3 2
     6    2    4 1
     7    4    9 ar
     8    4    5 ar
     9    5    6 ar
    10    5   32 1
    11    6    7 ar
    12    6   33 1
    13    7    8 ar
    14    7   10 1
    15    8    9 ar
    16    8   34 1
    17    9   35 1
    18   10   15 2
    19   10   11 1
    20   11   12 1
    21   11   13 1
    22   13   14 2
    23   13   22 1
    24   14   15 1
    25   14   16 1
    26   16   21 ar
    27   16   17 ar
    28   17   18 ar
    29   17   36 1
    30   18   19 ar
    31   18   37 1
    32   19   20 ar
    33   20   21 ar
    34   20   38 1
    35   21   39 1
    36   22   27 ar
    37   22   23 ar
    38   23   24 ar
    39   23   40 1
    40   24   25 ar
    41   24   41 1
    42   25   26 ar
    43   25   28 1
    44   26   27 ar
    45   26   42 1
    46   27   43 1
@<TRIPOS>MOLECULE
ZINC00007460
   40    43     0     0     0
SMALL
USER_CHARGES

@<TRIPOS>ATOM
      1 C1          0.0099    1.3100   -0.6665 C.ar      1 <0>        -0.0873
      2 C2          1.1932    2.0449   -0.6736 C.ar      1 <0>        -0.1031
      3 C3          2.3989    1.4389   -0.4755 C.ar      1 <0>        -0.0878
      4 C4          2.4464    0.0575   -0.2619 C.ar      1 <0>        -0.1050
      5 C5          1.2413   -0.6922   -0.2545 C.ar      1 <0>        -0.0366
      6 C6          0.0201   -0.0377   -0.4614 C.ar      1 <0>        -0.1000
      7 C7          1.3338   -2.0791   -0.0357 C.ar      1 <0>         0.0670
      8 N1          2.5164   -2.6188    0.1508 N.ar      1 <0>        -0.2122
      9 N2          3.6082   -1.9490    0.1455 N.ar      1 <0>        -0.3148
     10 C8          3.6557   -0.6424   -0.0488 C.ar      1 <0>         0.3624
     11 N3          4.8682    0.0284   -0.0441 N.pl3     1 <0>        -0.6425
     12 C9          6.0641   -0.6900    0.0467 C.ar      1 <0>         0.1605
     13 C10         6.1747   -1.9364   -0.5565 C.ar      1 <0>        -0.1016
     14 C11         7.3572   -2.6438   -0.4652 C.ar      1 <0>        -0.0857
     15 C12         8.4313   -2.1122    0.2268 C.ar      1 <0>        -0.0509
     16 C13         8.3240   -0.8708    0.8288 C.ar      1 <0>        -0.0880
     17 C14         7.1459   -0.1562    0.7354 C.ar      1 <0>        -0.1365
     18 Cl1         9.9160   -3.0048    0.3406 Cl        1 <0>        -0.0690
     19 C15         0.0926   -2.9335   -0.0150 C.3       1 <0>        -0.0232
     20 C16        -0.1981   -3.4309   -1.4076 C.ar      1 <0>        -0.0363
     21 C17        -0.9979   -2.6976   -2.2706 C.ar      1 <0>        -0.1703
     22 C18        -1.2425   -3.1855   -3.5404 C.ar      1 <0>         0.0995
     23 N4         -0.7257   -4.3333   -3.9331 N.ar      1 <0>        -0.4856
     24 C19         0.0392   -5.0571   -3.1393 C.ar      1 <0>         0.1005
     25 C20         0.3326   -4.6300   -1.8581 C.ar      1 <0>        -0.1573
     26 H1         -0.9311    1.8168   -0.8216 H         1 <0>         0.1364
     27 H2          1.1553    3.1115   -0.8389 H         1 <0>         0.1355
     28 H3          3.3089    2.0205   -0.4838 H         1 <0>         0.1315
     29 H4         -0.9047   -0.5955   -0.4580 H         1 <0>         0.1411
     30 H5          4.8872    0.9963   -0.1038 H         1 <0>         0.4199
     31 H6          5.3365   -2.3519   -1.0962 H         1 <0>         0.1422
     32 H7          7.4438   -3.6128   -0.9340 H         1 <0>         0.1376
     33 H8          9.1638   -0.4583    1.3683 H         1 <0>         0.1380
     34 H9          7.0641    0.8146    1.2016 H         1 <0>         0.1341
     35 H10         0.2476   -3.7836    0.6494 H         1 <0>         0.1044
     36 H11        -0.7500   -2.3417    0.3426 H         1 <0>         0.0975
     37 H12        -1.4246   -1.7571   -1.9546 H         1 <0>         0.1331
     38 H13        -1.8645   -2.6203   -4.2187 H         1 <0>         0.1558
     39 H14         0.4444   -5.9925   -3.4961 H         1 <0>         0.1573
     40 H15         0.9637   -5.2248   -1.2145 H         1 <0>         0.1397
@<TRIPOS>BOND
     1    1    6 ar
     2    1    2 ar
     3    1   26 1
     4    2    3 ar
     5    2   27 1
     6    3    4 ar
     7    3   28 1
     8    4   10 ar
     9    4    5 ar
    10    5    6 ar
    11    5    7 ar
    12    6   29 1
    13    7    8 ar
    14    7   19 1
    15    8    9 ar
    16    9   10 ar
    17   10   11 1
    18   11   12 1
    19   11   30 1
    20   12   17 ar
    21   12   13 ar
    22   13   14 ar
    23   13   31 1
    24   14   15 ar
    25   14   32 1
    26   15   16 ar
    27   15   18 1
    28   16   17 ar
    29   16   33 1
    30   17   34 1
    31   19   20 1
    32   19   35 1
    33   19   36 1
    34   20   25 ar
    35   20   21 ar
    36   21   22 ar
    37   21   37 1
    38   22   23 ar
    39   22   38 1
    40   23   24 ar
    41   24   25 ar
    42   24   39 1
    43   25   40 1
@<TRIPOS>MOLECULE
ZINC00008732
   40    42     0     0     0
SMALL
USER_CHARGES
N-(4-chlorophenyl)-2-(4-pyridylmethylamino)benzamide
@<TRIPOS>ATOM
      1 C1          3.5646    3.1023    0.0107 C.ar      1 <0>        -0.1892
      2 C2          2.3520    3.7686   -0.0720 C.ar      1 <0>        -0.0339
      3 C3          1.1659    3.0639   -0.0690 C.ar      1 <0>        -0.2116
      4 C4          1.1804    1.6771    0.0169 C.ar      1 <0>         0.2828
      5 C5          2.4065    0.9998    0.1057 C.ar      1 <0>        -0.2339
      6 C6          3.5992    1.7280    0.0970 C.ar      1 <0>        -0.0330
      7 C7          2.4361   -0.4707    0.2035 C.2       1 <0>         0.5767
      8 O1          1.4043   -1.1074    0.1076 O.2       1 <0>        -0.5323
      9 N1          3.6065   -1.1097    0.3992 N.am      1 <0>        -0.6684
     10 C8          3.6486   -2.5081    0.3987 C.ar      1 <0>         0.1494
     11 C9          2.5872   -3.2362    0.9202 C.ar      1 <0>        -0.1076
     12 C10         2.6286   -4.6166    0.9129 C.ar      1 <0>        -0.0910
     13 C11         3.7319   -5.2742    0.3978 C.ar      1 <0>        -0.0490
     14 C12         4.7935   -4.5511   -0.1173 C.ar      1 <0>        -0.0904
     15 C13         4.7545   -3.1706   -0.1180 C.ar      1 <0>        -0.1323
     16 Cl1         3.7842   -7.0095    0.3972 Cl        1 <0>        -0.0683
     17 N2         -0.0121    0.9654    0.0206 N.pl3     1 <0>        -0.7212
     18 C14        -1.2911    1.6793    0.0525 C.3       1 <0>         0.1556
     19 C15        -2.4224    0.6838    0.0431 C.ar      1 <0>        -0.0625
     20 C16        -2.9734    0.2467   -1.1518 C.ar      1 <0>        -0.1534
     21 C17        -4.0071   -0.6701   -1.1212 C.ar      1 <0>         0.0997
     22 N3         -4.4752   -1.1208    0.0263 N.ar      1 <0>        -0.4787
     23 C18        -3.9788   -0.7239    1.1816 C.ar      1 <0>         0.0996
     24 C19        -2.9409    0.1875    1.2294 C.ar      1 <0>        -0.1533
     25 H1          4.4872    3.6637    0.0079 H         1 <0>         0.1272
     26 H2          2.3355    4.8464   -0.1390 H         1 <0>         0.1283
     27 H3          0.2253    3.5906   -0.1331 H         1 <0>         0.1295
     28 H4          4.5469    1.2141    0.1616 H         1 <0>         0.1235
     29 H5          4.4196   -0.6000    0.5403 H         1 <0>         0.4134
     30 H6          1.7281   -2.7234    1.3271 H         1 <0>         0.1473
     31 H7          1.8012   -5.1834    1.3136 H         1 <0>         0.1372
     32 H8          5.6530   -5.0668   -0.5193 H         1 <0>         0.1387
     33 H9          5.5830   -2.6067   -0.5204 H         1 <0>         0.1362
     34 H10         0.0016   -0.0042   -0.0019 H         1 <0>         0.4212
     35 H11        -1.3470    2.2844    0.9574 H         1 <0>         0.0767
     36 H12        -1.3684    2.3254   -0.8220 H         1 <0>         0.0764
     37 H13        -2.5973    0.6156   -2.0946 H         1 <0>         0.1366
     38 H14        -4.4395   -1.0181   -2.0477 H         1 <0>         0.1588
     39 H15        -4.3882   -1.1152    2.1012 H         1 <0>         0.1587
     40 H16        -2.5390    0.5092    2.1788 H         1 <0>         0.1364
@<TRIPOS>BOND
     1    1    6 ar
     2    1    2 ar
     3    1   25 1
     4    2    3 ar
     5    2   26 1
     6    3    4 ar
     7    3   27 1
     8    4    5 ar
     9    4   17 1
    10    5    6 ar
    11    5    7 1
    12    6   28 1
    13    7    8 2
    14    7    9 am
    15    9   10 1
    16    9   29 1
    17   10   15 ar
    18   10   11 ar
    19   11   12 ar
    20   11   30 1
    21   12   13 ar
    22   12   31 1
    23   13   14 ar
    24   13   16 1
    25   14   15 ar
    26   14   32 1
    27   15   33 1
    28   17   18 1
    29   17   34 1
    30   18   19 1
    31   18   35 1
    32   18   36 1
    33   19   24 ar
    34   19   20 ar
    35   20   21 ar
    36   20   37 1
    37   21   22 ar
    38   21   38 1
    39   22   23 ar
    40   23   24 ar
    41   23   39 1
    42   24   40 1
@<TRIPOS>MOLECULE
ZINC00109589
   31    33     0     0     0
SMALL
USER_CHARGES

@<TRIPOS>ATOM
      1 C1         -0.0167    1.3781    0.0096 C.ar      1 <0>        -0.1088
      2 C2          1.1709    2.0855    0.0021 C.ar      1 <0>        -0.1217
      3 C3          2.3773    1.4107   -0.0130 C.ar      1 <0>        -0.0991
      4 C4          2.3960    0.0285   -0.0201 C.ar      1 <0>        -0.1168
      5 C5          1.2084   -0.6789   -0.0117 C.ar      1 <0>        -0.0991
      6 C6          0.0021   -0.0041    0.0020 C.ar      1 <0>        -0.1216
      7 C7          3.7112   -0.7071   -0.0376 C.3       1 <0>         0.1697
      8 N1          4.1518   -0.9524    1.3379 N.pl3     1 <0>        -0.6924
      9 C8          5.3371   -1.6152    1.5741 C.ar      1 <0>         0.4741
     10 C9          5.7787   -1.8678    2.8961 C.ar      1 <0>        -0.1986
     11 C10         5.0439   -1.4635    4.0161 C.ar      1 <0>        -0.0706
     12 C11         5.5194   -1.7351    5.2652 C.ar      1 <0>        -0.1343
     13 C12         6.7252   -2.4083    5.4403 C.ar      1 <0>        -0.0743
     14 C13         7.4645   -2.8154    4.3698 C.ar      1 <0>        -0.1106
     15 C14         7.0053   -2.5532    3.0719 C.ar      1 <0>         0.1875
     16 N2          7.6934   -2.9324    1.9846 N.ar      1 <0>        -0.5556
     17 C15         7.2356   -2.6713    0.7834 C.ar      1 <0>         0.3496
     18 N3          6.0927   -2.0387    0.5698 N.ar      1 <0>        -0.5982
     19 H1         -0.9591    1.9053    0.0259 H         1 <0>         0.1248
     20 H2          1.1563    3.1654    0.0076 H         1 <0>         0.1256
     21 H3          3.3051    1.9634   -0.0196 H         1 <0>         0.1244
     22 H4          1.2231   -1.7588   -0.0176 H         1 <0>         0.1244
     23 H5         -0.9258   -0.5567    0.0082 H         1 <0>         0.1256
     24 H6          3.5884   -1.6586   -0.5549 H         1 <0>         0.0812
     25 H7          4.4573   -0.1052   -0.5563 H         1 <0>         0.0812
     26 H8          3.6095   -0.6484    2.0824 H         1 <0>         0.4120
     27 H9          4.1075   -0.9399    3.8923 H         1 <0>         0.1241
     28 H10         4.9529   -1.4233    6.1302 H         1 <0>         0.1301
     29 H11         7.0807   -2.6108    6.4398 H         1 <0>         0.1333
     30 H12         8.3984   -3.3364    4.5209 H         1 <0>         0.1399
     31 H13         7.8153   -2.9910   -0.0699 H         1 <0>         0.1946
@<TRIPOS>BOND
     1    1    6 ar
     2    1    2 ar
     3    1   19 1
     4    2    3 ar
     5    2   20 1
     6    3    4 ar
     7    3   21 1
     8    4    5 ar
     9    4    7 1
    10    5    6 ar
    11    5   22 1
    12    6   23 1
    13    7    8 1
    14    7   24 1
    15    7   25 1
    16    8    9 1
    17    8   26 1
    18    9   18 ar
    19    9   10 ar
    20   10   15 ar
    21   10   11 ar
    22   11   12 ar
    23   11   27 1
    24   12   13 ar
    25   12   28 1
    26   13   14 ar
    27   13   29 1
    28   14   15 ar
    29   14   30 1
    30   15   16 ar
    31   16   17 ar
    32   17   18 ar
    33   17   31 1
@<TRIPOS>MOLECULE
ZINC03873083
   46    48     0     0     0
SMALL
USER_CHARGES

@<TRIPOS>ATOM
      1 C1         -0.4131    1.3021    0.2851 C.ar      1 <0>        -0.1364
      2 C2          0.5922    2.1556    0.7014 C.ar      1 <0>        -0.1045
      3 C3          1.8584    1.6635    0.9508 C.ar      1 <0>        -0.1503
      4 C4          2.1213    0.3114    0.7837 C.ar      1 <0>         0.1322
      5 C5          1.1111   -0.5428    0.3665 C.ar      1 <0>        -0.1278
      6 C6         -0.1537   -0.0454    0.1178 C.ar      1 <0>        -0.0971
      7 C7          1.3932   -2.0118    0.1835 C.3       1 <0>         0.1871
      8 N1          1.3473   -2.6836    1.4846 N.pl3     1 <0>        -0.6469
      9 C8          0.0649   -3.1323    2.0324 C.3       1 <0>         0.1864
     10 C9         -0.2597   -4.5020    1.4942 C.ar      1 <0>        -0.1108
     11 C10        -1.1569   -4.6402    0.4529 C.ar      1 <0>        -0.1193
     12 C11        -1.4552   -5.9006   -0.0427 C.ar      1 <0>         0.0862
     13 C12        -0.8526   -7.0226    0.5072 C.ar      1 <0>        -0.1317
     14 C13         0.0444   -6.8844    1.5482 C.ar      1 <0>        -0.1344
     15 C14         0.3467   -5.6232    2.0405 C.ar      1 <0>         0.1242
     16 O1          1.2341   -5.4867    3.0617 O.3       1 <0>        -0.4796
     17 O2         -2.3387   -6.0367   -1.0674 O.3       1 <0>        -0.5005
     18 C15         2.5288   -2.8968    2.2042 C.ar      1 <0>         0.1634
     19 C16         3.5133   -3.7351    1.6895 C.ar      1 <0>        -0.1082
     20 C17         4.6815   -3.9517    2.3912 C.ar      1 <0>        -0.1500
     21 C18         4.8836   -3.3341    3.6165 C.ar      1 <0>         0.1238
     22 C19         3.8968   -2.4875    4.1421 C.ar      1 <0>        -0.1476
     23 C20         2.7173   -2.2692    3.4224 C.ar      1 <0>        -0.0997
     24 C21         4.1033   -1.8282    5.4416 C.2       1 <0>         0.5187
     25 O3          3.2403   -1.0903    5.8971 O.co2     1 <0>        -0.6945
     26 O4          5.1379   -2.0180    6.0663 O.co2     1 <0>        -0.6721
     27 O5          6.0330   -3.5489    4.3051 O.3       1 <0>        -0.4770
     28 O6          3.3664   -0.1752    1.0280 O.3       1 <0>        -0.4989
     29 H1         -1.4036    1.6882    0.0946 H         1 <0>         0.1199
     30 H2          0.3871    3.2080    0.8313 H         1 <0>         0.1218
     31 H3          2.6433    2.3306    1.2752 H         1 <0>         0.1259
     32 H4         -0.9405   -0.7100   -0.2075 H         1 <0>         0.1201
     33 H5          0.6426   -2.4465   -0.4765 H         1 <0>         0.0656
     34 H6          2.3821   -2.1398   -0.2568 H         1 <0>         0.0805
     35 H7          0.1292   -3.1750    3.1197 H         1 <0>         0.0799
     36 H8         -0.7190   -2.4327    1.7421 H         1 <0>         0.0700
     37 H9         -1.6263   -3.7668    0.0250 H         1 <0>         0.1278
     38 H10        -1.0852   -8.0042    0.1215 H         1 <0>         0.1274
     39 H11         0.5129   -7.7580    1.9768 H         1 <0>         0.1302
     40 H12         0.8311   -5.5199    3.9401 H         1 <0>         0.3884
     41 H13        -1.9321   -6.0046   -1.9442 H         1 <0>         0.3872
     42 H14         3.3619   -4.2189    0.7359 H         1 <0>         0.1073
     43 H15         5.4403   -4.6042    1.9853 H         1 <0>         0.1149
     44 H16         1.9542   -1.6157    3.8187 H         1 <0>         0.1217
     45 H17         6.7396   -2.9227    4.0961 H         1 <0>         0.3800
     46 H18         3.5260   -0.4000    1.9549 H         1 <0>         0.3969
@<TRIPOS>BOND
     1    1    6 ar
     2    1    2 ar
     3    1   29 1
     4    2    3 ar
     5    2   30 1
     6    3    4 ar
     7    3   31 1
     8    4    5 ar
     9    4   28 1
    10    5    6 ar
    11    5    7 1
    12    6   32 1
    13    7    8 1
    14    7   33 1
    15    7   34 1
    16    8    9 1
    17    8   18 1
    18    9   10 1
    19    9   35 1
    20    9   36 1
    21   10   15 ar
    22   10   11 ar
    23   11   12 ar
    24   11   37 1
    25   12   13 ar
    26   12   17 1
    27   13   14 ar
    28   13   38 1
    29   14   15 ar
    30   14   39 1
    31   15   16 1
    32   16   40 1
    33   17   41 1
    34   18   23 ar
    35   18   19 ar
    36   19   20 ar
    37   19   42 1
    38   20   21 ar
    39   20   43 1
    40   21   22 ar
    41   21   27 1
    42   22   23 ar
    43   22   24 1
    44   23   44 1
    45   24   25 2
    46   24   26 1
    47   27   45 1
    48   28   46 1
@<TRIPOS>MOLECULE
ZINC24044436
   76    80     0     0     0
SMALL
USER_CHARGES
1-[5-tert-butyl-2-(p-tolyl)pyrazol-3-yl]-3-[4-(2-morpholinoethoxy)-1-naphthyl]urea
@<TRIPOS>ATOM
      1 C1          3.3307    9.5387   -0.3298 C.3       1 <0>        -0.1193
      2 C2          2.0898    8.6848   -0.2813 C.ar      1 <0>        -0.0892
      3 C3          0.9612    9.0673   -0.9828 C.ar      1 <0>        -0.0934
      4 C4         -0.1775    8.2868   -0.9403 C.ar      1 <0>        -0.1062
      5 C5         -0.1884    7.1174   -0.1919 C.ar      1 <0>         0.1564
      6 C6          0.9444    6.7392    0.5163 C.ar      1 <0>        -0.1500
      7 C7          2.0821    7.5207    0.4649 C.ar      1 <0>        -0.0924
      8 N1         -1.3424    6.3233   -0.1469 N.pl3     1 <0>        -0.3448
      9 C8         -1.3788    4.9645   -0.0790 C.2       1 <0>         0.3309
     10 C9         -2.6878    4.5925   -0.0483 C.2       1 <0>        -0.2629
     11 C10        -3.4651    5.7529   -0.1047 C.2       1 <0>         0.1115
     12 N2         -2.6643    6.7861   -0.1672 N.2       1 <0>        -0.2779
     13 C11        -4.9712    5.8052   -0.0954 C.3       1 <0>         0.0134
     14 C12        -5.4824    5.5257    1.3193 C.3       1 <0>        -0.1388
     15 C13        -5.4360    7.1933   -0.5406 C.3       1 <0>        -0.1390
     16 C14        -5.5242    4.7499   -1.0553 C.3       1 <0>        -0.1399
     17 N3         -0.2771    4.1104   -0.0417 N.am      1 <0>        -0.6731
     18 C15        -0.4603    2.7771    0.0314 C.2       1 <0>         0.7165
     19 O1         -1.5862    2.3190    0.0649 O.2       1 <0>        -0.5445
     20 N4          0.6045    1.9516    0.0675 N.am      1 <0>        -0.6819
     21 C16         0.4162    0.5655    0.0407 C.ar      1 <0>         0.1254
     22 C17        -0.6813    0.0024    0.6542 C.ar      1 <0>        -0.0743
     23 C18        -0.8835   -1.3742    0.6299 C.ar      1 <0>        -0.2061
     24 C19         0.0048   -2.2051    0.0082 C.ar      1 <0>         0.1395
     25 C20         1.1426   -1.6672   -0.6254 C.ar      1 <0>        -0.0565
     26 C21         1.3517   -0.2661   -0.6096 C.ar      1 <0>        -0.0251
     27 C22         2.4862    0.2686   -1.2409 C.ar      1 <0>        -0.1232
     28 C23         3.3687   -0.5639   -1.8588 C.ar      1 <0>        -0.0971
     29 C24         3.1636   -1.9422   -1.8742 C.ar      1 <0>        -0.1313
     30 C25         2.0750   -2.4951   -1.2724 C.ar      1 <0>        -0.0739
     31 O2         -0.2080   -3.5475    0.0012 O.3       1 <0>        -0.2916
     32 C26        -1.3823   -4.0216    0.6634 C.3       1 <0>         0.0605
     33 C27        -1.4510   -5.5459    0.5508 C.3       1 <0>         0.0539
     34 N5         -0.3065   -6.1409    1.2538 N.3       1 <0>        -0.5287
     35 C28        -0.1978   -7.5776    0.9617 C.3       1 <0>         0.0167
     36 C29         1.0390   -8.1436    1.6645 C.3       1 <0>         0.0615
     37 O3          0.9456   -7.8818    3.0674 O.3       1 <0>        -0.3849
     38 C30         0.8389   -6.4921    3.3879 C.3       1 <0>         0.0625
     39 C31        -0.3999   -5.9094    2.7026 C.3       1 <0>         0.0120
     40 H1          3.1476   10.4156   -0.9682 H         1 <0>         0.0687
     41 H2          4.1639    8.9515   -0.7434 H         1 <0>         0.0732
     42 H3          3.5863    9.8722    0.6868 H         1 <0>         0.0734
     43 H4          0.9703    9.9770   -1.5648 H         1 <0>         0.1335
     44 H5         -1.0587    8.5861   -1.4884 H         1 <0>         0.1355
     45 H6          0.9374    5.8324    1.1029 H         1 <0>         0.1262
     46 H7          2.9651    7.2245    1.0118 H         1 <0>         0.1343
     47 H8         -3.0598    3.5802    0.0092 H         1 <0>         0.1784
     48 H9         -6.5817    5.5639    1.3261 H         1 <0>         0.0656
     49 H10        -5.0849    6.2845    2.0094 H         1 <0>         0.0565
     50 H11        -5.1481    4.5278    1.6395 H         1 <0>         0.0614
     51 H12        -6.5353    7.2315   -0.5338 H         1 <0>         0.0604
     52 H13        -5.0684    7.3943   -1.5577 H         1 <0>         0.0568
     53 H14        -5.0385    7.9519    0.1496 H         1 <0>         0.0614
     54 H15        -6.6235    4.7882   -1.0484 H         1 <0>         0.0647
     55 H16        -5.1900    3.7520   -0.7351 H         1 <0>         0.0637
     56 H17        -5.1566    4.9509   -2.0724 H         1 <0>         0.0570
     57 H18         0.7414    4.5248   -0.0719 H         1 <0>         0.4294
     58 H19         1.6215    2.3677    0.1180 H         1 <0>         0.4280
     59 H20        -1.3959    0.6376    1.1566 H         1 <0>         0.1450
     60 H21        -1.7537   -1.7925    1.1139 H         1 <0>         0.1296
     61 H22         2.6580    1.3348   -1.2361 H         1 <0>         0.1222
     62 H23         4.2405   -0.1501   -2.3437 H         1 <0>         0.1243
     63 H24         3.8790   -2.5810   -2.3706 H         1 <0>         0.1250
     64 H25         1.9286   -3.5650   -1.2926 H         1 <0>         0.1353
     65 H26        -1.3465   -3.7335    1.7244 H         1 <0>         0.0659
     66 H27        -2.2726   -3.5787    0.1931 H         1 <0>         0.0716
     67 H28        -2.3868   -5.9052    1.0039 H         1 <0>         0.0605
     68 H29        -1.4216   -5.8370   -0.5096 H         1 <0>         0.0912
     69 H30        -1.0977   -8.0949    1.3258 H         1 <0>         0.0437
     70 H31        -0.1044   -7.7249   -0.1244 H         1 <0>         0.0891
     71 H32         1.0925   -9.2291    1.4949 H         1 <0>         0.1001
     72 H33         1.9424   -7.6643    1.2595 H         1 <0>         0.0618
     73 H34         0.7475   -6.3731    4.4776 H         1 <0>         0.0994
     74 H35         1.7375   -5.9645    3.0355 H         1 <0>         0.0616
     75 H36        -0.4553   -4.8284    2.8983 H         1 <0>         0.0869
     76 H37        -1.3031   -6.3997    3.0948 H         1 <0>         0.0443
@<TRIPOS>BOND
     1    1    2 1
     2    1   40 1
     3    1   41 1
     4    1   42 1
     5    2    7 ar
     6    2    3 ar
     7    3    4 ar
     8    3   43 1
     9    4    5 ar
    10    4   44 1
    11    5    6 ar
    12    5    8 1
    13    6    7 ar
    14    6   45 1
    15    7   46 1
    16    8   12 1
    17    8    9 1
    18    9   10 2
    19    9   17 1
    20   10   11 1
    21   10   47 1
    22   11   12 2
    23   11   13 1
    24   13   14 1
    25   13   15 1
    26   13   16 1
    27   14   48 1
    28   14   49 1
    29   14   50 1
    30   15   51 1
    31   15   52 1
    32   15   53 1
    33   16   54 1
    34   16   55 1
    35   16   56 1
    36   17   18 am
    37   17   57 1
    38   18   19 2
    39   18   20 am
    40   20   21 1
    41   20   58 1
    42   21   26 ar
    43   21   22 ar
    44   22   23 ar
    45   22   59 1
    46   23   24 ar
    47   23   60 1
    48   24   25 ar
    49   24   31 1
    50   25   30 ar
    51   25   26 ar
    52   26   27 ar
    53   27   28 ar
    54   27   61 1
    55   28   29 ar
    56   28   62 1
    57   29   30 ar
    58   29   63 1
    59   30   64 1
    60   31   32 1
    61   32   33 1
    62   32   65 1
    63   32   66 1
    64   33   34 1
    65   33   67 1
    66   33   68 1
    67   34   39 1
    68   34   35 1
    69   35   36 1
    70   35   69 1
    71   35   70 1
    72   36   37 1
    73   36   71 1
    74   36   72 1
    75   37   38 1
    76   38   39 1
    77   38   73 1
    78   38   74 1
    79   39   75 1
    80   39   76 1
@<TRIPOS>MOLECULE
ZINC01634585
   33    34     0     0     0
SMALL
USER_CHARGES
5-[2-(2,5-dihydroxyphenyl)ethyl]-2-hydroxy-benzoic acid
@<TRIPOS>ATOM
      1 C1          4.7759    1.5192   -5.4203 C.ar      1 <0>        -0.1053
      2 C2          5.3791    1.8130   -6.6274 C.ar      1 <0>        -0.1668
      3 C3          6.5907    2.4869   -6.6533 C.ar      1 <0>         0.1333
      4 C4          7.1968    2.8729   -5.4490 C.ar      1 <0>        -0.1412
      5 C5          6.5726    2.5738   -4.2352 C.ar      1 <0>        -0.0552
      6 C6          5.3686    1.9033   -4.2287 C.ar      1 <0>        -0.1185
      7 C7          4.6968    1.5809   -2.9188 C.3       1 <0>        -0.0619
      8 C8          3.7678    2.7312   -2.5255 C.3       1 <0>        -0.0722
      9 C9          3.0959    2.4088   -1.2156 C.ar      1 <0>        -0.0846
     10 C10         1.8416    1.8298   -1.2067 C.ar      1 <0>        -0.1273
     11 C11         1.2236    1.5328   -0.0014 C.ar      1 <0>         0.0931
     12 C12         1.8623    1.8222    1.1955 C.ar      1 <0>        -0.1369
     13 C13         3.1187    2.3958    1.1866 C.ar      1 <0>        -0.1286
     14 C14         3.7369    2.6930   -0.0192 C.ar      1 <0>         0.1032
     15 O1          4.9714    3.2633   -0.0279 O.3       1 <0>        -0.4896
     16 O2         -0.0110    0.9628    0.0073 O.3       1 <0>        -0.5002
     17 C15         8.4844    3.5902   -5.4635 C.2       1 <0>         0.4879
     18 O3          9.0241    3.8484   -6.5211 O.co2     1 <0>        -0.6167
     19 O4          7.1871    2.7712   -7.8379 O.3       1 <0>        -0.4781
     20 H1          3.8343    0.9905   -5.4055 H         1 <0>         0.1159
     21 H2          4.9088    1.5135   -7.5523 H         1 <0>         0.1204
     22 H3          7.0331    2.8673   -3.3034 H         1 <0>         0.1335
     23 H4          5.4535    1.4446   -2.1462 H         1 <0>         0.0766
     24 H5          4.1159    0.6646   -3.0242 H         1 <0>         0.0653
     25 H6          3.0111    2.8676   -3.2981 H         1 <0>         0.0730
     26 H7          4.3486    3.6475   -2.4200 H         1 <0>         0.0800
     27 H8          1.3426    1.6082   -2.1385 H         1 <0>         0.1320
     28 H9          1.3790    1.5953    2.1342 H         1 <0>         0.1296
     29 H10         3.6177    2.6174    2.1184 H         1 <0>         0.1323
     30 H11         4.9580    4.2302   -0.0224 H         1 <0>         0.3921
     31 H12         0.0021   -0.0041    0.0020 H         1 <0>         0.3891
     32 H13         7.7894    2.0822   -8.1503 H         1 <0>         0.3838
     33 O5          9.0630    3.9595   -4.3040 O.co2     1 <0>        -0.7583
@<TRIPOS>BOND
     1    1    6 ar
     2    1    2 ar
     3    1   20 1
     4    2    3 ar
     5    2   21 1
     6    3    4 ar
     7    3   19 1
     8    4    5 ar
     9    4   17 1
    10    5    6 ar
    11    5   22 1
    12    6    7 1
    13    7    8 1
    14    7   23 1
    15    7   24 1
    16    8    9 1
    17    8   25 1
    18    8   26 1
    19    9   14 ar
    20    9   10 ar
    21   10   11 ar
    22   10   27 1
    23   11   12 ar
    24   11   16 1
    25   12   13 ar
    26   12   28 1
    27   13   14 ar
    28   13   29 1
    29   14   15 1
    30   15   30 1
    31   16   31 1
    32   17   18 2
    33   17   33 1
    34   19   32 1
@<TRIPOS>MOLECULE
ZINC00008741
   43    45     0     0     0
SMALL
USER_CHARGES

@<TRIPOS>ATOM
      1 C1          1.2321    6.1407    0.0215 C.3       1 <0>         0.0224
      2 O1         -0.0318    5.4740    0.0301 O.3       1 <0>        -0.3016
      3 C2         -0.0127    4.1149    0.0232 C.ar      1 <0>         0.1132
      4 C3          1.1827    3.4576    0.0087 C.ar      1 <0>        -0.1385
      5 C4          1.2066    2.0527    0.0016 C.ar      1 <0>         0.0317
      6 C5         -0.0161    1.3350    0.0094 C.ar      1 <0>         0.1565
      7 C6         -1.2309    2.0396    0.0189 C.ar      1 <0>        -0.1859
      8 C7         -1.2227    3.4044    0.0315 C.ar      1 <0>         0.1580
      9 O2         -2.3999    4.0829    0.0463 O.3       1 <0>        -0.2984
     10 C8         -3.5978    3.3038    0.0541 C.3       1 <0>         0.0213
     11 N1          0.0021   -0.0041    0.0020 N.ar      1 <0>        -0.5092
     12 C9          1.1576   -0.6415   -0.0124 C.ar      1 <0>         0.3763
     13 C10         2.3666    0.0737   -0.0200 C.ar      1 <0>         0.0339
     14 N2          2.3671    1.3855   -0.0134 N.ar      1 <0>        -0.3913
     15 N3          1.1784   -2.0293   -0.0196 N.pl3     1 <0>        -0.7027
     16 C11         2.4579   -2.7426   -0.0356 C.3       1 <0>         0.1474
     17 C12         2.9507   -2.8739   -1.4781 C.3       1 <0>        -0.1361
     18 C13         1.9218   -3.6535   -2.2995 C.3       1 <0>        -0.1509
     19 C14         1.7366   -5.0468   -1.6951 C.3       1 <0>         0.1040
     20 C15         1.2439   -4.9155   -0.2525 C.3       1 <0>        -0.1160
     21 C16         2.2727   -4.1359    0.5689 C.3       1 <0>        -0.1234
     22 O3          0.7757   -5.7749   -2.4623 O.3       1 <0>        -0.5681
     23 H1          1.0741    7.2192    0.0283 H         1 <0>         0.1049
     24 H2          1.8015    5.8513    0.9048 H         1 <0>         0.0587
     25 H3          1.7848    5.8601   -0.8751 H         1 <0>         0.0586
     26 H4          2.1076    4.0153    0.0032 H         1 <0>         0.1508
     27 H5         -2.1683    1.5033    0.0205 H         1 <0>         0.1513
     28 H6         -4.4626    3.9672    0.0659 H         1 <0>         0.1061
     29 H7         -3.6309    2.6794   -0.8387 H         1 <0>         0.0604
     30 H8         -3.6135    2.6706    0.9412 H         1 <0>         0.0604
     31 H9          3.3046   -0.4615   -0.0318 H         1 <0>         0.1690
     32 H10         0.3458   -2.5269   -0.0140 H         1 <0>         0.4079
     33 H11         3.1909   -2.1872    0.5496 H         1 <0>         0.0899
     34 H12         3.0826   -1.8813   -1.9087 H         1 <0>         0.0712
     35 H13         3.9026   -3.4046   -1.4900 H         1 <0>         0.0796
     36 H14         2.2729   -3.7470   -3.3272 H         1 <0>         0.0663
     37 H15         0.9699   -3.1228   -2.2876 H         1 <0>         0.0730
     38 H16         2.6886   -5.5775   -1.7070 H         1 <0>         0.0570
     39 H17         1.1119   -5.9081    0.1781 H         1 <0>         0.0764
     40 H18         0.2919   -4.3848   -0.2407 H         1 <0>         0.0693
     41 H19         3.2247   -4.6666    0.5570 H         1 <0>         0.0863
     42 H20         1.9216   -4.0424    1.5965 H         1 <0>         0.0805
     43 H21         1.0230   -5.8965   -3.3891 H         1 <0>         0.3796
@<TRIPOS>BOND
     1    1    2 1
     2    1   23 1
     3    1   24 1
     4    1   25 1
     5    2    3 1
     6    3    8 ar
     7    3    4 ar
     8    4    5 ar
     9    4   26 1
    10    5   14 ar
    11    5    6 ar
    12    6    7 ar
    13    6   11 ar
    14    7    8 ar
    15    7   27 1
    16    8    9 1
    17    9   10 1
    18   10   28 1
    19   10   29 1
    20   10   30 1
    21   11   12 ar
    22   12   13 ar
    23   12   15 1
    24   13   14 ar
    25   13   31 1
    26   15   16 1
    27   15   32 1
    28   16   21 1
    29   16   17 1
    30   16   33 1
    31   17   18 1
    32   17   34 1
    33   17   35 1
    34   18   19 1
    35   18   36 1
    36   18   37 1
    37   19   20 1
    38   19   22 1
    39   19   38 1
    40   20   21 1
    41   20   39 1
    42   20   40 1
    43   21   41 1
    44   21   42 1
    45   22   43 1
@<TRIPOS>MOLECULE
ZINC01550477
   67    71     0     0     0
SMALL
USER_CHARGES
N-[3-chloro-4-[(3-fluorophenyl)methoxy]phenyl]-6-[5-(2-methylsulfonylethylaminomethyl)-2-furyl]-quinazolin-4-amine
@<TRIPOS>ATOM
      1 C1         -7.2164   11.0372    3.0195 C.3       1 <0>        -0.6448
      2 S1         -6.7571   10.7093    1.2955 S.o2      1 <0>         2.4326
      3 O1         -5.7431   11.6303    0.9175 O.2       1 <0>        -0.9163
      4 O2         -7.9456   10.6335    0.5203 O.2       1 <0>        -0.9157
      5 C2         -6.0233    9.0527    1.3844 C.3       1 <0>        -0.6787
      6 C3         -5.5746    8.6180   -0.0122 C.3       1 <0>         0.0096
      7 C4         -4.5371    6.8253   -1.2661 C.3       1 <0>         0.0949
      8 C5         -3.9345    5.4487   -1.1526 C.2       1 <0>        -0.1220
      9 C6         -4.6045    4.2857   -1.2709 C.2       1 <0>        -0.1227
     10 C7         -3.6659    3.2489   -1.0969 C.2       1 <0>        -0.2041
     11 C8         -2.4620    3.8428   -0.8796 C.2       1 <0>         0.0998
     12 O3         -2.6414    5.1774   -0.9104 O.3       1 <0>        -0.1656
     13 C9         -1.1810    3.1454   -0.6443 C.ar      1 <0>        -0.0604
     14 C10        -1.1417    1.7409   -0.6382 C.ar      1 <0>        -0.0521
     15 C11         0.0237    1.0763   -0.4177 C.ar      1 <0>        -0.0937
     16 C12         1.2099    1.7947   -0.2040 C.ar      1 <0>         0.2083
     17 C13         1.1822    3.2116   -0.2139 C.ar      1 <0>        -0.1977
     18 C14        -0.0232    3.8817   -0.4358 C.ar      1 <0>        -0.0338
     19 C15         2.3978    3.9066    0.0047 C.ar      1 <0>         0.4722
     20 N1          3.4987    3.1947    0.2074 N.ar      1 <0>        -0.5774
     21 C16         3.4754    1.8717    0.2076 C.ar      1 <0>         0.3649
     22 N2          2.3802    1.1762    0.0109 N.ar      1 <0>        -0.5439
     23 N3          2.4351    5.2852    0.0073 N.pl3     1 <0>        -0.6315
     24 C17         3.6620    5.9520    0.1043 C.ar      1 <0>         0.1153
     25 C18         3.7486    7.1497    0.8022 C.ar      1 <0>        -0.0952
     26 C19         4.9602    7.8046    0.9022 C.ar      1 <0>        -0.1798
     27 C20         6.0888    7.2728    0.2963 C.ar      1 <0>         0.1358
     28 C21         6.0027    6.0786   -0.4059 C.ar      1 <0>        -0.0497
     29 C22         4.7920    5.4192   -0.5019 C.ar      1 <0>        -0.0586
     30 Cl1         7.4158    5.4135   -1.1639 Cl        1 <0>        -0.0401
     31 O4          7.2805    7.9214    0.3906 O.3       1 <0>        -0.2928
     32 C23         7.2964    9.1452    1.1283 C.3       1 <0>         0.1010
     33 C24         8.6911    9.7160    1.1245 C.ar      1 <0>        -0.0726
     34 C25         9.0796   10.5846    0.1214 C.ar      1 <0>        -0.1044
     35 C26        10.3585   11.1089    0.1166 C.ar      1 <0>        -0.0912
     36 C27        11.2506   10.7653    1.1149 C.ar      1 <0>        -0.1400
     37 C28        10.8628    9.8957    2.1198 C.ar      1 <0>         0.0987
     38 C29         9.5794    9.3754    2.1266 C.ar      1 <0>        -0.1290
     39 F1         11.7337    9.5594    3.0963 F         1 <0>        -0.1351
     40 H1         -6.3247   11.0049    3.6455 H         1 <0>         0.1345
     41 H2         -7.6757   12.0230    3.0919 H         1 <0>         0.1448
     42 H3         -7.9248   10.2806    3.3569 H         1 <0>         0.1349
     43 H4         -6.7627    8.3477    1.7643 H         1 <0>         0.1573
     44 H5         -5.1626    9.0720    2.0529 H         1 <0>         0.1564
     45 H6         -4.8352    9.3230   -0.3922 H         1 <0>         0.1496
     46 H7         -6.4354    8.5988   -0.6807 H         1 <0>         0.1509
     47 H8         -3.7904    7.5178   -1.6547 H         1 <0>         0.1492
     48 H9         -5.3906    6.7936   -1.9433 H         1 <0>         0.1621
     49 H10        -5.6609    4.1699   -1.4629 H         1 <0>         0.1659
     50 H11        -3.8645    2.1878   -1.1292 H         1 <0>         0.1672
     51 H12        -2.0502    1.1817   -0.8068 H         1 <0>         0.1429
     52 H13         0.0373   -0.0036   -0.4115 H         1 <0>         0.1546
     53 H14        -0.0537    4.9612   -0.4455 H         1 <0>         0.1311
     54 H15         4.3999    1.3401    0.3779 H         1 <0>         0.2050
     55 H16         1.6111    5.7928   -0.0582 H         1 <0>         0.4195
     56 H17         2.8691    7.5668    1.2701 H         1 <0>         0.1330
     57 H18         5.0280    8.7339    1.4483 H         1 <0>         0.1439
     58 H19         4.7246    4.4902   -1.0485 H         1 <0>         0.1514
     59 H20         6.6114    9.8566    0.6669 H         1 <0>         0.0789
     60 H21         6.9846    8.9545    2.1552 H         1 <0>         0.0774
     61 H22         8.3831   10.8540   -0.6588 H         1 <0>         0.1323
     62 H23        10.6608   11.7876   -0.6673 H         1 <0>         0.1388
     63 H24        12.2497   11.1753    1.1111 H         1 <0>         0.1403
     64 H25         9.2743    8.7004    2.9126 H         1 <0>         0.1379
     65 N4         -4.9794    7.2708    0.0688 N.4       1 <0>        -0.5165
     66 H26        -5.6793    6.6125    0.4308 H         1 <0>         0.4365
     67 H27        -4.1720    7.2947    0.7026 H         1 <0>         0.4363
@<TRIPOS>BOND
     1    1    2 1
     2    1   40 1
     3    1   41 1
     4    1   42 1
     5    2    3 2
     6    2    4 2
     7    2    5 1
     8    5    6 1
     9    5   43 1
    10    5   44 1
    11    6   45 1
    12    6   46 1
    13    6   65 1
    14    7    8 1
    15    7   47 1
    16    7   48 1
    17    7   65 1
    18    8   12 1
    19    8    9 2
    20    9   10 1
    21    9   49 1
    22   10   11 2
    23   10   50 1
    24   11   12 1
    25   11   13 1
    26   13   18 ar
    27   13   14 ar
    28   14   15 ar
    29   14   51 1
    30   15   16 ar
    31   15   52 1
    32   16   22 ar
    33   16   17 ar
    34   17   18 ar
    35   17   19 ar
    36   18   53 1
    37   19   20 ar
    38   19   23 1
    39   20   21 ar
    40   21   22 ar
    41   21   54 1
    42   23   24 1
    43   23   55 1
    44   24   29 ar
    45   24   25 ar
    46   25   26 ar
    47   25   56 1
    48   26   27 ar
    49   26   57 1
    50   27   28 ar
    51   27   31 1
    52   28   29 ar
    53   28   30 1
    54   29   58 1
    55   31   32 1
    56   32   33 1
    57   32   59 1
    58   32   60 1
    59   33   38 ar
    60   33   34 ar
    61   34   35 ar
    62   34   61 1
    63   35   36 ar
    64   35   62 1
    65   36   37 ar
    66   36   63 1
    67   37   38 ar
    68   37   39 1
    69   38   64 1
    70   65   66 1
    71   65   67 1
@<TRIPOS>MOLECULE
ZINC01546066
   52    54     0     0     0
SMALL
USER_CHARGES

@<TRIPOS>ATOM
      1 C1          1.3190    1.4185    0.8998 C.3       1 <0>         0.0308
      2 O1          1.1221    0.0121    0.7412 O.3       1 <0>        -0.3842
      3 C2          1.6336   -0.7719    1.8209 C.3       1 <0>         0.0626
      4 C3          1.3686   -2.2534    1.5456 C.3       1 <0>         0.0560
      5 O2          2.1105   -2.6643    0.3955 O.3       1 <0>        -0.2877
      6 C4          1.9861   -3.9631    0.0122 C.ar      1 <0>         0.1163
      7 C5          1.1727   -4.8014    0.7206 C.ar      1 <0>        -0.1508
      8 C6          1.0439   -6.1386    0.3269 C.ar      1 <0>        -0.1822
      9 C7          1.7562   -6.6146   -0.8018 C.ar      1 <0>         0.2018
     10 C8          2.5842   -5.7378   -1.5132 C.ar      1 <0>        -0.1867
     11 C9          2.6894   -4.4253   -1.1088 C.ar      1 <0>         0.1692
     12 O3          3.4878   -3.5711   -1.8004 O.3       1 <0>        -0.2847
     13 C10         4.1782   -4.1019   -2.9333 C.3       1 <0>         0.0544
     14 C11         5.0210   -3.0002   -3.5791 C.3       1 <0>         0.0626
     15 O4          6.0448   -2.5894   -2.6708 O.3       1 <0>        -0.3848
     16 C12         6.8933   -1.5581   -3.1792 C.3       1 <0>         0.0309
     17 N1          1.6146   -7.9009   -1.1583 N.ar      1 <0>        -0.5426
     18 C13         0.8310   -8.6986   -0.4725 C.ar      1 <0>         0.3422
     19 N2          0.1465   -8.2987    0.5874 N.ar      1 <0>        -0.5807
     20 C14         0.2146   -7.0483    1.0253 C.ar      1 <0>         0.4641
     21 N3         -0.5043   -6.6451    2.1328 N.pl3     1 <0>        -0.6417
     22 C15        -1.2223   -7.5837    2.8797 C.ar      1 <0>         0.1534
     23 C16        -2.4417   -7.2339    3.4483 C.ar      1 <0>        -0.1365
     24 C17        -3.1548   -8.1581    4.1879 C.ar      1 <0>        -0.0976
     25 C18        -2.6612   -9.4349    4.3666 C.ar      1 <0>        -0.1098
     26 C19        -1.4382   -9.7960    3.7995 C.ar      1 <0>         0.0290
     27 C20        -0.7210   -8.8652    3.0488 C.ar      1 <0>        -0.0846
     28 C21        -0.9239  -11.1197    3.9839 C.1       1 <0>        -0.1518
     29 C22        -0.5023  -12.2049    4.1351 C.1       1 <0>        -0.1689
     30 H1          2.3858    1.6300    0.9737 H         1 <0>         0.0438
     31 H2          0.9034    1.9430    0.0394 H         1 <0>         0.0882
     32 H3          0.8182    1.7554    1.8074 H         1 <0>         0.0421
     33 H4          2.7069   -0.6059    1.9138 H         1 <0>         0.0642
     34 H5          1.1392   -0.4804    2.7476 H         1 <0>         0.0738
     35 H6          1.6782   -2.8442    2.4078 H         1 <0>         0.0797
     36 H7          0.3045   -2.4047    1.3647 H         1 <0>         0.0731
     37 H8          0.6320   -4.4344    1.5804 H         1 <0>         0.1376
     38 H9          3.1329   -6.0870   -2.3754 H         1 <0>         0.1546
     39 H10         4.8282   -4.9164   -2.6138 H         1 <0>         0.0783
     40 H11         3.4545   -4.4770   -3.6569 H         1 <0>         0.0849
     41 H12         5.4773   -3.3804   -4.4931 H         1 <0>         0.0752
     42 H13         4.3841   -2.1485   -3.8181 H         1 <0>         0.0638
     43 H14         6.2953   -0.6764   -3.4098 H         1 <0>         0.0434
     44 H15         7.6433   -1.3027   -2.4306 H         1 <0>         0.0879
     45 H16         7.3884   -1.9084   -4.0848 H         1 <0>         0.0424
     46 H17         0.7401   -9.7278   -0.7869 H         1 <0>         0.1966
     47 H18        -0.5113   -5.7106    2.3927 H         1 <0>         0.4197
     48 H19        -2.8329   -6.2365    3.3119 H         1 <0>         0.1281
     49 H20        -4.1012   -7.8805    4.6278 H         1 <0>         0.1331
     50 H21        -3.2213  -10.1542    4.9456 H         1 <0>         0.1284
     51 H22         0.2239   -9.1405    2.6039 H         1 <0>         0.1386
     52 H23        -0.1252  -13.1754    4.2703 H         1 <0>         0.2249
@<TRIPOS>BOND
     1    1    2 1
     2    1   30 1
     3    1   31 1
     4    1   32 1
     5    2    3 1
     6    3    4 1
     7    3   33 1
     8    3   34 1
     9    4    5 1
    10    4   35 1
    11    4   36 1
    12    5    6 1
    13    6   11 ar
    14    6    7 ar
    15    7    8 ar
    16    7   37 1
    17    8   20 ar
    18    8    9 ar
    19    9   10 ar
    20    9   17 ar
    21   10   11 ar
    22   10   38 1
    23   11   12 1
    24   12   13 1
    25   13   14 1
    26   13   39 1
    27   13   40 1
    28   14   15 1
    29   14   41 1
    30   14   42 1
    31   15   16 1
    32   16   43 1
    33   16   44 1
    34   16   45 1
    35   17   18 ar
    36   18   19 ar
    37   18   46 1
    38   19   20 ar
    39   20   21 1
    40   21   22 1
    41   21   47 1
    42   22   27 ar
    43   22   23 ar
    44   23   24 ar
    45   23   48 1
    46   24   25 ar
    47   24   49 1
    48   25   26 ar
    49   25   50 1
    50   26   27 ar
    51   26   28 1
    52   27   51 1
    53   28   29 3
    54   29   52 1
@<TRIPOS>MOLECULE
ZINC20148984
   41    45     0     0     0
SMALL
USER_CHARGES
1-cyclopentyl-3-(1H-pyrrolo[3,2-e]pyridin-5-yl)pyrazolo[4,5-e]pyrimidin-4-amine
@<TRIPOS>ATOM
      1 C1          4.4845    4.9055    2.0125 C.2       1 <0>        -0.1900
      2 C2          5.5992    4.3307    1.5348 C.2       1 <0>         0.0669
      3 N1          5.2848    3.4893    0.5015 N.pl3     1 <0>        -0.5784
      4 H1          5.9256    2.9627   -0.0014 H         1 <0>         0.4233
      5 C3          3.9281    3.5001    0.2812 C.ar      1 <0>         0.2921
      6 C4          3.3669    4.3889    1.2195 C.ar      1 <0>        -0.1505
      7 C5          1.9890    4.6049    1.2249 C.ar      1 <0>         0.0123
      8 C6          1.2154    3.9130    0.2940 C.ar      1 <0>        -0.1086
      9 C7          1.8449    3.0477   -0.6050 C.ar      1 <0>         0.1517
     10 N2          3.1471    2.8701   -0.5872 N.ar      1 <0>        -0.4865
     11 C8         -0.2553    4.0974    0.2542 C.2       1 <0>         0.1769
     12 C9         -1.2579    3.0400    0.1283 C.ar      1 <0>        -0.3246
     13 C10        -1.2161    1.6416    0.0009 C.ar      1 <0>         0.5185
     14 N3         -2.3661    0.9828   -0.1017 N.ar      1 <0>        -0.6042
     15 C11        -3.5224    1.6223   -0.0898 C.ar      1 <0>         0.3863
     16 N4         -3.6100    2.9293    0.0228 N.ar      1 <0>        -0.5738
     17 C12        -2.5123    3.6779    0.1313 C.ar      1 <0>         0.3755
     18 N5         -2.2765    5.0144    0.2581 N.pl3     1 <0>        -0.3684
     19 N6         -0.8976    5.2388    0.3304 N.2       1 <0>        -0.2292
     20 C13        -3.3071    6.0542    0.3110 C.3       1 <0>         0.1632
     21 C14        -3.0862    7.0753   -0.8240 C.3       1 <0>        -0.1330
     22 C15        -3.4640    8.4369   -0.1879 C.3       1 <0>        -0.1220
     23 C16        -2.9184    8.3038    1.2556 C.3       1 <0>        -0.1210
     24 C17        -3.2009    6.8348    1.6328 C.3       1 <0>        -0.1322
     25 N7         -0.0104    0.9674   -0.0117 N.pl3     1 <0>        -0.8291
     26 H2          4.4234    5.6137    2.8256 H         1 <0>         0.1556
     27 H3          6.5967    4.5059    1.9100 H         1 <0>         0.1829
     28 H4          1.5348    5.2845    1.9308 H         1 <0>         0.1424
     29 H5          1.2485    2.5132   -1.3297 H         1 <0>         0.1671
     30 H6         -4.4328    1.0478   -0.1756 H         1 <0>         0.2050
     31 H7         -4.2959    5.6044    0.2215 H         1 <0>         0.1144
     32 H8         -2.0422    7.0775   -1.1374 H         1 <0>         0.0814
     33 H9         -3.7386    6.8539   -1.6687 H         1 <0>         0.0742
     34 H10        -4.5455    8.5726   -0.1810 H         1 <0>         0.0720
     35 H11        -2.9740    9.2575   -0.7119 H         1 <0>         0.0733
     36 H12        -3.4484    8.9788    1.9276 H         1 <0>         0.0704
     37 H13        -1.8473    8.5043    1.2786 H         1 <0>         0.0705
     38 H14        -4.1384    6.7646    2.1843 H         1 <0>         0.0772
     39 H15        -2.3825    6.4400    2.2349 H         1 <0>         0.0748
     40 H16         0.0305    0.0526   -0.3317 H         1 <0>         0.4120
     41 H17         0.7961    1.4102    0.2956 H         1 <0>         0.4116
@<TRIPOS>BOND
     1    1    6 1
     2    1    2 2
     3    1   26 1
     4    2    3 1
     5    2   27 1
     6    3    4 1
     7    3    5 1
     8    5   10 ar
     9    5    6 ar
    10    6    7 ar
    11    7    8 ar
    12    7   28 1
    13    8    9 ar
    14    8   11 1
    15    9   10 ar
    16    9   29 1
    17   11   19 2
    18   11   12 1
    19   12   17 ar
    20   12   13 ar
    21   13   14 ar
    22   13   25 1
    23   14   15 ar
    24   15   16 ar
    25   15   30 1
    26   16   17 ar
    27   17   18 1
    28   18   19 1
    29   18   20 1
    30   20   24 1
    31   20   21 1
    32   20   31 1
    33   21   22 1
    34   21   32 1
    35   21   33 1
    36   22   23 1
    37   22   34 1
    38   22   35 1
    39   23   24 1
    40   23   36 1
    41   23   37 1
    42   24   38 1
    43   24   39 1
    44   25   40 1
    45   25   41 1
@<TRIPOS>MOLECULE
ZINC13738756
   31    33     0     0     0
SMALL
USER_CHARGES
6-amino-2-(4-aminophenyl)chromen-4-one
@<TRIPOS>ATOM
      1 C1          3.7703   -1.9523   -0.0386 C.ar      1 <0>        -0.0238
      2 C2          4.9939   -2.5821   -0.0580 C.ar      1 <0>        -0.2044
      3 C3          6.1654   -1.8304   -0.0652 C.ar      1 <0>         0.2456
      4 C4          6.1039   -0.4398   -0.0581 C.ar      1 <0>        -0.2066
      5 C5          4.8837    0.1966   -0.0435 C.ar      1 <0>        -0.0235
      6 C6          3.7047   -0.5554   -0.0363 C.ar      1 <0>        -0.1422
      7 C7          2.3959    0.1227   -0.0201 C.2       1 <0>         0.2349
      8 C8          1.2647   -0.6366   -0.0134 C.2       1 <0>        -0.3449
      9 C9          0.0021   -0.0041    0.0020 C.2       1 <0>         0.4216
     10 O1         -1.0317   -0.6522    0.0080 O.2       1 <0>        -0.4792
     11 C10        -0.0180    1.4727    0.0101 C.ar      1 <0>        -0.1681
     12 C11        -1.2187    2.1793    0.0311 C.ar      1 <0>        -0.1174
     13 C12        -1.1956    3.5633    0.0331 C.ar      1 <0>         0.1925
     14 C13         0.0210    4.2423    0.0251 C.ar      1 <0>        -0.1362
     15 C14         1.2113    3.5485    0.0095 C.ar      1 <0>        -0.0876
     16 C15         1.2064    2.1588    0.0021 C.ar      1 <0>         0.0853
     17 O2          2.3643    1.4641   -0.0131 O.3       1 <0>        -0.2213
     18 N1         -2.3956    4.2814    0.0493 N.pl3     1 <0>        -0.8750
     19 N2          7.4011   -2.4706   -0.0790 N.pl3     1 <0>        -0.8666
     20 H1          2.8618   -2.5362   -0.0285 H         1 <0>         0.1357
     21 H2          5.0453   -3.6609   -0.0636 H         1 <0>         0.1309
     22 H3          7.0148    0.1404   -0.0636 H         1 <0>         0.1289
     23 H4          4.8367    1.2756   -0.0373 H         1 <0>         0.1346
     24 H5          1.3331   -1.7144   -0.0195 H         1 <0>         0.1574
     25 H6         -2.1606    1.6510    0.0415 H         1 <0>         0.1395
     26 H7          0.0312    5.3222    0.0315 H         1 <0>         0.1383
     27 H8          2.1486    4.0850    0.0035 H         1 <0>         0.1435
     28 H9         -2.3804    5.2513    0.0550 H         1 <0>         0.4010
     29 H10        -3.2432    3.8096    0.0549 H         1 <0>         0.4020
     30 H11         8.2182   -1.9478   -0.0837 H         1 <0>         0.4025
     31 H12         7.4452   -3.4396   -0.0840 H         1 <0>         0.4026
@<TRIPOS>BOND
     1    1    6 ar
     2    1    2 ar
     3    1   20 1
     4    2    3 ar
     5    2   21 1
     6    3    4 ar
     7    3   19 1
     8    4    5 ar
     9    4   22 1
    10    5    6 ar
    11    5   23 1
    12    6    7 1
    13    7   17 1
    14    7    8 2
    15    8    9 1
    16    8   24 1
    17    9   10 2
    18    9   11 1
    19   11   16 ar
    20   11   12 ar
    21   12   13 ar
    22   12   25 1
    23   13   14 ar
    24   13   18 1
    25   14   15 ar
    26   14   26 1
    27   15   16 ar
    28   15   27 1
    29   16   17 1
    30   18   28 1
    31   18   29 1
    32   19   30 1
    33   19   31 1
@<TRIPOS>MOLECULE
ZINC13833857
   23    23     0     0     0
SMALL
USER_CHARGES
2-[(3,4-dihydroxy-5-methyl-phenyl)methylene]propanedinitrile
@<TRIPOS>ATOM
      1 C1          1.9924    4.5362   -0.4771 C.3       1 <0>        -0.1165
      2 C2          0.7893    3.6288   -0.4573 C.ar      1 <0>        -0.0995
      3 C3          0.9516    2.2783   -0.2435 C.ar      1 <0>        -0.0721
      4 C4         -0.1665    1.4333   -0.2252 C.ar      1 <0>        -0.0946
      5 C5         -1.4466    1.9678   -0.4311 C.ar      1 <0>        -0.1076
      6 C6         -1.5986    3.3232   -0.6387 C.ar      1 <0>         0.0868
      7 C7         -0.4798    4.1572   -0.6552 C.ar      1 <0>         0.1074
      8 O1         -0.6326    5.4900   -0.8651 O.3       1 <0>        -0.4818
      9 O2         -2.8388    3.8460   -0.8335 O.3       1 <0>        -0.4824
     10 C8          0.0021   -0.0041    0.0020 C.2       1 <0>         0.0637
     11 C9         -0.9588   -0.7095    0.6915 C.2       1 <0>         0.0032
     12 C10        -2.0383   -0.0156    1.3270 C.1       1 <0>         0.2449
     13 N1         -2.8947    0.5348    1.8311 N.1       1 <0>        -0.3803
     14 C11        -0.8785   -2.1369    0.7729 C.1       1 <0>         0.2542
     15 N2         -0.8149   -3.2693    0.8376 N.1       1 <0>        -0.3850
     16 H1          2.3780    4.6061   -1.4942 H         1 <0>         0.0753
     17 H2          1.7051    5.5282   -0.1285 H         1 <0>         0.0774
     18 H3          2.7642    4.1306    0.1770 H         1 <0>         0.0741
     19 H4          1.9397    1.8704   -0.0895 H         1 <0>         0.1438
     20 H5         -2.3113    1.3208   -0.4226 H         1 <0>         0.1381
     21 H6         -0.5942    5.7485   -1.7962 H         1 <0>         0.3924
     22 H7         -3.1148    3.8690   -1.7600 H         1 <0>         0.3906
     23 H8          0.8800   -0.5105   -0.3712 H         1 <0>         0.1677
@<TRIPOS>BOND
     1    1    2 1
     2    1   16 1
     3    1   17 1
     4    1   18 1
     5    2    7 ar
     6    2    3 ar
     7    3    4 ar
     8    3   19 1
     9    4    5 ar
    10    4   10 1
    11    5    6 ar
    12    5   20 1
    13    6    7 ar
    14    6    9 1
    15    7    8 1
    16    8   21 1
    17    9   22 1
    18   10   11 2
    19   10   23 1
    20   11   12 1
    21   11   14 1
    22   12   13 3
    23   14   15 3
@<TRIPOS>MOLECULE
ZINC02568229
   40    41     0     0     0
SMALL
USER_CHARGES
2-cyano-3-[4-hydroxy-3-methoxy-5-(phenylsulfanylmethyl)phenyl]-prop-2-enamide
@<TRIPOS>ATOM
      1 C1         -2.5117    5.1458   -0.1458 C.3       1 <0>         0.0210
      2 O1         -2.3964    3.7440   -0.3978 O.3       1 <0>        -0.3022
      3 C2         -1.1409    3.2217   -0.4192 C.ar      1 <0>         0.1043
      4 C3         -0.0504    4.0390   -0.2031 C.ar      1 <0>        -0.1527
      5 C4          1.2426    3.4967   -0.2260 C.ar      1 <0>        -0.0727
      6 C5          1.4188    2.1268   -0.4684 C.ar      1 <0>        -0.0907
      7 C6          0.3242    1.3205   -0.6827 C.ar      1 <0>        -0.0668
      8 C7         -0.9559    1.8607   -0.6654 C.ar      1 <0>         0.1220
      9 O2         -2.0308    1.0606   -0.8831 O.3       1 <0>        -0.4783
     10 C8          0.5150   -0.1515   -0.9432 C.3       1 <0>        -0.0679
     11 S1          0.4912   -1.0522    0.6313 S.3       1 <0>        -0.0991
     12 C9          0.7230   -2.7350    0.1632 C.ar      1 <0>        -0.0846
     13 C10         0.8647   -3.0719   -1.1776 C.ar      1 <0>        -0.1342
     14 C11         1.0529   -4.3909   -1.5401 C.ar      1 <0>        -0.0995
     15 C12         1.0877   -5.3778   -0.5718 C.ar      1 <0>        -0.1243
     16 C13         0.9409   -5.0470    0.7631 C.ar      1 <0>        -0.1000
     17 C14         0.7590   -3.7293    1.1335 C.ar      1 <0>        -0.0998
     18 C15         2.4048    4.3579    0.0020 C.2       1 <0>         0.0702
     19 C16         3.5041    3.8683    0.6729 C.2       1 <0>        -0.1234
     20 C17         3.4506    2.5762    1.2880 C.1       1 <0>         0.2299
     21 N1          3.4082    1.5512    1.7759 N.1       1 <0>        -0.3824
     22 C18         4.7330    4.6729    0.7574 C.2       1 <0>         0.5795
     23 O3          4.7784    5.7705    0.2349 O.2       1 <0>        -0.5300
     24 N2          5.8083    4.1939    1.4137 N.am      1 <0>        -0.8458
     25 H1         -1.9775    5.6990   -0.9183 H         1 <0>         0.0602
     26 H2         -3.5635    5.4315   -0.1559 H         1 <0>         0.1061
     27 H3         -2.0819    5.3763    0.8290 H         1 <0>         0.0589
     28 H4         -0.1923    5.0933   -0.0165 H         1 <0>         0.1473
     29 H5          2.4128    1.7049   -0.4873 H         1 <0>         0.1349
     30 H6         -2.3982    0.6681   -0.0793 H         1 <0>         0.3958
     31 H7         -0.2902   -0.5148   -1.5818 H         1 <0>         0.1101
     32 H8          1.4724   -0.3117   -1.4390 H         1 <0>         0.1005
     33 H9          0.8329   -2.3024   -1.9347 H         1 <0>         0.1219
     34 H10         1.1683   -4.6529   -2.5815 H         1 <0>         0.1263
     35 H11         1.2302   -6.4092   -0.8586 H         1 <0>         0.1260
     36 H12         0.9689   -5.8201    1.5166 H         1 <0>         0.1288
     37 H13         0.6444   -3.4717    2.1761 H         1 <0>         0.1273
     38 H14         2.4002    5.3770   -0.3557 H         1 <0>         0.1694
     39 H15         5.7721    3.3187    1.8303 H         1 <0>         0.4025
     40 H16         6.6185    4.7244    1.4694 H         1 <0>         0.4115
@<TRIPOS>BOND
     1    1    2 1
     2    1   25 1
     3    1   26 1
     4    1   27 1
     5    2    3 1
     6    3    8 ar
     7    3    4 ar
     8    4    5 ar
     9    4   28 1
    10    5    6 ar
    11    5   18 1
    12    6    7 ar
    13    6   29 1
    14    7    8 ar
    15    7   10 1
    16    8    9 1
    17    9   30 1
    18   10   11 1
    19   10   31 1
    20   10   32 1
    21   11   12 1
    22   12   17 ar
    23   12   13 ar
    24   13   14 ar
    25   13   33 1
    26   14   15 ar
    27   14   34 1
    28   15   16 ar
    29   15   35 1
    30   16   17 ar
    31   16   36 1
    32   17   37 1
    33   18   19 2
    34   18   38 1
    35   19   20 1
    36   19   22 1
    37   20   21 3
    38   22   23 2
    39   22   24 am
    40   24   39 1
    41   24   40 1
@<TRIPOS>MOLECULE
ZINC08037896
   35    37     0     0     0
SMALL
USER_CHARGES

@<TRIPOS>ATOM
      1 C1         -0.0173    1.4248    0.0099 C.3       1 <0>         0.0254
      2 O1          0.0021   -0.0041    0.0020 O.3       1 <0>        -0.3159
      3 C2          0.6258   -0.6184    1.0415 C.ar      1 <0>         0.1391
      4 C3          1.2022    0.1384    2.0513 C.ar      1 <0>        -0.2110
      5 C4          1.8353   -0.4884    3.1070 C.ar      1 <0>        -0.0566
      6 C5          1.8951   -1.8688    3.1577 C.ar      1 <0>        -0.1555
      7 C6          1.3218   -2.6253    2.1523 C.ar      1 <0>        -0.0575
      8 C7          0.6822   -2.0034    1.0976 C.ar      1 <0>        -0.1541
      9 C8          2.5867   -2.5500    4.3104 C.3       1 <0>         0.1746
     10 N1          1.6200   -2.7967    5.3831 N.pl3     1 <0>        -0.6926
     11 C9          2.0248   -3.4140    6.5472 C.ar      1 <0>         0.4741
     12 C10         1.1052   -3.6672    7.5944 C.ar      1 <0>        -0.1989
     13 C11        -0.2443   -3.3090    7.5025 C.ar      1 <0>        -0.0704
     14 C12        -1.0833   -3.5788    8.5434 C.ar      1 <0>        -0.1348
     15 C13        -0.6150   -4.2047    9.6952 C.ar      1 <0>        -0.0744
     16 C14         0.6938   -4.5662    9.8157 C.ar      1 <0>        -0.1109
     17 C15         1.5835   -4.3045    8.7650 C.ar      1 <0>         0.1876
     18 N2          2.8806   -4.6398    8.8320 N.ar      1 <0>        -0.5563
     19 C16         3.6872   -4.3806    7.8306 C.ar      1 <0>         0.3497
     20 N3          3.2848   -3.7921    6.7153 N.ar      1 <0>        -0.5984
     21 H1          1.0053    1.8021    0.0021 H         1 <0>         0.0576
     22 H2         -0.5445    1.7859   -0.8732 H         1 <0>         0.1030
     23 H3         -0.5275    1.7763    0.9067 H         1 <0>         0.0571
     24 H4          1.1564    1.2167    2.0118 H         1 <0>         0.1313
     25 H5          2.2842    0.1003    3.8934 H         1 <0>         0.1276
     26 H6          1.3701   -3.7035    2.1940 H         1 <0>         0.1323
     27 H7          0.2307   -2.5948    0.3148 H         1 <0>         0.1343
     28 H8          3.0056   -3.4983    3.9736 H         1 <0>         0.0808
     29 H9          3.3874   -1.9109    4.6827 H         1 <0>         0.0800
     30 H10         0.6950   -2.5256    5.2742 H         1 <0>         0.4118
     31 H11        -0.6187   -2.8223    6.6140 H         1 <0>         0.1241
     32 H12        -2.1251   -3.3026    8.4732 H         1 <0>         0.1298
     33 H13        -1.2992   -4.4068   10.5060 H         1 <0>         0.1331
     34 H14         1.0431   -5.0509   10.7155 H         1 <0>         0.1396
     35 H15         4.7256   -4.6643    7.9182 H         1 <0>         0.1944
@<TRIPOS>BOND
     1    1    2 1
     2    1   21 1
     3    1   22 1
     4    1   23 1
     5    2    3 1
     6    3    8 ar
     7    3    4 ar
     8    4    5 ar
     9    4   24 1
    10    5    6 ar
    11    5   25 1
    12    6    7 ar
    13    6    9 1
    14    7    8 ar
    15    7   26 1
    16    8   27 1
    17    9   10 1
    18    9   28 1
    19    9   29 1
    20   10   11 1
    21   10   30 1
    22   11   20 ar
    23   11   12 ar
    24   12   17 ar
    25   12   13 ar
    26   13   14 ar
    27   13   31 1
    28   14   15 ar
    29   14   32 1
    30   15   16 ar
    31   15   33 1
    32   16   17 ar
    33   16   34 1
    34   17   18 ar
    35   18   19 ar
    36   19   20 ar
    37   19   35 1
@<TRIPOS>MOLECULE
ZINC53293729
   43    45     0     0     0
SMALL
USER_CHARGES

@<TRIPOS>ATOM
      1 C1         -0.0184    1.5028    0.0103 C.3       1 <0>        -0.0831
      2 C2          0.0021   -0.0041    0.0020 C.2       1 <0>         0.2863
      3 N1          0.0080   -0.7588   -1.0626 N.2       1 <0>        -0.4762
      4 C3          0.0278   -2.0475   -0.6911 C.2       1 <0>         0.1147
      5 C4          0.0345   -2.0930    0.6548 C.2       1 <0>        -0.0115
      6 N2          0.0232   -0.7970    1.0950 N.pl3     1 <0>        -0.4345
      7 C5          0.0296   -0.3529    2.4911 C.3       1 <0>         0.0912
      8 C6         -1.4104   -0.2188    2.9902 C.3       1 <0>         0.0589
      9 O1         -1.4042    0.2143    4.3519 O.3       1 <0>        -0.3430
     10 C7         -2.6036    0.3830    4.9467 C.2       1 <0>         0.5087
     11 O2         -3.6266    0.1678    4.3245 O.2       1 <0>        -0.5098
     12 C8         -2.6716    0.8110    6.2965 C.2       1 <0>        -0.2160
     13 C9         -3.8738    0.9801    6.8925 C.2       1 <0>         0.0236
     14 C10        -3.9441    1.4230    8.2892 C.ar      1 <0>        -0.0860
     15 C11        -2.7829    1.6792    9.0135 C.ar      1 <0>        -0.0730
     16 C12        -2.8538    2.0979   10.3339 C.ar      1 <0>        -0.1281
     17 C13        -4.0454    2.2742   10.9694 C.ar      1 <0>        -0.0770
     18 C14        -5.2578    2.0350   10.3006 C.ar      1 <0>        -0.0599
     19 C15        -5.2360    1.6109    8.9495 C.ar      1 <0>        -0.0258
     20 C16        -6.4412    1.3764    8.2784 C.ar      1 <0>        -0.1163
     21 C17        -7.6236    1.5638    8.9312 C.ar      1 <0>        -0.1021
     22 C18        -7.6490    1.9863   10.2580 C.ar      1 <0>        -0.1178
     23 C19        -6.4947    2.2124   10.9442 C.ar      1 <0>        -0.0989
     24 N3          0.0554   -3.3107    1.4964 N.pl3     1 <0>         0.0718
     25 O3          0.0690   -4.4031    0.9788 O.2       1 <0>        -0.1262
     26 O4          0.0589   -3.2126    2.7014 O.3       1 <0>        -0.1682
     27 H1          1.0042    1.8801    0.0026 H         1 <0>         0.1006
     28 H2         -0.5455    1.8639   -0.8728 H         1 <0>         0.1090
     29 H3         -0.5286    1.8543    0.9071 H         1 <0>         0.0857
     30 H4          0.0365   -2.8993   -1.3550 H         1 <0>         0.2046
     31 H5          0.5594   -1.0836    3.1023 H         1 <0>         0.1267
     32 H6          0.5305    0.6125    2.5630 H         1 <0>         0.1204
     33 H7         -1.9402    0.5119    2.3790 H         1 <0>         0.0772
     34 H8         -1.9113   -1.1842    2.9182 H         1 <0>         0.0765
     35 H9         -1.7634    1.0021    6.8488 H         1 <0>         0.1450
     36 H10        -4.7820    0.7890    6.3402 H         1 <0>         0.1410
     37 H11        -1.8192    1.5506    8.5434 H         1 <0>         0.1342
     38 H12        -1.9381    2.2891   10.8736 H         1 <0>         0.1302
     39 H13        -4.0587    2.6011   11.9986 H         1 <0>         0.1314
     40 H14        -6.4350    1.0492    7.2492 H         1 <0>         0.1298
     41 H15        -8.5531    1.3825    8.4121 H         1 <0>         0.1277
     42 H16        -8.5984    2.1279   10.7530 H         1 <0>         0.1271
     43 H17        -6.5297    2.5390   11.9730 H         1 <0>         0.1312
@<TRIPOS>BOND
     1    1    2 1
     2    1   27 1
     3    1   28 1
     4    1   29 1
     5    2    6 1
     6    2    3 2
     7    3    4 1
     8    4    5 2
     9    4   30 1
    10    5    6 1
    11    5   24 1
    12    6    7 1
    13    7    8 1
    14    7   31 1
    15    7   32 1
    16    8    9 1
    17    8   33 1
    18    8   34 1
    19    9   10 1
    20   10   11 2
    21   10   12 1
    22   12   13 2
    23   12   35 1
    24   13   14 1
    25   13   36 1
    26   14   19 ar
    27   14   15 ar
    28   15   16 ar
    29   15   37 1
    30   16   17 ar
    31   16   38 1
    32   17   18 ar
    33   17   39 1
    34   18   23 ar
    35   18   19 ar
    36   19   20 ar
    37   20   21 ar
    38   20   40 1
    39   21   22 ar
    40   21   41 1
    41   22   23 ar
    42   22   42 1
    43   23   43 1
    44   24   25 2
    45   24   26 1
@<TRIPOS>MOLECULE
ZINC53296444
   37    38     0     0     0
SMALL
USER_CHARGES

@<TRIPOS>ATOM
      1 C1         -0.0184    1.5028    0.0103 C.3       1 <0>        -0.0831
      2 C2          0.0021   -0.0041    0.0020 C.2       1 <0>         0.2865
      3 N1          0.0080   -0.7588   -1.0626 N.2       1 <0>        -0.4760
      4 C3          0.0278   -2.0475   -0.6911 C.2       1 <0>         0.1150
      5 C4          0.0345   -2.0930    0.6548 C.2       1 <0>        -0.0117
      6 N2          0.0232   -0.7970    1.0950 N.pl3     1 <0>        -0.4348
      7 C5          0.0296   -0.3529    2.4911 C.3       1 <0>         0.0913
      8 C6         -1.4104   -0.2188    2.9902 C.3       1 <0>         0.0584
      9 O1         -1.4042    0.2143    4.3519 O.3       1 <0>        -0.3411
     10 C7         -2.6035    0.3830    4.9466 C.2       1 <0>         0.5035
     11 O2         -3.6263    0.1678    4.3245 O.2       1 <0>        -0.5052
     12 C8         -2.6736    0.8242    6.3380 C.2       1 <0>        -0.1986
     13 C9         -3.8736    0.9930    6.9330 C.2       1 <0>         0.0079
     14 C10        -3.9441    1.4370    8.3333 C.ar      1 <0>        -0.0987
     15 C11        -2.7695    1.6909    9.0499 C.ar      1 <0>        -0.0652
     16 C12        -2.8426    2.1066   10.3615 C.ar      1 <0>        -0.1564
     17 C13        -4.0770    2.2735   10.9715 C.ar      1 <0>         0.1188
     18 C14        -5.2451    2.0231   10.2670 C.ar      1 <0>        -0.1571
     19 C15        -5.1862    1.6129    8.9530 C.ar      1 <0>        -0.0575
     20 F1         -4.1418    2.6813   12.2578 F         1 <0>        -0.1332
     21 N3          0.0554   -3.3107    1.4964 N.pl3     1 <0>         0.0718
     22 O3          0.0690   -4.4031    0.9788 O.2       1 <0>        -0.1258
     23 O4          0.0589   -3.2126    2.7014 O.3       1 <0>        -0.1684
     24 H1          1.0042    1.8801    0.0026 H         1 <0>         0.1007
     25 H2         -0.5455    1.8639   -0.8728 H         1 <0>         0.1091
     26 H3         -0.5286    1.8543    0.9071 H         1 <0>         0.0856
     27 H4          0.0365   -2.8993   -1.3550 H         1 <0>         0.2048
     28 H5          0.5594   -1.0836    3.1023 H         1 <0>         0.1269
     29 H6          0.5305    0.6125    2.5630 H         1 <0>         0.1206
     30 H7         -1.9402    0.5119    2.3790 H         1 <0>         0.0778
     31 H8         -1.9113   -1.1842    2.9182 H         1 <0>         0.0770
     32 H9         -1.7653    1.0153    6.8903 H         1 <0>         0.1461
     33 H10        -4.7818    0.8019    6.3807 H         1 <0>         0.1422
     34 H11        -1.8077    1.5611    8.5762 H         1 <0>         0.1416
     35 H12        -1.9368    2.3026   10.9159 H         1 <0>         0.1427
     36 H13        -6.2031    2.1542   10.7481 H         1 <0>         0.1429
     37 H14        -6.0967    1.4232    8.4039 H         1 <0>         0.1418
@<TRIPOS>BOND
     1    1    2 1
     2    1   24 1
     3    1   25 1
     4    1   26 1
     5    2    6 1
     6    2    3 2
     7    3    4 1
     8    4    5 2
     9    4   27 1
    10    5    6 1
    11    5   21 1
    12    6    7 1
    13    7    8 1
    14    7   28 1
    15    7   29 1
    16    8    9 1
    17    8   30 1
    18    8   31 1
    19    9   10 1
    20   10   11 2
    21   10   12 1
    22   12   13 2
    23   12   32 1
    24   13   14 1
    25   13   33 1
    26   14   19 ar
    27   14   15 ar
    28   15   16 ar
    29   15   34 1
    30   16   17 ar
    31   16   35 1
    32   17   18 ar
    33   17   20 1
    34   18   19 ar
    35   18   36 1
    36   19   37 1
    37   21   22 2
    38   21   23 1
@<TRIPOS>MOLECULE
ZINC53230062
   37    38     0     0     0
SMALL
USER_CHARGES

@<TRIPOS>ATOM
      1 C1         -0.0184    1.5028    0.0103 C.3       1 <0>        -0.0831
      2 C2          0.0021   -0.0041    0.0020 C.2       1 <0>         0.2865
      3 N1          0.0080   -0.7588   -1.0626 N.2       1 <0>        -0.4760
      4 C3          0.0278   -2.0475   -0.6911 C.2       1 <0>         0.1151
      5 C4          0.0345   -2.0930    0.6548 C.2       1 <0>        -0.0117
      6 N2          0.0232   -0.7970    1.0950 N.pl3     1 <0>        -0.4349
      7 C5          0.0296   -0.3529    2.4911 C.3       1 <0>         0.0913
      8 C6         -1.4104   -0.2188    2.9902 C.3       1 <0>         0.0583
      9 O1         -1.4042    0.2143    4.3519 O.3       1 <0>        -0.3407
     10 C7         -2.6034    0.3830    4.9465 C.2       1 <0>         0.5033
     11 O2         -3.6262    0.1678    4.3245 O.2       1 <0>        -0.5044
     12 C8         -2.6735    0.8243    6.3384 C.2       1 <0>        -0.1946
     13 C9         -3.8732    0.9930    6.9332 C.2       1 <0>         0.0043
     14 C10        -3.9437    1.4372    8.3340 C.ar      1 <0>        -0.0823
     15 C11        -2.7696    1.6913    9.0507 C.ar      1 <0>        -0.0828
     16 C12        -2.8433    2.1076   10.3626 C.ar      1 <0>        -0.1128
     17 C13        -4.0766    2.2746   10.9716 C.ar      1 <0>        -0.0191
     18 C14        -5.2437    2.0244   10.2680 C.ar      1 <0>        -0.1135
     19 C15        -5.1854    1.6131    8.9538 C.ar      1 <0>        -0.0751
     20 Cl1        -4.1599    2.7993   12.6243 Cl        1 <0>        -0.0599
     21 N3          0.0554   -3.3107    1.4964 N.pl3     1 <0>         0.0718
     22 O3          0.0690   -4.4031    0.9788 O.2       1 <0>        -0.1257
     23 O4          0.0589   -3.2126    2.7014 O.3       1 <0>        -0.1685
     24 H1          1.0042    1.8801    0.0026 H         1 <0>         0.1007
     25 H2         -0.5455    1.8639   -0.8728 H         1 <0>         0.1091
     26 H3         -0.5286    1.8543    0.9071 H         1 <0>         0.0855
     27 H4          0.0365   -2.8993   -1.3550 H         1 <0>         0.2048
     28 H5          0.5594   -1.0836    3.1023 H         1 <0>         0.1269
     29 H6          0.5305    0.6125    2.5630 H         1 <0>         0.1207
     30 H7         -1.9402    0.5119    2.3790 H         1 <0>         0.0779
     31 H8         -1.9113   -1.1842    2.9182 H         1 <0>         0.0771
     32 H9         -1.7653    1.0154    6.8907 H         1 <0>         0.1466
     33 H10        -4.7814    0.8019    6.3809 H         1 <0>         0.1425
     34 H11        -1.8076    1.5611    8.5774 H         1 <0>         0.1407
     35 H12        -1.9377    2.3037   10.9172 H         1 <0>         0.1405
     36 H13        -6.2016    2.1564   10.7492 H         1 <0>         0.1407
     37 H14        -6.0961    1.4231    8.4051 H         1 <0>         0.1409
@<TRIPOS>BOND
     1    1    2 1
     2    1   24 1
     3    1   25 1
     4    1   26 1
     5    2    6 1
     6    2    3 2
     7    3    4 1
     8    4    5 2
     9    4   27 1
    10    5    6 1
    11    5   21 1
    12    6    7 1
    13    7    8 1
    14    7   28 1
    15    7   29 1
    16    8    9 1
    17    8   30 1
    18    8   31 1
    19    9   10 1
    20   10   11 2
    21   10   12 1
    22   12   13 2
    23   12   32 1
    24   13   14 1
    25   13   33 1
    26   14   19 ar
    27   14   15 ar
    28   15   16 ar
    29   15   34 1
    30   16   17 ar
    31   16   35 1
    32   17   18 ar
    33   17   20 1
    34   18   19 ar
    35   18   36 1
    36   19   37 1
    37   21   22 2
    38   21   23 1
@<TRIPOS>MOLECULE
ZINC39085787
   37    38     0     0     0
SMALL
USER_CHARGES

@<TRIPOS>ATOM
      1 C1         -0.0184    1.5028    0.0103 C.3       1 <0>        -0.0831
      2 C2          0.0021   -0.0041    0.0020 C.2       1 <0>         0.2864
      3 N1          0.0080   -0.7588   -1.0626 N.2       1 <0>        -0.4761
      4 C3          0.0278   -2.0475   -0.6911 C.2       1 <0>         0.1148
      5 C4          0.0345   -2.0930    0.6548 C.2       1 <0>        -0.0116
      6 N2          0.0232   -0.7970    1.0950 N.pl3     1 <0>        -0.4346
      7 C5          0.0296   -0.3529    2.4911 C.3       1 <0>         0.0913
      8 C6         -1.4104   -0.2188    2.9902 C.3       1 <0>         0.0583
      9 O1         -1.4042    0.2143    4.3519 O.3       1 <0>        -0.3413
     10 C7         -2.6034    0.3830    4.9465 C.2       1 <0>         0.5038
     11 O2         -3.6261    0.1678    4.3245 O.2       1 <0>        -0.5064
     12 C8         -2.6735    0.8245    6.3388 C.2       1 <0>        -0.2017
     13 C9         -3.8728    0.9931    6.9335 C.2       1 <0>         0.0084
     14 C10        -3.9434    1.4375    8.3347 C.ar      1 <0>        -0.0891
     15 C11        -2.7696    1.6915    9.0515 C.ar      1 <0>        -0.0945
     16 C12        -2.8441    2.1080   10.3639 C.ar      1 <0>        -0.1232
     17 C13        -4.0762    2.2743   10.9721 C.ar      1 <0>        -0.1001
     18 C14        -5.2423    2.0249   10.2694 C.ar      1 <0>        -0.1237
     19 C15        -5.1846    1.6134    8.9546 C.ar      1 <0>        -0.0878
     20 N3          0.0554   -3.3107    1.4964 N.pl3     1 <0>         0.0718
     21 O3          0.0690   -4.4031    0.9788 O.2       1 <0>        -0.1259
     22 O4          0.0589   -3.2126    2.7014 O.3       1 <0>        -0.1684
     23 H1          1.0042    1.8801    0.0026 H         1 <0>         0.1007
     24 H2         -0.5455    1.8639   -0.8728 H         1 <0>         0.1091
     25 H3         -0.5286    1.8543    0.9071 H         1 <0>         0.0856
     26 H4          0.0365   -2.8993   -1.3550 H         1 <0>         0.2048
     27 H5          0.5594   -1.0836    3.1023 H         1 <0>         0.1269
     28 H6          0.5305    0.6125    2.5630 H         1 <0>         0.1206
     29 H7         -1.9402    0.5119    2.3790 H         1 <0>         0.0775
     30 H8         -1.9113   -1.1842    2.9182 H         1 <0>         0.0767
     31 H9         -1.7653    1.0156    6.8912 H         1 <0>         0.1456
     32 H10        -4.7810    0.8020    6.3812 H         1 <0>         0.1396
     33 H11        -1.8075    1.5615    8.5785 H         1 <0>         0.1305
     34 H12        -1.9386    2.3046   10.9187 H         1 <0>         0.1289
     35 H13        -4.1280    2.6001   12.0005 H         1 <0>         0.1272
     36 H14        -6.1999    2.1566   10.7510 H         1 <0>         0.1291
     37 H15        -6.0954    1.4235    8.4063 H         1 <0>         0.1301
@<TRIPOS>BOND
     1    1    2 1
     2    1   23 1
     3    1   24 1
     4    1   25 1
     5    2    6 1
     6    2    3 2
     7    3    4 1
     8    4    5 2
     9    4   26 1
    10    5    6 1
    11    5   20 1
    12    6    7 1
    13    7    8 1
    14    7   27 1
    15    7   28 1
    16    8    9 1
    17    8   29 1
    18    8   30 1
    19    9   10 1
    20   10   11 2
    21   10   12 1
    22   12   13 2
    23   12   31 1
    24   13   14 1
    25   13   32 1
    26   14   19 ar
    27   14   15 ar
    28   15   16 ar
    29   15   33 1
    30   16   17 ar
    31   16   34 1
    32   17   18 ar
    33   17   35 1
    34   18   19 ar
    35   18   36 1
    36   19   37 1
    37   20   21 2
    38   20   22 1
@<TRIPOS>MOLECULE
ZINC53312872
   40    41     0     0     0
SMALL
USER_CHARGES

@<TRIPOS>ATOM
      1 C1         -0.0184    1.5028    0.0103 C.3       1 <0>        -0.1217
      2 C2          0.0021   -0.0041    0.0020 C.ar      1 <0>        -0.0644
      3 C3          0.0056   -0.6858   -1.2025 C.ar      1 <0>        -0.1258
      4 C4          0.0238   -2.0645   -1.2184 C.ar      1 <0>        -0.0823
      5 C5          0.0392   -2.7739   -0.0132 C.ar      1 <0>        -0.0961
      6 C6          0.0359   -2.0776    1.1997 C.ar      1 <0>        -0.0888
      7 C7          0.0229   -0.6988    1.1989 C.ar      1 <0>        -0.1252
      8 C8          0.0582   -4.2455   -0.0213 C.2       1 <0>         0.0106
      9 C9          0.0729   -4.9263    1.1433 C.2       1 <0>        -0.2042
     10 C10         0.0918   -6.3886    1.1353 C.2       1 <0>         0.5040
     11 O1          0.0942   -6.9909    0.0787 O.2       1 <0>        -0.5071
     12 O2          0.1065   -7.0694    2.2999 O.3       1 <0>        -0.3414
     13 C11         0.1246   -8.4959    2.2172 C.3       1 <0>         0.0590
     14 C12         0.1394   -9.0883    3.6278 C.3       1 <0>         0.0911
     15 N1          0.1579  -10.5507    3.5431 N.pl3     1 <0>        -0.4344
     16 C13        -0.9189  -11.3644    3.4969 C.2       1 <0>         0.2862
     17 N2         -0.5065  -12.6004    3.4249 N.2       1 <0>        -0.4763
     18 C14         0.8346  -12.6199    3.4227 C.2       1 <0>         0.1150
     19 C15         1.2698  -11.3473    3.4900 C.2       1 <0>        -0.0118
     20 N3          2.6798  -10.8966    3.5067 N.pl3     1 <0>         0.0718
     21 O3          2.9366   -9.7170    3.5729 O.2       1 <0>        -0.1683
     22 O4          3.5745  -11.7080    3.4542 O.3       1 <0>        -0.1260
     23 C16        -2.3583  -10.9188    3.5239 C.3       1 <0>        -0.0831
     24 H1          1.0042    1.8801    0.0026 H         1 <0>         0.0756
     25 H2         -0.5455    1.8639   -0.8728 H         1 <0>         0.0700
     26 H3         -0.5286    1.8543    0.9071 H         1 <0>         0.0700
     27 H4         -0.0062   -0.1366   -2.1323 H         1 <0>         0.1287
     28 H5          0.0259   -2.5951   -2.1591 H         1 <0>         0.1303
     29 H6          0.0474   -2.6184    2.1345 H         1 <0>         0.1307
     30 H7          0.0248   -0.1596    2.1347 H         1 <0>         0.1285
     31 H8          0.0603   -4.7803   -0.9596 H         1 <0>         0.1390
     32 H9          0.0708   -4.3915    2.0816 H         1 <0>         0.1451
     33 H10        -0.7638   -8.8404    1.6878 H         1 <0>         0.0776
     34 H11         1.0160   -8.8174    1.6787 H         1 <0>         0.0763
     35 H12         1.0278   -8.7438    4.1572 H         1 <0>         0.1268
     36 H13        -0.7520   -8.7668    4.1663 H         1 <0>         0.1204
     37 H14         1.4564  -13.5014    3.3711 H         1 <0>         0.2048
     38 H15        -2.7062  -10.7520    2.5045 H         1 <0>         0.0988
     39 H16        -2.9685  -11.6897    3.9945 H         1 <0>         0.1089
     40 H17        -2.4412   -9.9924    4.0923 H         1 <0>         0.0877
@<TRIPOS>BOND
     1    1    2 1
     2    1   24 1
     3    1   25 1
     4    1   26 1
     5    2    7 ar
     6    2    3 ar
     7    3    4 ar
     8    3   27 1
     9    4    5 ar
    10    4   28 1
    11    5    6 ar
    12    5    8 1
    13    6    7 ar
    14    6   29 1
    15    7   30 1
    16    8    9 2
    17    8   31 1
    18    9   10 1
    19    9   32 1
    20   10   11 2
    21   10   12 1
    22   12   13 1
    23   13   14 1
    24   13   33 1
    25   13   34 1
    26   14   15 1
    27   14   35 1
    28   14   36 1
    29   15   19 1
    30   15   16 1
    31   16   17 2
    32   16   23 1
    33   17   18 1
    34   18   19 2
    35   18   37 1
    36   19   20 1
    37   20   21 2
    38   20   22 1
    39   23   38 1
    40   23   39 1
    41   23   40 1
@<TRIPOS>MOLECULE
ZINC03976838
   60    63     0     0     0
SMALL
USER_CHARGES

@<TRIPOS>ATOM
      1 C1         -1.9632    0.5811   -0.8871 C.3       1 <0>        -0.0541
      2 N1         -1.2418   -0.6813   -0.6777 N.4       1 <0>        -0.3862
      3 C2         -0.5135   -1.0381   -1.9025 C.3       1 <0>        -0.0483
      4 C3         -0.2896   -0.5233    0.4297 C.3       1 <0>         0.0253
      5 C4         -1.0449   -0.2786    1.7106 C.2       1 <0>        -0.1480
      6 C5         -0.8380   -1.0627    2.7650 C.2       1 <0>        -0.1269
      7 C6         -1.5751   -0.8238    4.0150 C.2       1 <0>         0.5354
      8 O1         -2.3740    0.0907    4.0846 O.2       1 <0>        -0.5170
      9 N2         -1.3654   -1.6183    5.0833 N.am      1 <0>        -0.6423
     10 C7         -1.9724   -1.3183    6.3085 C.ar      1 <0>         0.1042
     11 C8         -2.3372   -0.0200    6.5905 C.ar      1 <0>        -0.0446
     12 C9         -2.9443    0.2759    7.8163 C.ar      1 <0>        -0.2030
     13 C10        -3.1793   -0.7577    8.7569 C.ar      1 <0>         0.2217
     14 C11        -2.8007   -2.0703    8.4501 C.ar      1 <0>        -0.1923
     15 C12        -2.2096   -2.3436    7.2372 C.ar      1 <0>         0.1598
     16 O2         -1.8472   -3.6181    6.9382 O.3       1 <0>        -0.2978
     17 C13        -2.2209   -4.6345    7.8706 C.3       1 <0>         0.0451
     18 H1         -3.0942   -4.3281    8.4464 H         1 <0>         0.1041
     19 C14        -2.4828   -5.9819    7.1439 C.3       1 <0>        -0.1516
     20 C15        -2.1433   -6.9930    8.2678 C.3       1 <0>         0.0499
     21 O3         -1.0381   -6.4095    8.9760 O.3       1 <0>        -0.3716
     22 C16        -1.0420   -4.9840    8.8042 C.3       1 <0>         0.0341
     23 N3         -3.7636   -0.4455    9.9245 N.ar      1 <0>        -0.5454
     24 C17        -4.1086    0.7928   10.1858 C.ar      1 <0>         0.3609
     25 N4         -3.9094    1.7898    9.3385 N.ar      1 <0>        -0.5826
     26 C18        -3.3394    1.5917    8.1570 C.ar      1 <0>         0.4746
     27 N5         -3.1368    2.6409    7.2833 N.pl3     1 <0>        -0.6348
     28 C19        -3.4314    3.9493    7.6812 C.ar      1 <0>         0.1502
     29 C20        -3.9344    4.8596    6.7605 C.ar      1 <0>        -0.1114
     30 C21        -4.2251    6.1508    7.1549 C.ar      1 <0>        -0.1205
     31 C22        -4.0152    6.5390    8.4673 C.ar      1 <0>         0.0995
     32 C23        -3.5130    5.6332    9.3878 C.ar      1 <0>        -0.0547
     33 C24        -3.2266    4.3381    8.9983 C.ar      1 <0>        -0.0740
     34 Cl1        -3.2497    6.1230   11.0323 Cl        1 <0>        -0.0359
     35 F1         -4.2999    7.8028    8.8508 F         1 <0>        -0.1227
     36 H2         -1.2516    1.3703   -1.1296 H         1 <0>         0.1249
     37 H3         -2.6697    0.4638   -1.7088 H         1 <0>         0.1268
     38 H4         -2.5036    0.8458    0.0218 H         1 <0>         0.1250
     39 H5          0.1981   -0.2489   -2.1450 H         1 <0>         0.1242
     40 H6          0.0218   -1.9749   -1.7471 H         1 <0>         0.1248
     41 H7         -1.2200   -1.1554   -2.7242 H         1 <0>         0.1272
     42 H8          0.3075   -1.4299    0.5276 H         1 <0>         0.1385
     43 H9          0.3661    0.3235    0.2271 H         1 <0>         0.1462
     44 H10        -1.7543    0.5335    1.7725 H         1 <0>         0.1537
     45 H11        -0.1287   -1.8747    2.7031 H         1 <0>         0.1460
     46 H12        -0.7939   -2.3979    5.0032 H         1 <0>         0.4221
     47 H13        -2.1557    0.7642    5.8705 H         1 <0>         0.1571
     48 H14        -2.9753   -2.8653    9.1599 H         1 <0>         0.1559
     49 H15        -3.5261   -6.0680    6.8400 H         1 <0>         0.0956
     50 H16        -1.8157   -6.1042    6.2907 H         1 <0>         0.0928
     51 H17        -2.9964   -7.1180    8.9347 H         1 <0>         0.0709
     52 H18        -1.8537   -7.9523    7.8389 H         1 <0>         0.0979
     53 H19        -0.1038   -4.6642    8.3507 H         1 <0>         0.0839
     54 H20        -1.1750   -4.4919    9.7677 H         1 <0>         0.0824
     55 H21        -4.5766    1.0084   11.1350 H         1 <0>         0.2031
     56 H22        -2.7903    2.4709    6.3934 H         1 <0>         0.4241
     57 H23        -4.0978    4.5578    5.7364 H         1 <0>         0.1411
     58 H24        -4.6163    6.8585    6.4390 H         1 <0>         0.1517
     59 H25        -2.8398    3.6306    9.7168 H         1 <0>         0.1561
     60 H26        -1.9005   -1.4119   -0.4532 H         1 <0>         0.4291
@<TRIPOS>BOND
     1    1    2 1
     2    1   36 1
     3    1   37 1
     4    1   38 1
     5    2    3 1
     6    2    4 1
     7    2   60 1
     8    3   39 1
     9    3   40 1
    10    3   41 1
    11    4    5 1
    12    4   42 1
    13    4   43 1
    14    5    6 2
    15    5   44 1
    16    6    7 1
    17    6   45 1
    18    7    8 2
    19    7    9 am
    20    9   10 1
    21    9   46 1
    22   10   15 ar
    23   10   11 ar
    24   11   12 ar
    25   11   47 1
    26   12   26 ar
    27   12   13 ar
    28   13   14 ar
    29   13   23 ar
    30   14   15 ar
    31   14   48 1
    32   15   16 1
    33   16   17 1
    34   17   18 1
    35   17   22 1
    36   17   19 1
    37   19   20 1
    38   19   49 1
    39   19   50 1
    40   20   21 1
    41   20   51 1
    42   20   52 1
    43   21   22 1
    44   22   53 1
    45   22   54 1
    46   23   24 ar
    47   24   25 ar
    48   24   55 1
    49   25   26 ar
    50   26   27 1
    51   27   28 1
    52   27   56 1
    53   28   33 ar
    54   28   29 ar
    55   29   30 ar
    56   29   57 1
    57   30   31 ar
    58   30   58 1
    59   31   32 ar
    60   31   35 1
    61   32   33 ar
    62   32   34 1
    63   33   59 1
@<TRIPOS>MOLECULE
ZINC03976838
   59    62     0     0     0
SMALL
USER_CHARGES

@<TRIPOS>ATOM
      1 C1          1.8571    0.6514   -1.0957 C.3       1 <0>         0.0159
      2 N1          1.2921   -0.6268   -0.6430 N.3       1 <0>        -0.5438
      3 C2          1.9320   -1.0740    0.6014 C.3       1 <0>         0.0224
      4 C3         -0.1647   -0.5303   -0.4806 C.3       1 <0>         0.0693
      5 C4         -0.8068   -0.3111   -1.8262 C.2       1 <0>        -0.0384
      6 C5         -1.7604   -1.1357   -2.2504 C.2       1 <0>        -0.2153
      7 C6         -2.3869   -0.9218   -3.5636 C.2       1 <0>         0.5517
      8 O1         -2.0332    0.0093   -4.2618 O.2       1 <0>        -0.5302
      9 N2         -3.3531   -1.7573   -3.9934 N.am      1 <0>        -0.6558
     10 C7         -4.0351   -1.4847   -5.1851 C.ar      1 <0>         0.1223
     11 C8         -4.1172   -0.1882   -5.6441 C.ar      1 <0>        -0.0555
     12 C9         -4.7995    0.0803   -6.8362 C.ar      1 <0>        -0.1969
     13 C10        -5.3997   -0.9788   -7.5616 C.ar      1 <0>         0.2138
     14 C11        -5.3044   -2.2890   -7.0772 C.ar      1 <0>        -0.1958
     15 C12        -4.6247   -2.5350   -5.9055 C.ar      1 <0>         0.1578
     16 O2         -4.5282   -3.8071   -5.4390 O.3       1 <0>        -0.2944
     17 C13        -5.0444   -4.8453   -6.2743 C.3       1 <0>         0.0455
     18 H1         -5.0407   -4.5375   -7.3199 H         1 <0>         0.1025
     19 C14        -4.2403   -6.1601   -6.0825 C.3       1 <0>        -0.1530
     20 C15        -5.3163   -7.2173   -6.4366 C.3       1 <0>         0.0510
     21 O3         -6.5478   -6.6858   -5.9223 O.3       1 <0>        -0.3738
     22 C16        -6.4640   -5.2555   -5.8272 C.3       1 <0>         0.0341
     23 N3         -6.0474   -0.6924   -8.7020 N.ar      1 <0>        -0.5459
     24 C17        -6.1211    0.5443   -9.1330 C.ar      1 <0>         0.3515
     25 N4         -5.5760    1.5645   -8.4898 N.ar      1 <0>        -0.5857
     26 C18        -4.9137    1.3931   -7.3532 C.ar      1 <0>         0.4731
     27 N5         -4.3510    2.4663   -6.6923 N.pl3     1 <0>        -0.6358
     28 C19        -4.5687    3.7671   -7.1585 C.ar      1 <0>         0.1564
     29 C20        -3.5639    4.7206   -7.0541 C.ar      1 <0>        -0.1114
     30 C21        -3.7803    6.0043   -7.5152 C.ar      1 <0>        -0.1197
     31 C22        -4.9980    6.3420   -8.0812 C.ar      1 <0>         0.0946
     32 C23        -6.0022    5.3930   -8.1862 C.ar      1 <0>        -0.0544
     33 C24        -5.7874    4.1054   -7.7314 C.ar      1 <0>        -0.0756
     34 Cl1        -7.5284    5.8195   -8.8952 Cl        1 <0>        -0.0418
     35 F1         -5.2075    7.5985   -8.5312 F         1 <0>        -0.1256
     36 H2          2.9256    0.5331   -1.2752 H         1 <0>         0.0727
     37 H3          1.3655    0.9594   -2.0185 H         1 <0>         0.0718
     38 H4          1.6992    1.4102   -0.3292 H         1 <0>         0.0297
     39 H5          1.7155   -0.3618    1.3976 H         1 <0>         0.0290
     40 H6          1.5453   -2.0552    0.8765 H         1 <0>         0.0711
     41 H7          3.0101   -1.1368    0.4533 H         1 <0>         0.0732
     42 H8         -0.5435   -1.4542   -0.0435 H         1 <0>         0.0883
     43 H9         -0.4025    0.3065    0.1761 H         1 <0>         0.0580
     44 H10        -0.4927    0.5156   -2.4461 H         1 <0>         0.1298
     45 H11        -2.0745   -1.9624   -1.6305 H         1 <0>         0.1328
     46 H12        -3.5760   -2.5476   -3.4770 H         1 <0>         0.4199
     47 H13        -3.6583    0.6155   -5.0874 H         1 <0>         0.1594
     48 H14        -5.7582   -3.1033   -7.6224 H         1 <0>         0.1529
     49 H15        -3.3984   -6.2100   -6.7730 H         1 <0>         0.0956
     50 H16        -3.9067   -6.2696   -5.0506 H         1 <0>         0.0948
     51 H17        -5.3810   -7.3440   -7.5173 H         1 <0>         0.0687
     52 H18        -5.0849   -8.1681   -5.9566 H         1 <0>         0.0964
     53 H19        -6.6315   -4.9437   -4.7963 H         1 <0>         0.0847
     54 H20        -7.2050   -4.7937   -6.4796 H         1 <0>         0.0810
     55 H21        -6.6500    0.7387  -10.0544 H         1 <0>         0.1992
     56 H22        -3.8045    2.3184   -5.9046 H         1 <0>         0.4273
     57 H23        -2.6141    4.4582   -6.6122 H         1 <0>         0.1435
     58 H24        -2.9990    6.7455   -7.4340 H         1 <0>         0.1509
     59 H25        -6.5684    3.3644   -7.8177 H         1 <0>         0.1561
@<TRIPOS>BOND
     1    1    2 1
     2    1   36 1
     3    1   37 1
     4    1   38 1
     5    2    3 1
     6    2    4 1
     7    3   39 1
     8    3   40 1
     9    3   41 1
    10    4    5 1
    11    4   42 1
    12    4   43 1
    13    5    6 2
    14    5   44 1
    15    6    7 1
    16    6   45 1
    17    7    8 2
    18    7    9 am
    19    9   10 1
    20    9   46 1
    21   10   15 ar
    22   10   11 ar
    23   11   12 ar
    24   11   47 1
    25   12   26 ar
    26   12   13 ar
    27   13   14 ar
    28   13   23 ar
    29   14   15 ar
    30   14   48 1
    31   15   16 1
    32   16   17 1
    33   17   18 1
    34   17   22 1
    35   17   19 1
    36   19   20 1
    37   19   49 1
    38   19   50 1
    39   20   21 1
    40   20   51 1
    41   20   52 1
    42   21   22 1
    43   22   53 1
    44   22   54 1
    45   23   24 ar
    46   24   25 ar
    47   24   55 1
    48   25   26 ar
    49   26   27 1
    50   27   28 1
    51   27   56 1
    52   28   33 ar
    53   28   29 ar
    54   29   30 ar
    55   29   57 1
    56   30   31 ar
    57   30   58 1
    58   31   32 ar
    59   31   35 1
    60   32   33 ar
    61   32   34 1
    62   33   59 1
@<TRIPOS>MOLECULE
ZINC13476433
   31    33     0     0     0
SMALL
USER_CHARGES
N-[(4-chlorophenyl)methyl]quinazolin-4-amine
@<TRIPOS>ATOM
      1 C1          1.2034   -4.1773   -5.3568 C.ar      1 <0>        -0.1335
      2 C2          1.2201   -5.5551   -5.5550 C.ar      1 <0>        -0.0741
      3 C3          1.2422   -6.4168   -4.4990 C.ar      1 <0>        -0.1103
      4 C4          1.2481   -5.9098   -3.1924 C.ar      1 <0>         0.1876
      5 C5          1.2310   -4.5077   -2.9929 C.ar      1 <0>        -0.1982
      6 C6          1.2085   -3.6506   -4.0988 C.ar      1 <0>        -0.0711
      7 C7          1.2370   -4.0212   -1.6630 C.ar      1 <0>         0.4742
      8 N1          1.2634   -4.9039   -0.6733 N.ar      1 <0>        -0.5976
      9 C8          1.2736   -6.2062   -0.9086 C.ar      1 <0>         0.3494
     10 N2          1.2691   -6.7131   -2.1186 N.ar      1 <0>        -0.5546
     11 N3          1.2216   -2.6674   -1.4041 N.pl3     1 <0>        -0.6940
     12 C9          1.2281   -2.1860   -0.0204 C.3       1 <0>         0.1695
     13 C10         1.2083   -0.6792   -0.0127 C.ar      1 <0>        -0.1122
     14 C11         0.0021   -0.0041    0.0020 C.ar      1 <0>        -0.0854
     15 C12        -0.0167    1.3779    0.0096 C.ar      1 <0>        -0.1121
     16 C13         1.1721    2.0856    0.0021 C.ar      1 <0>        -0.0251
     17 C14         2.3790    1.4094   -0.0135 C.ar      1 <0>        -0.1121
     18 C15         2.3965    0.0274   -0.0207 C.ar      1 <0>        -0.0854
     19 Cl1         1.1494    3.8215    0.0110 Cl        1 <0>        -0.0634
     20 H1          1.1860   -3.5165   -6.2108 H         1 <0>         0.1303
     21 H2          1.2152   -5.9475   -6.5612 H         1 <0>         0.1335
     22 H3          1.2547   -7.4834   -4.6681 H         1 <0>         0.1401
     23 H4          1.1954   -2.5800   -3.9571 H         1 <0>         0.1241
     24 H5          1.2911   -6.8821   -0.0665 H         1 <0>         0.1949
     25 H6          1.2064   -2.0334   -2.1381 H         1 <0>         0.4124
     26 H7          2.1275   -2.5402    0.4832 H         1 <0>         0.0839
     27 H8          0.3478   -2.5636    0.4997 H         1 <0>         0.0838
     28 H9         -0.9258   -0.5566    0.0079 H         1 <0>         0.1352
     29 H10        -0.9591    1.9053    0.0170 H         1 <0>         0.1374
     30 H11         3.3073    1.9614   -0.0198 H         1 <0>         0.1374
     31 H12         3.3386   -0.5006   -0.0321 H         1 <0>         0.1352
@<TRIPOS>BOND
     1    1    6 ar
     2    1    2 ar
     3    1   20 1
     4    2    3 ar
     5    2   21 1
     6    3    4 ar
     7    3   22 1
     8    4   10 ar
     9    4    5 ar
    10    5    6 ar
    11    5    7 ar
    12    6   23 1
    13    7    8 ar
    14    7   11 1
    15    8    9 ar
    16    9   10 ar
    17    9   24 1
    18   11   12 1
    19   11   25 1
    20   12   13 1
    21   12   26 1
    22   12   27 1
    23   13   18 ar
    24   13   14 ar
    25   14   15 ar
    26   14   28 1
    27   15   16 ar
    28   15   29 1
    29   16   17 ar
    30   16   19 1
    31   17   18 ar
    32   17   30 1
    33   18   31 1
@<TRIPOS>MOLECULE
ZINC00104782
   32    34     0     0     0
SMALL
USER_CHARGES

@<TRIPOS>ATOM
      1 C1          0.7717    1.6890   -4.2531 C.3       1 <0>         0.0271
      2 O1          0.8114    0.2690   -4.4085 O.3       1 <0>        -0.3143
      3 C2          1.0091   -0.4693   -3.2848 C.ar      1 <0>         0.1473
      4 C3          1.1560    0.1609   -2.0567 C.ar      1 <0>        -0.2232
      5 C4          1.3570   -0.5883   -0.9132 C.ar      1 <0>        -0.0590
      6 C5          1.4126   -1.9667   -0.9881 C.ar      1 <0>        -0.1840
      7 C6          1.2667   -2.6029   -2.2145 C.ar      1 <0>         0.1890
      8 C7          1.0584   -1.8519   -3.3635 C.ar      1 <0>        -0.1457
      9 N1          1.3238   -3.9974   -2.2906 N.pl3     1 <0>        -0.6372
     10 C8          1.8444   -4.6061   -3.4138 C.ar      1 <0>         0.4646
     11 C9          1.8050   -6.0142   -3.5627 C.ar      1 <0>        -0.1908
     12 C10         1.2428   -6.8497   -2.5912 C.ar      1 <0>        -0.0747
     13 C11         1.2331   -8.1990   -2.7899 C.ar      1 <0>        -0.1280
     14 C12         1.7747   -8.7553   -3.9454 C.ar      1 <0>        -0.0740
     15 C13         2.3300   -7.9687   -4.9104 C.ar      1 <0>        -0.1071
     16 C14         2.3563   -6.5780   -4.7389 C.ar      1 <0>         0.1865
     17 N2          2.8897   -5.7588   -5.6575 N.ar      1 <0>        -0.5448
     18 C15         2.8985   -4.4610   -5.4663 C.ar      1 <0>         0.3448
     19 N3          2.3906   -3.8886   -4.3864 N.ar      1 <0>        -0.5780
     20 H1         -0.0415    1.9581   -3.5790 H         1 <0>         0.0560
     21 H2          1.7178    2.0356   -3.8376 H         1 <0>         0.0567
     22 H3          0.6084    2.1563   -5.2242 H         1 <0>         0.1012
     23 H4          1.1134    1.2383   -1.9949 H         1 <0>         0.1294
     24 H5          1.4714   -0.0953    0.0409 H         1 <0>         0.1302
     25 H6          1.5699   -2.5499   -0.0928 H         1 <0>         0.1263
     26 H7          0.9399   -2.3441   -4.3175 H         1 <0>         0.1456
     27 H8          0.9974   -4.5372   -1.5537 H         1 <0>         0.4227
     28 H9          0.8201   -6.4293   -1.6907 H         1 <0>         0.1262
     29 H10         0.7998   -8.8447   -2.0405 H         1 <0>         0.1323
     30 H11         1.7549   -9.8268   -4.0793 H         1 <0>         0.1352
     31 H12         2.7470   -8.4143   -5.8014 H         1 <0>         0.1418
     32 H13         3.3363   -3.8308   -6.2263 H         1 <0>         0.1978
@<TRIPOS>BOND
     1    1    2 1
     2    1   20 1
     3    1   21 1
     4    1   22 1
     5    2    3 1
     6    3    8 ar
     7    3    4 ar
     8    4    5 ar
     9    4   23 1
    10    5    6 ar
    11    5   24 1
    12    6    7 ar
    13    6   25 1
    14    7    8 ar
    15    7    9 1
    16    8   26 1
    17    9   10 1
    18    9   27 1
    19   10   19 ar
    20   10   11 ar
    21   11   16 ar
    22   11   12 ar
    23   12   13 ar
    24   12   28 1
    25   13   14 ar
    26   13   29 1
    27   14   15 ar
    28   14   30 1
    29   15   16 ar
    30   15   31 1
    31   16   17 ar
    32   17   18 ar
    33   18   19 ar
    34   18   32 1
@<TRIPOS>MOLECULE
ZINC03815386
   27    29     0     0     0
SMALL
USER_CHARGES
4-(3-bromophenoxy)quinazoline
@<TRIPOS>ATOM
      1 C1         -4.6537   -3.0458   -0.3020 C.ar      1 <0>        -0.1272
      2 C2         -4.5251   -4.4277   -0.4148 C.ar      1 <0>        -0.0681
      3 C3         -3.2980   -5.0208   -0.4253 C.ar      1 <0>        -0.1085
      4 C4         -2.1458   -4.2292   -0.3210 C.ar      1 <0>         0.1824
      5 C5         -2.2787   -2.8232   -0.2063 C.ar      1 <0>        -0.1625
      6 C6         -3.5543   -2.2460   -0.1987 C.ar      1 <0>        -0.0612
      7 C7         -1.1014   -2.0472   -0.1021 C.ar      1 <0>         0.3999
      8 N1          0.0653   -2.6737   -0.1225 N.ar      1 <0>        -0.5760
      9 C8          0.1417   -3.9912   -0.2260 C.ar      1 <0>         0.3401
     10 N2         -0.9154   -4.7615   -0.3258 N.ar      1 <0>        -0.5241
     11 O1         -1.1648   -0.7006    0.0099 O.3       1 <0>        -0.2323
     12 C9          0.0009   -0.0026   -0.0167 C.ar      1 <0>         0.0922
     13 C10         0.7169    0.1097   -1.2002 C.ar      1 <0>        -0.0965
     14 C11         1.9017    0.8192   -1.2250 C.ar      1 <0>        -0.0968
     15 C12         2.3749    1.4180   -0.0720 C.ar      1 <0>        -0.0825
     16 C13         1.6636    1.3075    1.1094 C.ar      1 <0>        -0.0792
     17 C14         0.4772    0.5984    1.1392 C.ar      1 <0>        -0.0835
     18 Br1         2.3143    2.1273    2.6844 Br        1 <0>        -0.0349
     19 H1         -5.6380   -2.6014   -0.2959 H         1 <0>         0.1359
     20 H2         -5.4116   -5.0392   -0.4948 H         1 <0>         0.1382
     21 H3         -3.2139   -6.0940   -0.5130 H         1 <0>         0.1452
     22 H4         -3.6665   -1.1754   -0.1114 H         1 <0>         0.1401
     23 H5          1.1183   -4.4522   -0.2330 H         1 <0>         0.2020
     24 H6          0.3480   -0.3577   -2.1013 H         1 <0>         0.1329
     25 H7          2.4589    0.9067   -2.1460 H         1 <0>         0.1423
     26 H8          3.3014    1.9726   -0.0936 H         1 <0>         0.1410
     27 H9         -0.0804    0.5162    2.0604 H         1 <0>         0.1414
@<TRIPOS>BOND
     1    1    6 ar
     2    1    2 ar
     3    1   19 1
     4    2    3 ar
     5    2   20 1
     6    3    4 ar
     7    3   21 1
     8    4   10 ar
     9    4    5 ar
    10    5    6 ar
    11    5    7 ar
    12    6   22 1
    13    7    8 ar
    14    7   11 1
    15    8    9 ar
    16    9   10 ar
    17    9   23 1
    18   11   12 1
    19   12   17 ar
    20   12   13 ar
    21   13   14 ar
    22   13   24 1
    23   14   15 ar
    24   14   25 1
    25   15   16 ar
    26   15   26 1
    27   16   17 ar
    28   16   18 1
    29   17   27 1
@<TRIPOS>MOLECULE
ZINC00071700
   34    36     0     0     0
SMALL
USER_CHARGES

@<TRIPOS>ATOM
      1 C1         -0.0167    1.3781    0.0096 C.ar      1 <0>        -0.1196
      2 C2          1.1709    2.0855    0.0021 C.ar      1 <0>        -0.1177
      3 C3          2.3773    1.4107   -0.0130 C.ar      1 <0>        -0.1132
      4 C4          2.3960    0.0285   -0.0201 C.ar      1 <0>        -0.0843
      5 C5          1.2084   -0.6789   -0.0117 C.ar      1 <0>        -0.1132
      6 C6          0.0021   -0.0041    0.0020 C.ar      1 <0>        -0.1177
      7 C7          3.7112   -0.7071   -0.0376 C.3       1 <0>        -0.0938
      8 C8          4.1714   -0.9633    1.3989 C.3       1 <0>         0.1324
      9 N1          5.4498   -1.6784    1.3820 N.pl3     1 <0>        -0.6980
     10 C9          6.0638   -2.0208    2.5676 C.ar      1 <0>         0.4741
     11 C10         7.3029   -2.7072    2.5738 C.ar      1 <0>        -0.1990
     12 C11         7.9596   -3.0679    1.3920 C.ar      1 <0>        -0.0712
     13 C12         9.1513   -3.7277    1.4604 C.ar      1 <0>        -0.1342
     14 C13         9.7221   -4.0471    2.6892 C.ar      1 <0>        -0.0747
     15 C14         9.1076   -3.7096    3.8583 C.ar      1 <0>        -0.1102
     16 C15         7.8821   -3.0306    3.8248 C.ar      1 <0>         0.1871
     17 N2          7.2360   -2.6749    4.9454 N.ar      1 <0>        -0.5554
     18 C16         6.0901   -2.0400    4.8793 C.ar      1 <0>         0.3494
     19 N3          5.5133   -1.7119    3.7340 N.ar      1 <0>        -0.5969
     20 H1         -0.9591    1.9053    0.0259 H         1 <0>         0.1227
     21 H2          1.1563    3.1654    0.0076 H         1 <0>         0.1233
     22 H3          3.3051    1.9634   -0.0196 H         1 <0>         0.1220
     23 H4          1.2231   -1.7588   -0.0176 H         1 <0>         0.1220
     24 H5         -0.9258   -0.5567    0.0082 H         1 <0>         0.1233
     25 H6          3.5884   -1.6586   -0.5549 H         1 <0>         0.0800
     26 H7          4.4573   -0.1052   -0.5563 H         1 <0>         0.0800
     27 H8          4.2941   -0.0118    1.9163 H         1 <0>         0.0745
     28 H9          3.4252   -1.5652    1.9176 H         1 <0>         0.0746
     29 H10         5.8643   -1.9110    0.5363 H         1 <0>         0.4112
     30 H11         7.5259   -2.8260    0.4330 H         1 <0>         0.1245
     31 H12         9.6588   -4.0065    0.5487 H         1 <0>         0.1302
     32 H13        10.6663   -4.5706    2.7168 H         1 <0>         0.1333
     33 H14         9.5621   -3.9643    4.8043 H         1 <0>         0.1398
     34 H15         5.5971   -1.7688    5.8011 H         1 <0>         0.1944
@<TRIPOS>BOND
     1    1    6 ar
     2    1    2 ar
     3    1   20 1
     4    2    3 ar
     5    2   21 1
     6    3    4 ar
     7    3   22 1
     8    4    5 ar
     9    4    7 1
    10    5    6 ar
    11    5   23 1
    12    6   24 1
    13    7    8 1
    14    7   25 1
    15    7   26 1
    16    8    9 1
    17    8   27 1
    18    8   28 1
    19    9   10 1
    20    9   29 1
    21   10   19 ar
    22   10   11 ar
    23   11   16 ar
    24   11   12 ar
    25   12   13 ar
    26   12   30 1
    27   13   14 ar
    28   13   31 1
    29   14   15 ar
    30   14   32 1
    31   15   16 ar
    32   15   33 1
    33   16   17 ar
    34   17   18 ar
    35   18   19 ar
    36   18   34 1
@<TRIPOS>MOLECULE
ZINC01387047
   36    38     0     0     0
SMALL
USER_CHARGES
N-(4-fluorophenyl)-6,7-dimethoxy-quinazolin-4-amine
@<TRIPOS>ATOM
      1 C1          5.8724    3.2858    0.3129 C.3       1 <0>         0.0216
      2 O1          4.6758    4.0526    0.1638 O.3       1 <0>        -0.3001
      3 C2          3.5153    3.3615    0.0063 C.ar      1 <0>         0.1108
      4 C3          3.5384    1.9956   -0.0028 C.ar      1 <0>        -0.1484
      5 C4          2.3443    1.2832   -0.1652 C.ar      1 <0>        -0.1828
      6 C5          1.1206    1.9809   -0.3194 C.ar      1 <0>         0.2015
      7 C6          1.1202    3.3809   -0.3061 C.ar      1 <0>        -0.1839
      8 C7          2.3086    4.0585   -0.1452 C.ar      1 <0>         0.1639
      9 O2          2.3111    5.4169   -0.1329 O.3       1 <0>        -0.2971
     10 C8          1.0498    6.0695   -0.2920 C.3       1 <0>         0.0201
     11 N1         -0.0098    1.2735   -0.4729 N.ar      1 <0>        -0.5421
     12 C9          0.0219   -0.0378   -0.4796 C.ar      1 <0>         0.3426
     13 N2          1.1403   -0.7315   -0.3396 N.ar      1 <0>        -0.5817
     14 C10         2.3130   -0.1316   -0.1815 C.ar      1 <0>         0.4642
     15 N3          3.4717   -0.8677   -0.0371 N.pl3     1 <0>        -0.6393
     16 C11         3.4072   -2.2618    0.0607 C.ar      1 <0>         0.1425
     17 C12         2.3202   -2.8660    0.6790 C.ar      1 <0>        -0.0823
     18 C13         2.2556   -4.2427    0.7689 C.ar      1 <0>        -0.1319
     19 C14         3.2795   -5.0199    0.2541 C.ar      1 <0>         0.0834
     20 C15         4.3670   -4.4194   -0.3577 C.ar      1 <0>        -0.1323
     21 C16         4.4327   -3.0433   -0.4553 C.ar      1 <0>        -0.1191
     22 F1          3.2172   -6.3662    0.3485 F         1 <0>        -0.1391
     23 H1          6.7225    3.9579    0.4297 H         1 <0>         0.1071
     24 H2          5.7887    2.6494    1.1939 H         1 <0>         0.0575
     25 H3          6.0187    2.6651   -0.5711 H         1 <0>         0.0573
     26 H4          4.4733    1.4680    0.1151 H         1 <0>         0.1393
     27 H5          0.1949    3.9256   -0.4222 H         1 <0>         0.1563
     28 H6          0.6123    5.7862   -1.2492 H         1 <0>         0.0623
     29 H7          0.3816    5.7705    0.5156 H         1 <0>         0.0624
     30 H8          1.1935    7.1496   -0.2636 H         1 <0>         0.1075
     31 H9         -0.9063   -0.5756   -0.6053 H         1 <0>         0.1983
     32 H10         4.3307   -0.4184   -0.0034 H         1 <0>         0.4200
     33 H11         1.5238   -2.2600    1.0849 H         1 <0>         0.1472
     34 H12         1.4081   -4.7131    1.2450 H         1 <0>         0.1399
     35 H13         5.1641   -5.0276   -0.7592 H         1 <0>         0.1400
     36 H14         5.2809   -2.5754   -0.9329 H         1 <0>         0.1346
@<TRIPOS>BOND
     1    1    2 1
     2    1   23 1
     3    1   24 1
     4    1   25 1
     5    2    3 1
     6    3    8 ar
     7    3    4 ar
     8    4    5 ar
     9    4   26 1
    10    5   14 ar
    11    5    6 ar
    12    6    7 ar
    13    6   11 ar
    14    7    8 ar
    15    7   27 1
    16    8    9 1
    17    9   10 1
    18   10   28 1
    19   10   29 1
    20   10   30 1
    21   11   12 ar
    22   12   13 ar
    23   12   31 1
    24   13   14 ar
    25   14   15 1
    26   15   16 1
    27   15   32 1
    28   16   21 ar
    29   16   17 ar
    30   17   18 ar
    31   17   33 1
    32   18   19 ar
    33   18   34 1
    34   19   20 ar
    35   19   22 1
    36   20   21 ar
    37   20   35 1
    38   21   36 1
@<TRIPOS>MOLECULE
ZINC01386814
   39    41     0     0     0
SMALL
USER_CHARGES

@<TRIPOS>ATOM
      1 C1         -0.0173    1.4248    0.0099 C.3       1 <0>         0.0227
      2 O1          0.0021   -0.0041    0.0020 O.3       1 <0>        -0.3017
      3 C2          0.6062   -0.6075   -1.0564 C.ar      1 <0>         0.1035
      4 C3          1.1618    0.1569   -2.0428 C.ar      1 <0>        -0.1428
      5 C4          1.7844   -0.4633   -3.1326 C.ar      1 <0>        -0.1910
      6 C5          1.8348   -1.8774   -3.2066 C.ar      1 <0>         0.2014
      7 C6          1.2583   -2.6412   -2.1846 C.ar      1 <0>        -0.1858
      8 C7          0.6568   -2.0069   -1.1201 C.ar      1 <0>         0.1621
      9 O2          0.1015   -2.7454   -0.1243 O.3       1 <0>        -0.2984
     10 C8          0.1855   -4.1667   -0.2465 C.3       1 <0>         0.0207
     11 N1          2.4385   -2.4468   -4.2617 N.ar      1 <0>        -0.5526
     12 C9          2.9702   -1.7050   -5.2038 C.ar      1 <0>         0.3476
     13 N2          2.9472   -0.3818   -5.1770 N.ar      1 <0>        -0.5959
     14 C10         2.3762    0.2816   -4.1804 C.ar      1 <0>         0.4741
     15 N3          2.3593    1.6610   -4.1657 N.pl3     1 <0>        -0.6964
     16 C11         2.9778    2.4128   -5.2605 C.3       1 <0>         0.1717
     17 C12         2.8234    3.8900   -5.0055 C.ar      1 <0>        -0.1276
     18 C13         1.7092    4.5594   -5.4761 C.ar      1 <0>        -0.0687
     19 C14         1.5663    5.9140   -5.2425 C.ar      1 <0>        -0.1557
     20 C15         2.5397    6.6007   -4.5367 C.ar      1 <0>         0.1103
     21 C16         3.6553    5.9292   -4.0659 C.ar      1 <0>        -0.1557
     22 C17         3.7934    4.5735   -4.2962 C.ar      1 <0>        -0.0687
     23 F1          2.4013    7.9250   -4.3081 F         1 <0>        -0.1359
     24 H1          1.0053    1.8021    0.0021 H         1 <0>         0.0563
     25 H2         -0.5445    1.7859   -0.8732 H         1 <0>         0.0563
     26 H3         -0.5275    1.7763    0.9067 H         1 <0>         0.1059
     27 H4          1.1207    1.2344   -1.9824 H         1 <0>         0.1377
     28 H5          1.2890   -3.7199   -2.2282 H         1 <0>         0.1543
     29 H6         -0.2954   -4.6343    0.6127 H         1 <0>         0.1065
     30 H7         -0.3168   -4.4830   -1.1607 H         1 <0>         0.0616
     31 H8          1.2326   -4.4669   -0.2848 H         1 <0>         0.0616
     32 H9          3.4484   -2.1958   -6.0385 H         1 <0>         0.1949
     33 H10         1.9379    2.1331   -3.4306 H         1 <0>         0.4100
     34 H11         4.0372    2.1630   -5.3197 H         1 <0>         0.0835
     35 H12         2.4903    2.1534   -6.2003 H         1 <0>         0.0835
     36 H13         0.9502    4.0236   -6.0269 H         1 <0>         0.1360
     37 H14         0.6959    6.4368   -5.6106 H         1 <0>         0.1393
     38 H15         4.4153    6.4638   -3.5155 H         1 <0>         0.1393
     39 H16         4.6613    4.0486   -3.9251 H         1 <0>         0.1361
@<TRIPOS>BOND
     1    1    2 1
     2    1   24 1
     3    1   25 1
     4    1   26 1
     5    2    3 1
     6    3    8 ar
     7    3    4 ar
     8    4    5 ar
     9    4   27 1
    10    5   14 ar
    11    5    6 ar
    12    6    7 ar
    13    6   11 ar
    14    7    8 ar
    15    7   28 1
    16    8    9 1
    17    9   10 1
    18   10   29 1
    19   10   30 1
    20   10   31 1
    21   11   12 ar
    22   12   13 ar
    23   12   32 1
    24   13   14 ar
    25   14   15 1
    26   15   16 1
    27   15   33 1
    28   16   17 1
    29   16   34 1
    30   16   35 1
    31   17   22 ar
    32   17   18 ar
    33   18   19 ar
    34   18   36 1
    35   19   20 ar
    36   19   37 1
    37   20   21 ar
    38   20   23 1
    39   21   22 ar
    40   21   38 1
    41   22   39 1
@<TRIPOS>MOLECULE
ZINC00600292
   36    38     0     0     0
SMALL
USER_CHARGES

@<TRIPOS>ATOM
      1 C1         -0.7597    1.4203   -0.5114 C.3       1 <0>         0.0216
      2 O1         -0.7395   -0.0086   -0.5175 O.3       1 <0>        -0.3000
      3 C2          0.0525   -0.6108   -1.4443 C.ar      1 <0>         0.1111
      4 C3          0.7838    0.1546   -2.3077 C.ar      1 <0>        -0.1487
      5 C4          1.6000   -0.4644   -3.2619 C.ar      1 <0>        -0.1822
      6 C5          1.6631   -1.8785   -3.3272 C.ar      1 <0>         0.2014
      7 C6          0.9050   -2.6434   -2.4324 C.ar      1 <0>        -0.1835
      8 C7          0.1140   -2.0102   -1.4994 C.ar      1 <0>         0.1637
      9 O2         -0.6184   -2.7498   -0.6264 O.3       1 <0>        -0.2972
     10 C8         -0.5133   -4.1710   -0.7327 C.3       1 <0>         0.0200
     11 N1          2.4537   -2.4467   -4.2512 N.ar      1 <0>        -0.5411
     12 C9          3.1528   -1.7038   -5.0759 C.ar      1 <0>         0.3436
     13 N2          3.1258   -0.3808   -5.0518 N.ar      1 <0>        -0.5800
     14 C10         2.3778    0.2817   -4.1791 C.ar      1 <0>         0.4633
     15 N3          2.3588    1.6620   -4.1660 N.pl3     1 <0>        -0.6410
     16 C11         3.0379    2.3798   -5.1546 C.ar      1 <0>         0.1586
     17 C12         3.6582    3.5824   -4.8396 C.ar      1 <0>        -0.1318
     18 C13         4.3288    4.2892   -5.8181 C.ar      1 <0>        -0.0924
     19 C14         4.3832    3.8017   -7.1112 C.ar      1 <0>        -0.1057
     20 C15         3.7663    2.6047   -7.4288 C.ar      1 <0>        -0.0712
     21 C16         3.0988    1.8895   -6.4525 C.ar      1 <0>        -0.0819
     22 Br1         3.8425    1.9431   -9.1987 Br        1 <0>        -0.0435
     23 H1          0.2462    1.7971   -0.3263 H         1 <0>         0.0571
     24 H2         -1.1115    1.7828   -1.4772 H         1 <0>         0.0575
     25 H3         -1.4293    1.7708    0.2741 H         1 <0>         0.1071
     26 H4          0.7324    1.2321   -2.2545 H         1 <0>         0.1391
     27 H5          0.9434   -3.7220   -2.4708 H         1 <0>         0.1564
     28 H6         -1.1468   -4.6395    0.0204 H         1 <0>         0.1075
     29 H7         -0.8353   -4.4858   -1.7253 H         1 <0>         0.0624
     30 H8          0.5224   -4.4716   -0.5744 H         1 <0>         0.0623
     31 H9          3.7787   -2.1938   -5.8070 H         1 <0>         0.1983
     32 H10         1.8741    2.1338   -3.4707 H         1 <0>         0.4207
     33 H11         3.6157    3.9643   -3.8302 H         1 <0>         0.1312
     34 H12         4.8111    5.2240   -5.5735 H         1 <0>         0.1372
     35 H13         4.9081    4.3567   -7.8747 H         1 <0>         0.1349
     36 H14         2.6210    0.9530   -6.6997 H         1 <0>         0.1453
@<TRIPOS>BOND
     1    1    2 1
     2    1   23 1
     3    1   24 1
     4    1   25 1
     5    2    3 1
     6    3    8 ar
     7    3    4 ar
     8    4    5 ar
     9    4   26 1
    10    5   14 ar
    11    5    6 ar
    12    6    7 ar
    13    6   11 ar
    14    7    8 ar
    15    7   27 1
    16    8    9 1
    17    9   10 1
    18   10   28 1
    19   10   29 1
    20   10   30 1
    21   11   12 ar
    22   12   13 ar
    23   12   31 1
    24   13   14 ar
    25   14   15 1
    26   15   16 1
    27   15   32 1
    28   16   21 ar
    29   16   17 ar
    30   17   18 ar
    31   17   33 1
    32   18   19 ar
    33   18   34 1
    34   19   20 ar
    35   19   35 1
    36   20   21 ar
    37   20   22 1
    38   21   36 1
@<TRIPOS>MOLECULE
ZINC02572485
   42    44     0     0     0
SMALL
USER_CHARGES
N-(3-bromophenyl)-6,7-diethoxy-quinazolin-4-amine
@<TRIPOS>ATOM
      1 C1          7.0657    4.2294    0.4737 C.3       1 <0>        -0.1526
      2 C2          5.8725    3.2858    0.3104 C.3       1 <0>         0.0499
      3 O1          4.6759    4.0526    0.1608 O.3       1 <0>        -0.2987
      4 C3          3.5154    3.3614    0.0039 C.ar      1 <0>         0.1146
      5 C4          3.5385    1.9956   -0.0045 C.ar      1 <0>        -0.1500
      6 C5          2.3443    1.2830   -0.1660 C.ar      1 <0>        -0.1818
      7 C6          1.1206    1.9806   -0.3200 C.ar      1 <0>         0.2015
      8 C7          1.1201    3.3807   -0.3075 C.ar      1 <0>        -0.1846
      9 C8          2.3085    4.0583   -0.1471 C.ar      1 <0>         0.1670
     10 O2          2.3110    5.4167   -0.1347 O.3       1 <0>        -0.2958
     11 C9          1.0496    6.0693   -0.2931 C.3       1 <0>         0.0479
     12 C10         1.2511    7.5854   -0.2533 C.3       1 <0>        -0.1523
     13 N1         -0.0100    1.2732   -0.4726 N.ar      1 <0>        -0.5407
     14 C11         0.0218   -0.0382   -0.4786 C.ar      1 <0>         0.3428
     15 N2          1.1403   -0.7318   -0.3387 N.ar      1 <0>        -0.5799
     16 C12         2.3130   -0.1318   -0.1814 C.ar      1 <0>         0.4626
     17 N3          3.4719   -0.8679   -0.0362 N.pl3     1 <0>        -0.6400
     18 C13         3.4074   -2.2607    0.0624 C.ar      1 <0>         0.1594
     19 C14         4.4332   -3.0433   -0.4528 C.ar      1 <0>        -0.1340
     20 C15         4.3671   -4.4190   -0.3535 C.ar      1 <0>        -0.0917
     21 C16         3.2815   -5.0185    0.2584 C.ar      1 <0>        -0.1073
     22 C17         2.2581   -4.2425    0.7730 C.ar      1 <0>        -0.0705
     23 C18         2.3205   -2.8649    0.6807 C.ar      1 <0>        -0.0847
     24 Br1         0.7761   -5.0671    1.6093 Br        1 <0>        -0.0436
     25 H1          7.9785    3.6446    0.5877 H         1 <0>         0.0807
     26 H2          7.1494    4.8653   -0.4077 H         1 <0>         0.0686
     27 H3          6.9194    4.8506    1.3573 H         1 <0>         0.0687
     28 H4          5.7888    2.6500    1.1917 H         1 <0>         0.0634
     29 H5          6.0188    2.6646   -0.5733 H         1 <0>         0.0631
     30 H6          4.4735    1.4680    0.1133 H         1 <0>         0.1381
     31 H7          0.1948    3.9253   -0.4232 H         1 <0>         0.1554
     32 H8          0.6117    5.7859   -1.2503 H         1 <0>         0.0685
     33 H9          0.3818    5.7702    0.5147 H         1 <0>         0.0685
     34 H10         1.9190    7.8845   -1.0612 H         1 <0>         0.0680
     35 H11         0.2890    8.0831   -0.3742 H         1 <0>         0.0819
     36 H12         1.6890    7.8687    0.7038 H         1 <0>         0.0680
     37 H13        -0.9064   -0.5760   -0.6035 H         1 <0>         0.1983
     38 H14         4.3309   -0.4186   -0.0026 H         1 <0>         0.4206
     39 H15         5.2815   -2.5761   -0.9308 H         1 <0>         0.1310
     40 H16         5.1645   -5.0276   -0.7539 H         1 <0>         0.1370
     41 H17         3.2325   -6.0947    0.3350 H         1 <0>         0.1346
     42 H18         1.5236   -2.2591    1.0862 H         1 <0>         0.1484
@<TRIPOS>BOND
     1    1    2 1
     2    1   25 1
     3    1   26 1
     4    1   27 1
     5    2    3 1
     6    2   28 1
     7    2   29 1
     8    3    4 1
     9    4    9 ar
    10    4    5 ar
    11    5    6 ar
    12    5   30 1
    13    6   16 ar
    14    6    7 ar
    15    7    8 ar
    16    7   13 ar
    17    8    9 ar
    18    8   31 1
    19    9   10 1
    20   10   11 1
    21   11   12 1
    22   11   32 1
    23   11   33 1
    24   12   34 1
    25   12   35 1
    26   12   36 1
    27   13   14 ar
    28   14   15 ar
    29   14   37 1
    30   15   16 ar
    31   16   17 1
    32   17   18 1
    33   17   38 1
    34   18   23 ar
    35   18   19 ar
    36   19   20 ar
    37   19   39 1
    38   20   21 ar
    39   20   40 1
    40   21   22 ar
    41   21   41 1
    42   22   23 ar
    43   22   24 1
    44   23   42 1
@<TRIPOS>MOLECULE
ZINC05610419
   36    38     0     0     0
SMALL
USER_CHARGES
N-(2-fluorophenyl)-6,7-dimethoxy-quinazolin-4-amine
@<TRIPOS>ATOM
      1 C1         -0.2092    7.8645    0.3489 C.3       1 <0>         0.0210
      2 O1          1.0272    7.2310    0.6838 O.3       1 <0>        -0.2996
      3 C2          1.0238    5.8735    0.7629 C.ar      1 <0>         0.1124
      4 C3         -0.1324    5.1859    0.5250 C.ar      1 <0>        -0.1493
      5 C4         -0.1371    3.7883    0.6061 C.ar      1 <0>        -0.1812
      6 C5          1.0549    3.0956    0.9338 C.ar      1 <0>         0.2021
      7 C6          2.2284    3.8205    1.1737 C.ar      1 <0>        -0.1837
      8 C7          2.2066    5.1951    1.0880 C.ar      1 <0>         0.1649
      9 O2          3.3438    5.9009    1.3207 O.3       1 <0>        -0.2967
     10 C8          4.5164    5.1526    1.6475 C.3       1 <0>         0.0199
     11 N1          1.0231    1.7555    1.0046 N.ar      1 <0>        -0.5397
     12 C9         -0.0917    1.1037    0.7741 C.ar      1 <0>         0.3397
     13 N2         -1.2268    1.7074    0.4598 N.ar      1 <0>        -0.5800
     14 C10        -1.3072    3.0285    0.3687 C.ar      1 <0>         0.4646
     15 N3         -2.4990    3.6452    0.0455 N.pl3     1 <0>        -0.6327
     16 C11        -3.6731    2.8905   -0.0530 C.ar      1 <0>         0.1253
     17 C12        -3.7433    1.6333    0.5321 C.ar      1 <0>        -0.1104
     18 C13        -4.9052    0.8923    0.4369 C.ar      1 <0>        -0.1050
     19 C14        -5.9953    1.3962   -0.2487 C.ar      1 <0>        -0.1126
     20 C15        -5.9289    2.6457   -0.8372 C.ar      1 <0>        -0.1304
     21 C16        -4.7706    3.3953   -0.7420 C.ar      1 <0>         0.0578
     22 F1         -4.7055    4.6161   -1.3170 F         1 <0>        -0.1413
     23 H1         -0.9594    7.6167    1.0998 H         1 <0>         0.0577
     24 H2         -0.0676    8.9448    0.3194 H         1 <0>         0.1078
     25 H3         -0.5435    7.5150   -0.6279 H         1 <0>         0.0578
     26 H4         -1.0385    5.7179    0.2753 H         1 <0>         0.1391
     27 H5          3.1440    3.3057    1.4247 H         1 <0>         0.1571
     28 H6          4.7550    4.4747    0.8279 H         1 <0>         0.0624
     29 H7          5.3504    5.8358    1.8083 H         1 <0>         0.1077
     30 H8          4.3385    4.5764    2.5554 H         1 <0>         0.0625
     31 H9         -0.0818    0.0257    0.8396 H         1 <0>         0.2001
     32 H10        -2.5227    4.6018   -0.1134 H         1 <0>         0.4219
     33 H11        -2.8913    1.2365    1.0641 H         1 <0>         0.1739
     34 H12        -4.9609   -0.0842    0.8950 H         1 <0>         0.1340
     35 H13        -6.9006    0.8123   -0.3249 H         1 <0>         0.1337
     36 H14        -6.7820    3.0364   -1.3720 H         1 <0>         0.1390
@<TRIPOS>BOND
     1    1    2 1
     2    1   23 1
     3    1   24 1
     4    1   25 1
     5    2    3 1
     6    3    8 ar
     7    3    4 ar
     8    4    5 ar
     9    4   26 1
    10    5   14 ar
    11    5    6 ar
    12    6    7 ar
    13    6   11 ar
    14    7    8 ar
    15    7   27 1
    16    8    9 1
    17    9   10 1
    18   10   28 1
    19   10   29 1
    20   10   30 1
    21   11   12 ar
    22   12   13 ar
    23   12   31 1
    24   13   14 ar
    25   14   15 1
    26   15   16 1
    27   15   32 1
    28   16   21 ar
    29   16   17 ar
    30   17   18 ar
    31   17   33 1
    32   18   19 ar
    33   18   34 1
    34   19   20 ar
    35   19   35 1
    36   20   21 ar
    37   20   36 1
    38   21   22 1
@<TRIPOS>MOLECULE
ZINC20148983
   39    42     0     0     0
SMALL
USER_CHARGES
1-isopropyl-3-(6-quinolyl)pyrazolo[4,5-e]pyrimidin-4-amine
@<TRIPOS>ATOM
      1 C1          1.0254    8.7978   -2.0248 C.3       1 <0>        -0.1621
      2 C2          1.2018    8.9153   -0.5095 C.3       1 <0>         0.1606
      3 C3         -0.1710    9.0289    0.1564 C.3       1 <0>        -0.1621
      4 N1          1.8926    7.7262   -0.0046 N.pl3     1 <0>        -0.3691
      5 C4          3.0880    7.7288    0.6508 C.ar      1 <0>         0.3756
      6 C5          3.3891    6.3885    0.9574 C.ar      1 <0>        -0.3235
      7 C6          2.2832    5.5859    0.4354 C.2       1 <0>         0.1611
      8 N2          1.4309    6.4112   -0.1252 N.2       1 <0>        -0.2249
      9 C7          2.1525    4.1119    0.5188 C.ar      1 <0>        -0.0128
     10 C8          1.7465    3.3824   -0.6110 C.ar      1 <0>        -0.0754
     11 C9          1.6190    2.0318   -0.5611 C.ar      1 <0>        -0.0829
     12 C10         1.8956    1.3409    0.6333 C.ar      1 <0>         0.1347
     13 C11         2.3061    2.0687    1.7786 C.ar      1 <0>        -0.1018
     14 C12         2.4317    3.4637    1.7084 C.ar      1 <0>        -0.0831
     15 C13         2.5804    1.3697    2.9700 C.ar      1 <0>        -0.0542
     16 C14         2.4374    0.0111    2.9678 C.ar      1 <0>        -0.1718
     17 C15         2.0303   -0.6425    1.8073 C.ar      1 <0>         0.1391
     18 N3          1.7757    0.0115    0.6997 N.ar      1 <0>        -0.4734
     19 C16         4.5832    6.1084    1.6415 C.ar      1 <0>         0.5181
     20 N4          5.3762    7.1241    1.9688 N.ar      1 <0>        -0.6038
     21 C17         5.0541    8.3678    1.6609 C.ar      1 <0>         0.3865
     22 N5          3.9473    8.6775    1.0220 N.ar      1 <0>        -0.5731
     23 N6          4.9255    4.8098    1.9657 N.pl3     1 <0>        -0.8303
     24 H1          2.0034    8.7169   -2.4992 H         1 <0>         0.0603
     25 H2          0.4358    7.9102   -2.2542 H         1 <0>         0.0702
     26 H3          0.5114    9.6825   -2.4004 H         1 <0>         0.0791
     27 H4          1.7914    9.8029   -0.2801 H         1 <0>         0.1120
     28 H5         -0.0453    9.1126    1.2359 H         1 <0>         0.0600
     29 H6         -0.6850    9.9136   -0.2192 H         1 <0>         0.0791
     30 H7         -0.7606    8.1413   -0.0730 H         1 <0>         0.0701
     31 H8          1.5326    3.9036   -1.5325 H         1 <0>         0.1376
     32 H9          1.3057    1.4868   -1.4393 H         1 <0>         0.1440
     33 H10         2.7434    4.0269    2.5755 H         1 <0>         0.1398
     34 H11         2.8910    1.8936    3.8619 H         1 <0>         0.1419
     35 H12         2.6394   -0.5553    3.8649 H         1 <0>         0.1418
     36 H13         1.9210   -1.7169    1.8201 H         1 <0>         0.1629
     37 H14         5.7273    9.1628    1.9460 H         1 <0>         0.2058
     38 H15         4.4796    4.0672    1.5292 H         1 <0>         0.4125
     39 H16         5.6119    4.6406    2.6300 H         1 <0>         0.4110
@<TRIPOS>BOND
     1    1    2 1
     2    1   24 1
     3    1   25 1
     4    1   26 1
     5    2    3 1
     6    2    4 1
     7    2   27 1
     8    3   28 1
     9    3   29 1
    10    3   30 1
    11    4    8 1
    12    4    5 1
    13    5   22 ar
    14    5    6 ar
    15    6    7 1
    16    6   19 ar
    17    7    8 2
    18    7    9 1
    19    9   14 ar
    20    9   10 ar
    21   10   11 ar
    22   10   31 1
    23   11   12 ar
    24   11   32 1
    25   12   18 ar
    26   12   13 ar
    27   13   14 ar
    28   13   15 ar
    29   14   33 1
    30   15   16 ar
    31   15   34 1
    32   16   17 ar
    33   16   35 1
    34   17   18 ar
    35   17   36 1
    36   19   20 ar
    37   19   23 1
    38   20   21 ar
    39   21   22 ar
    40   21   37 1
    41   23   38 1
    42   23   39 1
@<TRIPOS>MOLECULE
ZINC08581906
   35    37     0     0     0
SMALL
USER_CHARGES

@<TRIPOS>ATOM
      1 C1          0.4062    0.7134    0.7743 C.3       1 <0>        -0.1622
      2 C2          0.2062   -0.7227    0.2861 C.3       1 <0>         0.1603
      3 C3          0.8807   -1.6910    1.2599 C.3       1 <0>        -0.1622
      4 N1         -1.2267   -1.0197    0.2161 N.pl3     1 <0>        -0.3682
      5 C4         -1.9008   -1.3860   -0.9107 C.ar      1 <0>         0.3764
      6 C5         -3.2452   -1.5750   -0.5394 C.ar      1 <0>        -0.3225
      7 C6         -3.3224   -1.2938    0.8939 C.2       1 <0>         0.1576
      8 N2         -2.1144   -0.9772    1.2964 N.2       1 <0>        -0.2230
      9 C7         -4.5398   -1.3596    1.7373 C.ar      1 <0>         0.0119
     10 C8         -5.4110   -2.4425    1.6242 C.ar      1 <0>        -0.1154
     11 C9         -6.5434   -2.5019    2.4107 C.ar      1 <0>        -0.0699
     12 C10        -6.8177   -1.4892    3.3123 C.ar      1 <0>        -0.1122
     13 C11        -5.9551   -0.4073    3.4309 C.ar      1 <0>         0.1435
     14 C12        -4.8137   -0.3425    2.6492 C.ar      1 <0>        -0.1062
     15 O1         -6.2283    0.5856    4.3181 O.3       1 <0>        -0.4823
     16 Br1        -8.3720   -1.5780    4.3858 Br        1 <0>        -0.0262
     17 C13        -4.1663   -1.9613   -1.5268 C.ar      1 <0>         0.5186
     18 N3         -3.7252   -2.1311   -2.7695 N.ar      1 <0>        -0.6031
     19 C14        -2.4536   -1.9426   -3.0738 C.ar      1 <0>         0.3877
     20 N4         -1.5560   -1.5814   -2.1832 N.ar      1 <0>        -0.5731
     21 N5         -5.4973   -2.1603   -1.2145 N.pl3     1 <0>        -0.8288
     22 H1          1.4723    0.9344    0.8264 H         1 <0>         0.0796
     23 H2         -0.0744    1.4033    0.0805 H         1 <0>         0.0606
     24 H3         -0.0369    0.8258    1.7638 H         1 <0>         0.0698
     25 H4          0.6493   -0.8351   -0.7034 H         1 <0>         0.1127
     26 H5          0.4376   -1.5786    2.2494 H         1 <0>         0.0699
     27 H6          0.7383   -2.7142    0.9121 H         1 <0>         0.0604
     28 H7          1.9468   -1.4701    1.3120 H         1 <0>         0.0794
     29 H8         -5.1997   -3.2345    0.9210 H         1 <0>         0.1438
     30 H9         -7.2175   -3.3410    2.3219 H         1 <0>         0.1472
     31 H10        -4.1397    0.4960    2.7436 H         1 <0>         0.1455
     32 H11        -5.8524    0.4419    5.1973 H         1 <0>         0.3991
     33 H12        -2.1380   -2.0919   -4.0958 H         1 <0>         0.2063
     34 H13        -5.8559   -1.8196   -0.3801 H         1 <0>         0.4127
     35 H14        -6.0732   -2.6406   -1.8297 H         1 <0>         0.4121
@<TRIPOS>BOND
     1    1    2 1
     2    1   22 1
     3    1   23 1
     4    1   24 1
     5    2    3 1
     6    2    4 1
     7    2   25 1
     8    3   26 1
     9    3   27 1
    10    3   28 1
    11    4    8 1
    12    4    5 1
    13    5   20 ar
    14    5    6 ar
    15    6    7 1
    16    6   17 ar
    17    7    8 2
    18    7    9 1
    19    9   14 ar
    20    9   10 ar
    21   10   11 ar
    22   10   29 1
    23   11   12 ar
    24   11   30 1
    25   12   13 ar
    26   12   16 1
    27   13   14 ar
    28   13   15 1
    29   14   31 1
    30   15   32 1
    31   17   18 ar
    32   17   21 1
    33   18   19 ar
    34   19   20 ar
    35   19   33 1
    36   21   34 1
    37   21   35 1
@<TRIPOS>MOLECULE
ZINC36056301
   39    42     0     0     0
SMALL
USER_CHARGES

@<TRIPOS>ATOM
      1 C1          0.9254    1.9991    0.1115 C.3       1 <0>        -0.1625
      2 C2          0.5644    0.5164    0.0017 C.3       1 <0>         0.1602
      3 C3         -0.9547    0.3678   -0.1037 C.3       1 <0>        -0.1630
      4 N1          1.1948   -0.0526   -1.1921 N.pl3     1 <0>        -0.3660
      5 C4          2.0845   -1.0857   -1.1960 C.ar      1 <0>         0.3791
      6 C5          2.4399   -1.3150   -2.5382 C.ar      1 <0>        -0.3289
      7 C6          1.6949   -0.3401   -3.3365 C.2       1 <0>         0.1761
      8 N2          0.9724    0.3761   -2.5050 N.2       1 <0>        -0.2098
      9 C7          1.7418   -0.1929   -4.8056 C.2       1 <0>         0.1339
     10 C8          0.6708    0.0518   -5.6025 C.2       1 <0>        -0.1346
     11 C9          1.1678    0.1218   -6.9754 C.ar      1 <0>        -0.0943
     12 C10         0.5575    0.3431   -8.2141 C.ar      1 <0>        -0.0897
     13 C11         1.3249    0.3481   -9.3611 C.ar      1 <0>         0.0805
     14 C12         2.6992    0.1341   -9.2873 C.ar      1 <0>        -0.1109
     15 C13         3.3112   -0.0854   -8.0732 C.ar      1 <0>        -0.1139
     16 C14         2.5568   -0.0941   -6.9049 C.ar      1 <0>         0.1038
     17 N3          2.8789   -0.2768   -5.5757 N.pl3     1 <0>        -0.5932
     18 H1          3.7722   -0.4418   -5.2356 H         1 <0>         0.4168
     19 O1          0.7369    0.5623  -10.5684 O.3       1 <0>        -0.4967
     20 C15         3.3555   -2.3402   -2.8244 C.ar      1 <0>         0.5168
     21 N4          3.8460   -3.0492   -1.8121 N.ar      1 <0>        -0.6021
     22 C16         3.4845   -2.7997   -0.5663 C.ar      1 <0>         0.3889
     23 N5          2.6311   -1.8502   -0.2510 N.ar      1 <0>        -0.5714
     24 N6          3.7369   -2.6060   -4.1255 N.pl3     1 <0>        -0.8317
     25 H2          2.0076    2.1050    0.1866 H         1 <0>         0.0602
     26 H3          0.5693    2.5263   -0.7736 H         1 <0>         0.0709
     27 H4          0.4564    2.4224    0.9997 H         1 <0>         0.0802
     28 H5          0.9205   -0.0108    0.8868 H         1 <0>         0.1134
     29 H6         -1.3108    0.8949   -0.9888 H         1 <0>         0.0712
     30 H7         -1.2119   -0.6886   -0.1820 H         1 <0>         0.0610
     31 H8         -1.4237    0.7911    0.7845 H         1 <0>         0.0801
     32 H9         -0.3538    0.1719   -5.2829 H         1 <0>         0.1573
     33 H10        -0.5081    0.5089   -8.2728 H         1 <0>         0.1338
     34 H11         3.2906    0.1399  -10.1910 H         1 <0>         0.1358
     35 H12         4.3776   -0.2505   -8.0283 H         1 <0>         0.1290
     36 H13         0.6969    1.4933  -10.8268 H         1 <0>         0.3892
     37 H14         3.9074   -3.3999    0.2258 H         1 <0>         0.2077
     38 H15         3.2729   -2.1806   -4.8634 H         1 <0>         0.4091
     39 H16         4.4688   -3.2179   -4.3009 H         1 <0>         0.4134
@<TRIPOS>BOND
     1    1    2 1
     2    1   25 1
     3    1   26 1
     4    1   27 1
     5    2    3 1
     6    2    4 1
     7    2   28 1
     8    3   29 1
     9    3   30 1
    10    3   31 1
    11    4    8 1
    12    4    5 1
    13    5   23 ar
    14    5    6 ar
    15    6    7 1
    16    6   20 ar
    17    7    8 2
    18    7    9 1
    19    9   17 1
    20    9   10 2
    21   10   11 1
    22   10   32 1
    23   11   16 ar
    24   11   12 ar
    25   12   13 ar
    26   12   33 1
    27   13   14 ar
    28   13   19 1
    29   14   15 ar
    30   14   34 1
    31   15   16 ar
    32   15   35 1
    33   16   17 1
    34   17   18 1
    35   19   36 1
    36   20   21 ar
    37   20   24 1
    38   21   22 ar
    39   22   23 ar
    40   22   37 1
    41   24   38 1
    42   24   39 1
@<TRIPOS>MOLECULE
ZINC36056301
   40    43     0     0     0
SMALL
NO_CHARGES

@<TRIPOS>ATOM
      1 C1          0.4668   -0.4939    1.1218 C.3       1 <0>        -0.1699
      2 C2          0.3340   -1.7615    0.2754 C.3       1 <0>         0.1613
      3 C3          1.1061   -2.9024    0.9410 C.3       1 <0>        -0.1701
      4 N1         -1.0799   -2.1284    0.1641 N.pl3     1 <0>        -0.3634
      5 C4         -1.7908   -2.2350   -1.0057 C.ar      1 <0>         0.4043
      6 C5         -3.1109   -2.6092   -0.6652 C.ar      1 <0>        -0.2157
      7 C6         -4.0447   -2.7836   -1.7054 C.ar      1 <0>         0.3985
      8 N2         -3.6387   -2.5876   -2.9589 N.ar      1 <0>        -0.5485
      9 C7         -2.3961   -2.2391   -3.2258 C.ar      1 <0>         0.3110
     10 N3         -1.4867   -2.0641   -2.2858 N.ar      1 <0>        -0.5580
     11 N4         -5.3440   -3.1479   -1.4334 N.pl3     1 <0>        -0.8571
     12 C8         -3.1685   -2.7231    0.7407 C.2       1 <0>         0.1060
     13 C9         -4.3454   -3.0906    1.5281 C.2       1 <0>         0.1145
     14 C10        -4.5167   -2.8192    2.8889 C.2       1 <0>        -0.1932
     15 C11        -5.7650   -3.3339    3.2429 C.ar      1 <0>        -0.0803
     16 C12        -6.5191   -3.3917    4.4278 C.ar      1 <0>        -0.1106
     17 C13        -7.7442   -3.9909    4.4147 C.ar      1 <0>         0.0839
     18 C14        -8.2689   -4.5512    3.2463 C.ar      1 <0>        -0.1283
     19 C15        -7.5862   -4.5260    2.0714 C.ar      1 <0>        -0.1066
     20 C16        -6.3164   -3.9222    2.0150 C.ar      1 <0>         0.0610
     21 N5         -5.4208   -3.7321    1.0501 N.pl3     1 <0>        -0.5313
     22 O1         -8.4709   -4.0448    5.5631 O.3       1 <0>        -0.5017
     23 N6         -1.9318   -2.4352    1.2329 N.pl3     1 <0>        -0.4440
     24 H1          1.5188   -0.2209    1.2046 H         1 <0>         0.0835
     25 H2         -0.0832    0.3190    0.6476 H         1 <0>         0.0676
     26 H3          0.0595   -0.6766    2.1162 H         1 <0>         0.0606
     27 H4          0.7413   -1.5787   -0.7190 H         1 <0>         0.1243
     28 H5          1.0115   -3.8055    0.3380 H         1 <0>         0.0673
     29 H6          2.1581   -2.6294    1.0238 H         1 <0>         0.0835
     30 H7          0.6988   -3.0851    1.9354 H         1 <0>         0.0606
     31 H8         -2.1102   -2.0906   -4.2566 H         1 <0>         0.1998
     32 H9         -5.8197   -2.7336   -0.6966 H         1 <0>         0.4069
     33 H10        -5.7838   -3.8189   -1.9786 H         1 <0>         0.4071
     34 H11        -3.8197   -2.3112    3.5389 H         1 <0>         0.1445
     35 H12        -6.1313   -2.9654    5.3413 H         1 <0>         0.1279
     36 H13        -9.2428   -5.0169    3.2782 H         1 <0>         0.1286
     37 H14        -8.0164   -4.9676    1.1847 H         1 <0>         0.1247
     38 H15        -9.0572   -3.2870    5.6936 H         1 <0>         0.3860
     39 H16        -1.6823   -2.4395    2.1702 H         1 <0>         0.4490
     40 H17        -5.5296   -4.0197    0.1301 H         1 <0>         0.4163
@<TRIPOS>BOND
     1    1    2 1
     2    1   24 1
     3    1   25 1
     4    1   26 1
     5    2    3 1
     6    2    4 1
     7    2   27 1
     8    3   28 1
     9    3   29 1
    10    3   30 1
    11    4   23 1
    12    4    5 1
    13    5   10 ar
    14    5    6 ar
    15    6    7 ar
    16    6   12 1
    17    7    8 ar
    18    7   11 1
    19    8    9 ar
    20    9   10 ar
    21    9   31 1
    22   11   32 1
    23   11   33 1
    24   12   13 2
    25   12   23 1
    26   13   21 1
    27   13   14 1
    28   14   15 2
    29   14   34 1
    30   15   20 ar
    31   15   16 ar
    32   16   17 ar
    33   16   35 1
    34   17   18 ar
    35   17   22 1
    36   18   19 ar
    37   18   36 1
    38   19   20 ar
    39   19   37 1
    40   20   21 2
    41   21   40 1
    42   22   38 1
    43   23   39 1
@<TRIPOS>MOLECULE
ZINC43465534
   35    37     0     0     0
SMALL
USER_CHARGES

@<TRIPOS>ATOM
      1 C1          0.4068    0.7074    0.7781 C.3       1 <0>        -0.1627
      2 C2          0.2063   -0.7277    0.2871 C.3       1 <0>         0.1599
      3 C3          0.8804   -1.6981    1.2590 C.3       1 <0>        -0.1628
      4 N1         -1.2267   -1.0239    0.2164 N.pl3     1 <0>        -0.3665
      5 C4         -1.9011   -1.3879   -0.9114 C.ar      1 <0>         0.3770
      6 C5         -3.2456   -1.5763   -0.5412 C.ar      1 <0>        -0.3202
      7 C6         -3.3233   -1.2974    0.8930 C.2       1 <0>         0.1500
      8 N2         -2.1144   -0.9832    1.2968 N.2       1 <0>        -0.2166
      9 C7         -4.5400   -1.3639    1.7350 C.ar      1 <0>         0.0405
     10 C8         -5.4108   -2.4492    1.6175 C.ar      1 <0>        -0.1236
     11 C9         -6.5343   -2.5157    2.3909 C.ar      1 <0>        -0.0350
     12 C10        -6.8185   -1.4966    3.3050 C.ar      1 <0>        -0.0471
     13 C11        -5.9488   -0.4059    3.4275 C.ar      1 <0>         0.1574
     14 C12        -4.8115   -0.3452    2.6483 C.ar      1 <0>        -0.1216
     15 F1         -6.2198    0.5812    4.3092 F         1 <0>        -0.1185
     16 C13        -7.9977   -1.5677    4.1144 C.1       1 <0>         0.2436
     17 N3         -8.9331   -1.6242    4.7564 N.1       1 <0>        -0.3868
     18 C14        -4.1666   -1.9604   -1.5294 C.ar      1 <0>         0.5185
     19 N4         -3.7251   -2.1289   -2.7722 N.ar      1 <0>        -0.6017
     20 C15        -2.4531   -1.9410   -3.0755 C.ar      1 <0>         0.3888
     21 N5         -1.5559   -1.5814   -2.1840 N.ar      1 <0>        -0.5722
     22 N6         -5.4979   -2.1588   -1.2179 N.pl3     1 <0>        -0.8291
     23 H1          1.4730    0.9278    0.8306 H         1 <0>         0.0799
     24 H2         -0.0734    1.3988    0.0856 H         1 <0>         0.0609
     25 H3         -0.0363    0.8181    1.7678 H         1 <0>         0.0705
     26 H4          0.6494   -0.8384   -0.7026 H         1 <0>         0.1133
     27 H5          0.4373   -1.5875    2.2488 H         1 <0>         0.0706
     28 H6          0.7375   -2.7206    0.9093 H         1 <0>         0.0608
     29 H7          1.9466   -1.4777    1.3116 H         1 <0>         0.0797
     30 H8         -5.1952   -3.2384    0.9125 H         1 <0>         0.1508
     31 H9         -7.2048   -3.3571    2.2960 H         1 <0>         0.1545
     32 H10        -4.1355    0.4918    2.7420 H         1 <0>         0.1555
     33 H11        -2.1372   -2.0892   -4.0976 H         1 <0>         0.2066
     34 H12        -5.8568   -1.8178   -0.3838 H         1 <0>         0.4121
     35 H13        -6.0736   -2.6390   -1.8334 H         1 <0>         0.4130
@<TRIPOS>BOND
     1    1    2 1
     2    1   23 1
     3    1   24 1
     4    1   25 1
     5    2    3 1
     6    2    4 1
     7    2   26 1
     8    3   27 1
     9    3   28 1
    10    3   29 1
    11    4    8 1
    12    4    5 1
    13    5   21 ar
    14    5    6 ar
    15    6    7 1
    16    6   18 ar
    17    7    8 2
    18    7    9 1
    19    9   14 ar
    20    9   10 ar
    21   10   11 ar
    22   10   30 1
    23   11   12 ar
    24   11   31 1
    25   12   13 ar
    26   12   16 1
    27   13   14 ar
    28   13   15 1
    29   14   32 1
    30   16   17 3
    31   18   19 ar
    32   18   22 1
    33   19   20 ar
    34   20   21 ar
    35   20   33 1
    36   22   34 1
    37   22   35 1
@<TRIPOS>MOLECULE
ZINC64521265
   46    49     0     0     0
SMALL
USER_CHARGES

@<TRIPOS>ATOM
      1 C1          0.3476   -2.5642    0.7938 C.3       1 <0>        -0.1628
      2 C2         -0.3724   -2.4367   -0.5502 C.3       1 <0>         0.1606
      3 C3         -0.6891   -3.8315   -1.0934 C.3       1 <0>        -0.1622
      4 N1         -1.6190   -1.6892   -0.3674 N.pl3     1 <0>        -0.3682
      5 C4         -1.9328   -0.5173   -0.9891 C.ar      1 <0>         0.3758
      6 C5         -3.2117   -0.1436   -0.5353 C.ar      1 <0>        -0.3225
      7 C6         -3.6371   -1.1809    0.4040 C.2       1 <0>         0.1593
      8 N2         -2.6746   -2.0702    0.4677 N.2       1 <0>        -0.2224
      9 C7         -4.9218   -1.2229    1.1432 C.ar      1 <0>        -0.0245
     10 C8         -6.1183   -0.9455    0.4812 C.ar      1 <0>        -0.0801
     11 C9         -7.3162   -0.9844    1.1672 C.ar      1 <0>        -0.1161
     12 C10        -7.3388   -1.2973    2.5117 C.ar      1 <0>        -0.0731
     13 C11        -6.1481   -1.5766    3.1861 C.ar      1 <0>        -0.1285
     14 C12        -4.9368   -1.5447    2.4966 C.ar      1 <0>        -0.0211
     15 C13        -6.1728   -1.9106    4.6256 C.2       1 <0>         0.5570
     16 O1         -5.1357   -2.1534    5.2109 O.2       1 <0>        -0.4587
     17 N3         -7.3453   -1.9460    5.2893 N.am      1 <0>        -0.6240
     18 C14        -7.3683   -2.2582    6.6345 C.2       1 <0>         0.4093
     19 N4         -6.3504   -2.5344    7.3965 N.2       1 <0>        -0.5323
     20 C15        -6.5264   -2.8706    8.7976 C.3       1 <0>         0.0491
     21 C16        -7.9176   -2.4104    9.3123 C.3       1 <0>        -0.0885
     22 S1         -8.8003   -2.3601    7.6961 S.3       1 <0>        -0.2223
     23 C17        -3.7785    1.0433   -1.0279 C.ar      1 <0>         0.5179
     24 N5         -3.0796    1.7609   -1.9021 N.ar      1 <0>        -0.6035
     25 C18        -1.8816    1.3723   -2.3010 C.ar      1 <0>         0.3866
     26 N6         -1.3117    0.2693   -1.8675 N.ar      1 <0>        -0.5726
     27 N7         -5.0310    1.4545   -0.6148 N.pl3     1 <0>        -0.8297
     28 H1          1.2751   -3.1204    0.6578 H         1 <0>         0.0793
     29 H2          0.5732   -1.5705    1.1808 H         1 <0>         0.0605
     30 H3         -0.2926   -3.0925    1.5003 H         1 <0>         0.0708
     31 H4          0.2678   -1.9084   -1.2566 H         1 <0>         0.1123
     32 H5         -1.2020   -3.7407   -2.0509 H         1 <0>         0.0601
     33 H6          0.2384   -4.3877   -1.2294 H         1 <0>         0.0792
     34 H7         -1.3293   -4.3598   -0.3870 H         1 <0>         0.0703
     35 H8         -6.1075   -0.6993   -0.5703 H         1 <0>         0.1397
     36 H9         -8.2394   -0.7687    0.6498 H         1 <0>         0.1436
     37 H10        -8.2787   -1.3258    3.0429 H         1 <0>         0.1334
     38 H11        -4.0135   -1.7645    3.0120 H         1 <0>         0.1460
     39 H12        -8.1730   -1.7523    4.8221 H         1 <0>         0.4258
     40 H13        -6.4387   -3.9501    8.9203 H         1 <0>         0.1010
     41 H14        -5.7483   -2.3813    9.3834 H         1 <0>         0.1095
     42 H15        -8.3569   -3.1421    9.9903 H         1 <0>         0.1289
     43 H16        -7.8696   -1.4222    9.7696 H         1 <0>         0.1075
     44 H17        -1.3485    1.9855   -3.0124 H         1 <0>         0.2059
     45 H18        -5.4326    1.0649    0.1775 H         1 <0>         0.4118
     46 H19        -5.5089    2.1329   -1.1171 H         1 <0>         0.4117
@<TRIPOS>BOND
     1    1    2 1
     2    1   28 1
     3    1   29 1
     4    1   30 1
     5    2    3 1
     6    2    4 1
     7    2   31 1
     8    3   32 1
     9    3   33 1
    10    3   34 1
    11    4    8 1
    12    4    5 1
    13    5   26 ar
    14    5    6 ar
    15    6    7 1
    16    6   23 ar
    17    7    8 2
    18    7    9 1
    19    9   14 ar
    20    9   10 ar
    21   10   11 ar
    22   10   35 1
    23   11   12 ar
    24   11   36 1
    25   12   13 ar
    26   12   37 1
    27   13   14 ar
    28   13   15 1
    29   14   38 1
    30   15   16 2
    31   15   17 am
    32   17   18 1
    33   17   39 1
    34   18   22 1
    35   18   19 2
    36   19   20 1
    37   20   21 1
    38   20   40 1
    39   20   41 1
    40   21   22 1
    41   21   42 1
    42   21   43 1
    43   23   24 ar
    44   23   27 1
    45   24   25 ar
    46   25   26 ar
    47   25   44 1
    48   27   45 1
    49   27   46 1
@<TRIPOS>MOLECULE
ZINC36056300
   40    43     0     0     0
SMALL
USER_CHARGES

@<TRIPOS>ATOM
      1 C1          0.4126    0.6880    0.7885 C.3       1 <0>        -0.1627
      2 C2          0.2093   -0.7440    0.2895 C.3       1 <0>         0.1569
      3 C3          0.8826   -1.7211    1.2552 C.3       1 <0>        -0.1634
      4 N1         -1.2243   -1.0374    0.2184 N.pl3     1 <0>        -0.3592
      5 C4         -1.9000   -1.3937   -0.9107 C.ar      1 <0>         0.3794
      6 C5         -3.2446   -1.5828   -0.5400 C.ar      1 <0>        -0.3179
      7 C6         -3.3202   -1.3125    0.8956 C.2       1 <0>         0.1232
      8 N2         -2.1110   -1.0014    1.2998 N.2       1 <0>        -0.2051
      9 C7         -4.5366   -1.3827    1.7391 C.ar      1 <0>         0.1178
     10 C8         -5.4061   -2.4812    1.6050 C.ar      1 <0>        -0.1519
     11 C9         -6.5306   -2.5915    2.3528 C.ar      1 <0>         0.0142
     12 C10        -6.8501   -1.5908    3.2916 C.ar      1 <0>        -0.2346
     13 C11        -5.9500   -0.4370    3.4429 C.ar      1 <0>         0.2401
     14 C12        -4.7906   -0.3737    2.6433 C.ar      1 <0>        -0.1296
     15 N3         -6.4749    0.3393    4.3746 N.pl3     1 <0>        -0.4206
     16 H1         -8.2337    0.1398    5.5248 H         1 <0>         0.4708
     17 N4         -7.6615   -0.2385    4.8390 N.pl3     1 <0>        -0.4328
     18 C13        -7.8916   -1.3947    4.1942 C.2       1 <0>         0.5311
     19 N5         -8.9722   -2.2404    4.3922 N.pl3     1 <0>        -0.7811
     20 C14        -4.1671   -1.9596   -1.5297 C.ar      1 <0>         0.5166
     21 N6         -3.7272   -2.1207   -2.7740 N.ar      1 <0>        -0.5953
     22 C15        -2.4554   -1.9324   -3.0777 C.ar      1 <0>         0.3950
     23 N7         -1.5565   -1.5799   -2.1849 N.ar      1 <0>        -0.5665
     24 N8         -5.4983   -2.1583   -1.2179 N.pl3     1 <0>        -0.8311
     25 H2          1.4792    0.9063    0.8414 H         1 <0>         0.0837
     26 H3         -0.0671    1.3841    0.1005 H         1 <0>         0.0618
     27 H4         -0.0295    0.7936    1.7793 H         1 <0>         0.0688
     28 H5          0.6513   -0.8497   -0.7013 H         1 <0>         0.1176
     29 H6          0.7377   -2.7413    0.8997 H         1 <0>         0.0624
     30 H7          1.9492   -1.5028    1.3081 H         1 <0>         0.0836
     31 H8          0.4405   -1.6155    2.2459 H         1 <0>         0.0694
     32 H9         -5.1717   -3.2546    0.8885 H         1 <0>         0.1568
     33 H10        -7.1810   -3.4447    2.2292 H         1 <0>         0.1566
     34 H11        -4.1097    0.4595    2.7357 H         1 <0>         0.1611
     35 H12        -9.0501   -3.0570    3.8746 H         1 <0>         0.4467
     36 H13        -9.6503   -2.0154    5.0483 H         1 <0>         0.4297
     37 H14        -2.1408   -2.0745   -4.1010 H         1 <0>         0.2111
     38 H15        -5.8569   -1.8183   -0.3832 H         1 <0>         0.4073
     39 H16        -6.0742   -2.6377   -1.8338 H         1 <0>         0.4151
     40 H17        -6.0974    1.1764    4.6871 H         1 <0>         0.4749
@<TRIPOS>BOND
     1    1    2 1
     2    1   25 1
     3    1   26 1
     4    1   27 1
     5    2    3 1
     6    2    4 1
     7    2   28 1
     8    3   29 1
     9    3   30 1
    10    3   31 1
    11    4    8 1
    12    4    5 1
    13    5   23 ar
    14    5    6 ar
    15    6    7 1
    16    6   20 ar
    17    7    8 2
    18    7    9 1
    19    9   14 ar
    20    9   10 ar
    21   10   11 ar
    22   10   32 1
    23   11   12 ar
    24   11   33 1
    25   12   13 ar
    26   12   18 2
    27   13   14 ar
    28   13   15 2
    29   14   34 1
    30   15   17 1
    31   15   40 1
    32   16   17 1
    33   17   18 1
    34   18   19 1
    35   19   35 1
    36   19   36 1
    37   20   21 ar
    38   20   24 1
    39   21   22 ar
    40   22   23 ar
    41   22   37 1
    42   24   38 1
    43   24   39 1
@<TRIPOS>MOLECULE
ZINC36056300
   39    42     0     0     0
SMALL
USER_CHARGES

@<TRIPOS>ATOM
      1 C1          0.4081    0.7032    0.7800 C.3       1 <0>        -0.1618
      2 C2          0.2069   -0.7312    0.2873 C.3       1 <0>         0.1609
      3 C3          0.8807   -1.7032    1.2580 C.3       1 <0>        -0.1621
      4 N1         -1.2263   -1.0267    0.2166 N.pl3     1 <0>        -0.3701
      5 C4         -1.9009   -1.3889   -0.9113 C.ar      1 <0>         0.3750
      6 C5         -3.2455   -1.5776   -0.5407 C.ar      1 <0>        -0.3215
      7 C6         -3.3224   -1.3007    0.8936 C.2       1 <0>         0.1630
      8 N2         -2.1138   -0.9869    1.2972 N.2       1 <0>        -0.2264
      9 C7         -4.5394   -1.3682    1.7366 C.ar      1 <0>         0.0337
     10 C8         -5.4112   -2.4583    1.6155 C.ar      1 <0>        -0.1607
     11 C9         -6.5335   -2.5344    2.3833 C.ar      1 <0>        -0.0251
     12 C10        -6.8222   -1.5187    3.3018 C.ar      1 <0>        -0.1880
     13 C11        -5.9521   -0.4186    3.4315 C.ar      1 <0>         0.1561
     14 C12        -4.8063   -0.3538    2.6457 C.ar      1 <0>        -0.1126
     15 N3         -6.4874    0.3998    4.3930 N.pl3     1 <0>        -0.5024
     16 N4         -7.6751   -0.1655    4.8679 N.2       1 <0>        -0.3148
     17 C13        -7.9109   -1.2946    4.2539 C.2       1 <0>         0.3617
     18 N5         -9.0056   -2.1367    4.4680 N.pl3     1 <0>        -0.8327
     19 C14        -4.1668   -1.9602   -1.5291 C.ar      1 <0>         0.5189
     20 N6         -3.7258   -2.1271   -2.7723 N.ar      1 <0>        -0.6051
     21 C15        -2.4540   -1.9390   -3.0760 C.ar      1 <0>         0.3863
     22 N7         -1.5563   -1.5804   -2.1845 N.ar      1 <0>        -0.5746
     23 N8         -5.4980   -2.1588   -1.2175 N.pl3     1 <0>        -0.8276
     24 H1          1.4744    0.9231    0.8327 H         1 <0>         0.0786
     25 H2         -0.0719    1.3956    0.0885 H         1 <0>         0.0601
     26 H3         -0.0347    0.8128    1.7700 H         1 <0>         0.0697
     27 H4          0.6497   -0.8409   -0.7026 H         1 <0>         0.1118
     28 H5          0.4378   -1.5935    2.2479 H         1 <0>         0.0700
     29 H6          0.7373   -2.7251    0.9069 H         1 <0>         0.0603
     30 H7          1.9470   -1.4833    1.3106 H         1 <0>         0.0785
     31 H8         -5.1917   -3.2441    0.9078 H         1 <0>         0.1359
     32 H9         -7.2005   -3.3779    2.2831 H         1 <0>         0.1334
     33 H10        -4.1302    0.4831    2.7395 H         1 <0>         0.1348
     34 H11        -9.0923   -2.9581    3.9594 H         1 <0>         0.4132
     35 H12        -9.6785   -1.8997    5.1251 H         1 <0>         0.4096
     36 H13        -2.1385   -2.0855   -4.0984 H         1 <0>         0.2050
     37 H14        -5.8568   -1.8182   -0.3831 H         1 <0>         0.4149
     38 H15        -6.0739   -2.6388   -1.8330 H         1 <0>         0.4105
     39 H16        -6.1031    1.2373    4.6959 H         1 <0>         0.4433
@<TRIPOS>BOND
     1    1    2 1
     2    1   24 1
     3    1   25 1
     4    1   26 1
     5    2    3 1
     6    2    4 1
     7    2   27 1
     8    3   28 1
     9    3   29 1
    10    3   30 1
    11    4    8 1
    12    4    5 1
    13    5   22 ar
    14    5    6 ar
    15    6    7 1
    16    6   19 ar
    17    7    8 2
    18    7    9 1
    19    9   14 ar
    20    9   10 ar
    21   10   11 ar
    22   10   31 1
    23   11   12 ar
    24   11   32 1
    25   12   13 ar
    26   12   17 1
    27   13   14 ar
    28   13   15 1
    29   14   33 1
    30   15   16 1
    31   15   39 1
    32   16   17 2
    33   17   18 1
    34   18   34 1
    35   18   35 1
    36   19   20 ar
    37   19   23 1
    38   20   21 ar
    39   21   22 ar
    40   21   36 1
    41   23   37 1
    42   23   38 1
@<TRIPOS>MOLECULE
ZINC03966243
   84    88     0     0     0
SMALL
USER_CHARGES
N-(4-isopropoxyphenyl)-4-[6-methoxy-7-[3-(1-piperidyl)propoxy]quinazolin-4-yl]-piperazine-1-carboxamide
@<TRIPOS>ATOM
      1 C1          6.7701    4.5264   -1.2575 C.3       1 <0>        -0.1499
      2 C2          6.4967    3.0958   -0.7889 C.3       1 <0>         0.0769
      3 C3          7.4744    2.7298    0.3295 C.3       1 <0>        -0.1825
      4 O1          5.1571    3.0025   -0.3001 O.3       1 <0>        -0.3102
      5 C4          4.5717    1.7757   -0.3338 C.ar      1 <0>         0.1230
      6 C5          5.3083    0.6665   -0.7228 C.ar      1 <0>        -0.1923
      7 C6          4.7144   -0.5798   -0.7568 C.ar      1 <0>        -0.0743
      8 C7          3.3799   -0.7224   -0.4016 C.ar      1 <0>         0.1159
      9 C8          2.6432    0.3881   -0.0124 C.ar      1 <0>        -0.1027
     10 C9          3.2383    1.6338    0.0213 C.ar      1 <0>        -0.1355
     11 N1          2.7765   -1.9869   -0.4364 N.am      1 <0>        -0.6831
     12 C10         3.4836   -3.0808   -0.0903 C.2       1 <0>         0.7095
     13 O2          4.6669   -2.9820    0.1717 O.2       1 <0>        -0.5659
     14 N2          2.8793   -4.2842   -0.0346 N.am      1 <0>        -0.6302
     15 C11         1.4784   -4.4454   -0.4527 C.3       1 <0>         0.1163
     16 C12         1.4049   -5.6100   -1.4530 C.3       1 <0>         0.0464
     17 N3          2.0146   -6.8039   -0.8522 N.pl3     1 <0>        -0.4805
     18 C13         3.4424   -6.5929   -0.5788 C.3       1 <0>         0.0482
     19 C14         3.6012   -5.4698    0.4515 C.3       1 <0>         0.1328
     20 C15         1.8226   -7.9122   -1.6510 C.ar      1 <0>         0.3962
     21 C16         0.6195   -8.6545   -1.5866 C.ar      1 <0>        -0.1386
     22 C17        -0.4268   -8.2967   -0.7272 C.ar      1 <0>        -0.1287
     23 C18        -1.5707   -9.0425   -0.7073 C.ar      1 <0>         0.1093
     24 C19        -1.7117  -10.1606   -1.5416 C.ar      1 <0>         0.1588
     25 C20        -0.6998  -10.5302   -2.3993 C.ar      1 <0>        -0.1794
     26 C21         0.4818   -9.7794   -2.4366 C.ar      1 <0>         0.1794
     27 N4          1.4973  -10.0975   -3.2547 N.ar      1 <0>        -0.5194
     28 C22         2.5920   -9.3751   -3.2679 C.ar      1 <0>         0.3256
     29 N5          2.7631   -8.3137   -2.4959 N.ar      1 <0>        -0.5577
     30 O3         -2.8592  -10.8868   -1.5038 O.3       1 <0>        -0.2941
     31 C23        -2.9427  -12.0141   -2.3780 C.3       1 <0>         0.0564
     32 C24        -4.2971  -12.7020   -2.1952 C.3       1 <0>        -0.1506
     33 C25        -4.3865  -13.9090   -3.1312 C.3       1 <0>        -0.0020
     34 C26        -5.8040  -15.1525   -1.6130 C.3       1 <0>        -0.0079
     35 C27        -7.2186  -15.7022   -1.4158 C.3       1 <0>        -0.1471
     36 C28        -7.5007  -16.7656   -2.4807 C.3       1 <0>        -0.1398
     37 C29        -7.3247  -16.1452   -3.8695 C.3       1 <0>        -0.1477
     38 C30        -5.9070  -15.5827   -3.9956 C.3       1 <0>        -0.0015
     39 O4         -2.5839   -8.6973    0.1313 O.3       1 <0>        -0.3038
     40 C31        -2.3802   -7.5484    0.9564 C.3       1 <0>         0.0216
     41 H1          6.6397    5.2137   -0.4216 H         1 <0>         0.0680
     42 H2          7.7918    4.5976   -1.6304 H         1 <0>         0.0781
     43 H3          6.0735    4.7871   -2.0543 H         1 <0>         0.0652
     44 H4          6.6271    2.4085   -1.6248 H         1 <0>         0.0735
     45 H5          7.2796    1.7107    0.6634 H         1 <0>         0.0633
     46 H6          8.4962    2.8010   -0.0433 H         1 <0>         0.0733
     47 H7          7.3440    3.4171    1.1654 H         1 <0>         0.0686
     48 H8          6.3476    0.7769   -0.9947 H         1 <0>         0.1332
     49 H9          5.2879   -1.4432   -1.0601 H         1 <0>         0.1408
     50 H10         1.6050    0.2778    0.2637 H         1 <0>         0.1308
     51 H11         2.6653    2.4978    0.3240 H         1 <0>         0.1354
     52 H12         1.8499   -2.0748   -0.7096 H         1 <0>         0.4030
     53 H13         0.8598   -4.6663    0.4171 H         1 <0>         0.0856
     54 H14         1.1308   -3.5290   -0.9296 H         1 <0>         0.0889
     55 H15         1.9431   -5.3458   -2.3633 H         1 <0>         0.0616
     56 H16         0.3620   -5.8162   -1.6938 H         1 <0>         0.0941
     57 H17         3.9521   -6.3150   -1.5013 H         1 <0>         0.0689
     58 H18         3.8770   -7.5117   -0.1852 H         1 <0>         0.0954
     59 H19         4.6578   -5.2309    0.5728 H         1 <0>         0.1082
     60 H20         3.1850   -5.7851    1.4083 H         1 <0>         0.0782
     61 H21        -0.3280   -7.4373   -0.0806 H         1 <0>         0.1573
     62 H22        -0.8167  -11.3925   -3.0389 H         1 <0>         0.1519
     63 H23         3.3895   -9.6593   -3.9384 H         1 <0>         0.1992
     64 H24        -2.8407  -11.6812   -3.4109 H         1 <0>         0.0778
     65 H25        -2.1435  -12.7168   -2.1421 H         1 <0>         0.0777
     66 H26        -4.3991  -13.0349   -1.1623 H         1 <0>         0.1002
     67 H27        -5.0963  -11.9993   -2.4311 H         1 <0>         0.1003
     68 H28        -4.2845  -13.5761   -4.1641 H         1 <0>         0.1340
     69 H29        -3.5873  -14.6117   -2.8953 H         1 <0>         0.1355
     70 H30        -5.0816  -15.9614   -1.5040 H         1 <0>         0.1310
     71 H31        -5.6051  -14.3849   -0.8651 H         1 <0>         0.1299
     72 H32        -7.9407  -14.8913   -1.5110 H         1 <0>         0.0877
     73 H33        -7.3012  -16.1486   -0.4248 H         1 <0>         0.1122
     74 H34        -8.5225  -17.1289   -2.3709 H         1 <0>         0.0942
     75 H35        -6.8042  -17.5956   -2.3615 H         1 <0>         0.0818
     76 H36        -8.0484  -15.3413   -4.0033 H         1 <0>         0.0877
     77 H37        -7.4825  -16.9083   -4.6316 H         1 <0>         0.1125
     78 H38        -5.7830  -15.1275   -4.9782 H         1 <0>         0.1289
     79 H39        -5.1842  -16.3896   -3.8752 H         1 <0>         0.1307
     80 H40        -3.2625   -7.3845    1.5752 H         1 <0>         0.1075
     81 H41        -1.5126   -7.7098    1.5962 H         1 <0>         0.0622
     82 H42        -2.2103   -6.6748    0.3272 H         1 <0>         0.0599
     83 N6         -5.7075  -14.5479   -2.9586 N.4       1 <0>        -0.3926
     84 H43        -6.4386  -13.8336   -3.0559 H         1 <0>         0.4277
@<TRIPOS>BOND
     1    1    2 1
     2    1   41 1
     3    1   42 1
     4    1   43 1
     5    2    3 1
     6    2    4 1
     7    2   44 1
     8    3   45 1
     9    3   46 1
    10    3   47 1
    11    4    5 1
    12    5   10 ar
    13    5    6 ar
    14    6    7 ar
    15    6   48 1
    16    7    8 ar
    17    7   49 1
    18    8    9 ar
    19    8   11 1
    20    9   10 ar
    21    9   50 1
    22   10   51 1
    23   11   12 am
    24   11   52 1
    25   12   13 2
    26   12   14 am
    27   14   19 1
    28   14   15 1
    29   15   16 1
    30   15   53 1
    31   15   54 1
    32   16   17 1
    33   16   55 1
    34   16   56 1
    35   17   18 1
    36   17   20 1
    37   18   19 1
    38   18   57 1
    39   18   58 1
    40   19   59 1
    41   19   60 1
    42   20   29 ar
    43   20   21 ar
    44   21   26 ar
    45   21   22 ar
    46   22   23 ar
    47   22   61 1
    48   23   24 ar
    49   23   39 1
    50   24   25 ar
    51   24   30 1
    52   25   26 ar
    53   25   62 1
    54   26   27 ar
    55   27   28 ar
    56   28   29 ar
    57   28   63 1
    58   30   31 1
    59   31   32 1
    60   31   64 1
    61   31   65 1
    62   32   33 1
    63   32   66 1
    64   32   67 1
    65   33   68 1
    66   33   69 1
    67   33   83 1
    68   34   35 1
    69   34   70 1
    70   34   71 1
    71   34   83 1
    72   35   36 1
    73   35   72 1
    74   35   73 1
    75   36   37 1
    76   36   74 1
    77   36   75 1
    78   37   38 1
    79   37   76 1
    80   37   77 1
    81   38   78 1
    82   38   79 1
    83   38   83 1
    84   39   40 1
    85   40   80 1
    86   40   81 1
    87   40   82 1
    88   83   84 1
@<TRIPOS>MOLECULE
ZINC57524293
   36    38     0     0     0
SMALL
USER_CHARGES

@<TRIPOS>ATOM
      1 C1         -0.2875    1.4782   -0.1531 C.3       1 <0>         0.0207
      2 O1         -0.5676    0.0890   -0.3366 O.3       1 <0>        -0.2991
      3 C2         -0.0342   -0.5084   -1.4356 C.ar      1 <0>         0.1148
      4 C3          0.7340    0.2233   -2.2963 C.ar      1 <0>        -0.1509
      5 C4          1.2840   -0.3908   -3.4277 C.ar      1 <0>        -0.1789
      6 C5          1.0416   -1.7651   -3.6737 C.ar      1 <0>         0.2021
      7 C6          0.2513   -2.4958   -2.7783 C.ar      1 <0>        -0.1833
      8 C7         -0.2739   -1.8695   -1.6696 C.ar      1 <0>         0.1657
      9 O2         -1.0368   -2.5773   -0.7965 O.3       1 <0>        -0.2962
     10 C8         -1.2448   -3.9603   -1.0898 C.3       1 <0>         0.0197
     11 N1          1.5812   -2.3296   -4.7656 N.ar      1 <0>        -0.5363
     12 C9          2.3179   -1.6195   -5.5863 C.ar      1 <0>         0.3398
     13 N2          2.5714   -0.3343   -5.3971 N.ar      1 <0>        -0.5798
     14 C10         2.0870    0.3212   -4.3503 C.ar      1 <0>         0.4630
     15 N3          2.3588    1.6617   -4.1660 N.pl3     1 <0>        -0.6323
     16 C11         3.0388    2.3804   -5.1559 C.ar      1 <0>         0.1450
     17 C12         3.0997    1.8903   -6.4535 C.ar      1 <0>        -0.1057
     18 C13         3.7710    2.6018   -7.4288 C.ar      1 <0>        -0.0729
     19 C14         4.3830    3.8023   -7.1148 C.ar      1 <0>        -0.0893
     20 C15         4.3250    4.2947   -5.8231 C.ar      1 <0>        -0.1008
     21 C16         3.6500    3.5899   -4.8433 C.ar      1 <0>         0.0651
     22 F1          3.5884    4.0733   -3.5832 F         1 <0>        -0.1335
     23 Br1         5.3012    4.7718   -8.4537 Br        1 <0>        -0.0352
     24 H1          0.7897    1.6240   -0.0719 H         1 <0>         0.0581
     25 H2         -0.6671    2.0411   -1.0058 H         1 <0>         0.0580
     26 H3         -0.7713    1.8291    0.7584 H         1 <0>         0.1082
     27 H4          0.9158    1.2705   -2.1049 H         1 <0>         0.1396
     28 H5          0.0584   -3.5439   -2.9535 H         1 <0>         0.1577
     29 H6         -0.2836   -4.4735   -1.1216 H         1 <0>         0.0627
     30 H7         -1.8692   -4.4061   -0.3156 H         1 <0>         0.1081
     31 H8         -1.7400   -4.0563   -2.0561 H         1 <0>         0.0628
     32 H9          2.7366   -2.1054   -6.4552 H         1 <0>         0.2014
     33 H10         2.0786    2.1058   -3.3504 H         1 <0>         0.4241
     34 H11         2.6228    0.9532   -6.7000 H         1 <0>         0.1829
     35 H12         3.8186    2.2201   -8.4380 H         1 <0>         0.1449
     36 H13         4.8039    5.2319   -5.5808 H         1 <0>         0.1497
@<TRIPOS>BOND
     1    1    2 1
     2    1   24 1
     3    1   25 1
     4    1   26 1
     5    2    3 1
     6    3    8 ar
     7    3    4 ar
     8    4    5 ar
     9    4   27 1
    10    5   14 ar
    11    5    6 ar
    12    6    7 ar
    13    6   11 ar
    14    7    8 ar
    15    7   28 1
    16    8    9 1
    17    9   10 1
    18   10   29 1
    19   10   30 1
    20   10   31 1
    21   11   12 ar
    22   12   13 ar
    23   12   32 1
    24   13   14 ar
    25   14   15 1
    26   15   16 1
    27   15   33 1
    28   16   21 ar
    29   16   17 ar
    30   17   18 ar
    31   17   34 1
    32   18   19 ar
    33   18   35 1
    34   19   20 ar
    35   19   23 1
    36   20   21 ar
    37   20   36 1
    38   21   22 1
@<TRIPOS>MOLECULE
ZINC12428433
   32    33     0     0     0
SMALL
USER_CHARGES

@<TRIPOS>ATOM
      1 C1         -0.0169    1.3954    0.0097 C.ar      1 <0>        -0.0904
      2 C2          1.1670    2.0999    0.0022 C.ar      1 <0>        -0.1322
      3 C3          2.3804    1.4253   -0.0135 C.ar      1 <0>         0.0958
      4 C4          2.4078    0.0306   -0.0212 C.ar      1 <0>         0.0793
      5 C5          1.2266   -0.6835   -0.0138 C.ar      1 <0>        -0.1038
      6 C6          0.0021   -0.0041    0.0020 C.ar      1 <0>        -0.0735
      7 C7         -1.2589   -0.7581    0.0105 C.2       1 <0>        -0.0126
      8 C8         -2.4394   -0.1004    0.0257 C.2       1 <0>        -0.2314
      9 C9         -3.6941   -0.8507    0.0342 C.2       1 <0>         0.4226
     10 O1         -3.6755   -2.0687    0.0275 O.2       1 <0>        -0.4421
     11 C10        -4.9819   -0.1332    0.0508 C.ar      1 <0>        -0.2013
     12 C11        -5.0066    1.2652    0.0527 C.ar      1 <0>        -0.0413
     13 C12        -6.2101    1.9309    0.0678 C.ar      1 <0>        -0.1682
     14 C13        -7.4056    1.2179    0.0812 C.ar      1 <0>         0.1575
     15 C14        -7.3926   -0.1691    0.0794 C.ar      1 <0>        -0.1902
     16 C15        -6.1880   -0.8506    0.0589 C.ar      1 <0>         0.1855
     17 O2         -6.1733   -2.2072    0.0519 O.3       1 <0>        -0.4786
     18 O3         -8.5888    1.8827    0.0964 O.3       1 <0>        -0.4961
     19 O4          3.5988   -0.6258   -0.0366 O.3       1 <0>        -0.4857
     20 O5          3.5442    2.1254   -0.0217 O.3       1 <0>        -0.4865
     21 H1         -0.9592    1.9228    0.0261 H         1 <0>         0.1364
     22 H2          1.1512    3.1797    0.0081 H         1 <0>         0.1394
     23 H3          1.2466   -1.7633   -0.0205 H         1 <0>         0.1407
     24 H4         -1.2424   -1.8380    0.0045 H         1 <0>         0.1381
     25 H5         -2.4560    0.9794    0.0317 H         1 <0>         0.1347
     26 H6         -4.0812    1.8220    0.0427 H         1 <0>         0.1409
     27 H7         -6.2276    3.0108    0.0696 H         1 <0>         0.1396
     28 H8         -8.3229   -0.7176    0.0899 H         1 <0>         0.1426
     29 H9         -6.1604   -2.6050    0.9333 H         1 <0>         0.3992
     30 H10        -8.9423    2.0766   -0.7825 H         1 <0>         0.4001
     31 H11         3.9520   -0.8204    0.8423 H         1 <0>         0.3901
     32 H12         3.8902    2.3237    0.8592 H         1 <0>         0.3914
@<TRIPOS>BOND
     1    1    6 ar
     2    1    2 ar
     3    1   21 1
     4    2    3 ar
     5    2   22 1
     6    3    4 ar
     7    3   20 1
     8    4    5 ar
     9    4   19 1
    10    5    6 ar
    11    5   23 1
    12    6    7 1
    13    7    8 2
    14    7   24 1
    15    8    9 1
    16    8   25 1
    17    9   10 2
    18    9   11 1
    19   11   16 ar
    20   11   12 ar
    21   12   13 ar
    22   12   26 1
    23   13   14 ar
    24   13   27 1
    25   14   15 ar
    26   14   18 1
    27   15   16 ar
    28   15   28 1
    29   16   17 1
    30   17   29 1
    31   18   30 1
    32   19   31 1
    33   20   32 1
@<TRIPOS>MOLECULE
ZINC01651145
   36    37     0     0     0
SMALL
USER_CHARGES
methyl 4-[(2,5-dihydroxyphenyl)methylamino]-2-hydroxy-benzoate
@<TRIPOS>ATOM
      1 C1          8.3988    3.1124   -9.6198 C.3       1 <0>         0.0381
      2 O1          7.5872    3.0826   -8.4162 O.3       1 <0>        -0.3615
      3 C2          7.7678    2.0392   -7.5820 C.2       1 <0>         0.5105
      4 O2          8.5813    1.1778   -7.8534 O.2       1 <0>        -0.5017
      5 C3          6.9804    1.9431   -6.3436 C.ar      1 <0>        -0.2256
      6 C4          6.0433    2.9337   -6.0283 C.ar      1 <0>         0.0050
      7 C5          5.3093    2.8414   -4.8818 C.ar      1 <0>        -0.2224
      8 C6          5.4944    1.7683   -4.0113 C.ar      1 <0>         0.2734
      9 C7          6.4206    0.7767   -4.3099 C.ar      1 <0>        -0.2429
     10 C8          7.1664    0.8571   -5.4727 C.ar      1 <0>         0.2279
     11 O3          8.0726   -0.1076   -5.7696 O.3       1 <0>        -0.4802
     12 N1          4.7452    1.6871   -2.8429 N.pl3     1 <0>        -0.7232
     13 C9          3.7678    2.7312   -2.5255 C.3       1 <0>         0.1701
     14 C10         3.0959    2.4088   -1.2156 C.ar      1 <0>        -0.1238
     15 C11         1.8416    1.8298   -1.2067 C.ar      1 <0>        -0.1094
     16 C12         1.2236    1.5328   -0.0014 C.ar      1 <0>         0.0967
     17 C13         1.8623    1.8222    1.1955 C.ar      1 <0>        -0.1182
     18 C14         3.1187    2.3958    1.1866 C.ar      1 <0>        -0.1298
     19 C15         3.7369    2.6930   -0.0192 C.ar      1 <0>         0.1171
     20 O4          4.9714    3.2633   -0.0279 O.3       1 <0>        -0.4915
     21 O5         -0.0110    0.9628    0.0073 O.3       1 <0>        -0.4967
     22 H1          8.1547    4.0018  -10.2007 H         1 <0>         0.1012
     23 H2          9.4537    3.1351   -9.3463 H         1 <0>         0.0626
     24 H3          8.1971    2.2224  -10.2161 H         1 <0>         0.0621
     25 H4          5.8974    3.7700   -6.6960 H         1 <0>         0.1404
     26 H5          4.5840    3.6059   -4.6453 H         1 <0>         0.1311
     27 H6          6.5581   -0.0557   -3.6357 H         1 <0>         0.1359
     28 H7          7.7117   -0.8404   -6.2870 H         1 <0>         0.3991
     29 H8          4.8697    0.9392   -2.2379 H         1 <0>         0.4055
     30 H9          3.0187    2.7800   -3.3157 H         1 <0>         0.0756
     31 H10         4.2757    3.6924   -2.4464 H         1 <0>         0.0760
     32 H11         1.3426    1.6082   -2.1385 H         1 <0>         0.1365
     33 H12         1.3790    1.5953    2.1342 H         1 <0>         0.1366
     34 H13         3.6177    2.6174    2.1184 H         1 <0>         0.1374
     35 H14         4.9580    4.2302   -0.0224 H         1 <0>         0.3936
     36 H15         0.0021   -0.0041    0.0020 H         1 <0>         0.3941
@<TRIPOS>BOND
     1    1    2 1
     2    1   22 1
     3    1   23 1
     4    1   24 1
     5    2    3 1
     6    3    4 2
     7    3    5 1
     8    5   10 ar
     9    5    6 ar
    10    6    7 ar
    11    6   25 1
    12    7    8 ar
    13    7   26 1
    14    8    9 ar
    15    8   12 1
    16    9   10 ar
    17    9   27 1
    18   10   11 1
    19   11   28 1
    20   12   13 1
    21   12   29 1
    22   13   14 1
    23   13   30 1
    24   13   31 1
    25   14   19 ar
    26   14   15 ar
    27   15   16 ar
    28   15   32 1
    29   16   17 ar
    30   16   21 1
    31   17   18 ar
    32   17   33 1
    33   18   19 ar
    34   18   34 1
    35   19   20 1
    36   20   35 1
    37   21   36 1
@<TRIPOS>MOLECULE
ZINC03989259
   57    59     0     0     0
SMALL
USER_CHARGES

@<TRIPOS>ATOM
      1 C1          4.7940    1.4748   -1.9580 C.3       1 <0>        -0.1866
      2 C2          5.1782    0.4845   -0.8568 C.3       1 <0>        -0.0173
      3 C3          6.5990    2.1351    0.2012 C.3       1 <0>        -0.0111
      4 C4          7.8882    1.3271    0.0399 C.3       1 <0>        -0.1890
      5 C5          4.2763    1.9385    0.8563 C.3       1 <0>        -0.0230
      6 C6          3.2014    0.9315    1.2703 C.3       1 <0>         0.0949
      7 N1          2.0151    1.6500    1.7424 N.am      1 <0>        -0.7291
      8 C7          0.9338    0.9632    2.1616 C.2       1 <0>         0.6111
      9 O1          0.9429   -0.2527    2.1478 O.2       1 <0>        -0.5184
     10 C8         -0.2621    1.6862    2.6309 C.2       1 <0>        -0.2417
     11 C9         -1.3491    2.1107    1.8372 C.2       1 <0>        -0.0585
     12 C10        -2.2403    2.7399    2.6838 C.2       1 <0>        -0.0067
     13 N2         -1.7112    2.7111    3.9576 N.pl3     1 <0>        -0.4914
     14 H1         -2.1295    3.0867    4.7480 H         1 <0>         0.4268
     15 C11        -0.5253    2.0803    3.9303 C.2       1 <0>         0.1152
     16 C12         0.3697    1.8413    5.1189 C.3       1 <0>        -0.0999
     17 C13        -3.4736    3.3170    2.3103 C.2       1 <0>         0.0707
     18 C14        -3.9268    4.4526    2.9516 C.2       1 <0>        -0.1866
     19 C15        -5.2445    5.1082    2.7974 C.ar      1 <0>        -0.0906
     20 C16        -6.3711    4.8169    2.0348 C.ar      1 <0>        -0.0550
     21 C17        -7.4810    5.6350    2.1130 C.ar      1 <0>        -0.0537
     22 C18        -7.4734    6.7373    2.9534 C.ar      1 <0>        -0.0704
     23 C19        -6.3632    7.0298    3.7190 C.ar      1 <0>        -0.1195
     24 C20        -5.2361    6.2179    3.6532 C.ar      1 <0>         0.1435
     25 N3         -4.0089    6.2840    4.3026 N.am      1 <0>        -0.6473
     26 C21        -3.2028    5.2754    3.9301 C.2       1 <0>         0.5595
     27 O2         -2.0702    5.0781    4.3329 O.2       1 <0>        -0.5145
     28 Cl1        -8.8870    5.2828    1.1575 Cl        1 <0>        -0.0549
     29 C22        -1.5083    1.9123    0.3518 C.3       1 <0>        -0.0928
     30 H2          3.9159    2.0409   -1.6474 H         1 <0>         0.0796
     31 H3          5.6233    2.1594   -2.1365 H         1 <0>         0.0812
     32 H4          4.5692    0.9296   -2.8747 H         1 <0>         0.1075
     33 H5          6.0634   -0.0734   -1.1625 H         1 <0>         0.1329
     34 H6          4.3535   -0.2075   -0.6865 H         1 <0>         0.1314
     35 H7          6.4364    2.7416   -0.6898 H         1 <0>         0.1338
     36 H8          6.6840    2.7848    1.0723 H         1 <0>         0.1297
     37 H9          8.0650    0.7412    0.9418 H         1 <0>         0.0813
     38 H10         7.7929    0.6579   -0.8152 H         1 <0>         0.0804
     39 H11         8.7250    2.0065   -0.1219 H         1 <0>         0.1070
     40 H12         3.8925    2.5714    0.0562 H         1 <0>         0.1399
     41 H13         4.5434    2.5576    1.7128 H         1 <0>         0.1368
     42 H14         3.5853    0.2986    2.0704 H         1 <0>         0.0887
     43 H15         2.9343    0.3125    0.4138 H         1 <0>         0.0889
     44 H16         2.0079    2.6199    1.7534 H         1 <0>         0.4098
     45 H17         1.0581    2.6790    5.2297 H         1 <0>         0.0839
     46 H18        -0.2383    1.7492    6.0189 H         1 <0>         0.0780
     47 H19         0.9366    0.9226    4.9679 H         1 <0>         0.0839
     48 H20        -4.0625    2.8701    1.5230 H         1 <0>         0.1587
     49 H21        -6.3755    3.9579    1.3801 H         1 <0>         0.1412
     50 H22        -8.3447    7.3730    3.0099 H         1 <0>         0.1461
     51 H23        -6.3695    7.8913    4.3703 H         1 <0>         0.1406
     52 H24        -3.7653    6.9709    4.9427 H         1 <0>         0.4218
     53 H25        -2.0209    0.9688    0.1641 H         1 <0>         0.0783
     54 H26        -2.0935    2.7326   -0.0637 H         1 <0>         0.0725
     55 H27        -0.5256    1.8919   -0.1194 H         1 <0>         0.0632
     56 N4          5.4731    1.1989    0.4030 N.4       1 <0>        -0.3919
     57 H28         5.7338    0.5137    1.1218 H         1 <0>         0.4310
@<TRIPOS>BOND
     1    1    2 1
     2    1   30 1
     3    1   31 1
     4    1   32 1
     5    2   33 1
     6    2   34 1
     7    2   56 1
     8    3    4 1
     9    3   35 1
    10    3   36 1
    11    3   56 1
    12    4   37 1
    13    4   38 1
    14    4   39 1
    15    5    6 1
    16    5   40 1
    17    5   41 1
    18    5   56 1
    19    6    7 1
    20    6   42 1
    21    6   43 1
    22    7    8 am
    23    7   44 1
    24    8    9 2
    25    8   10 1
    26   10   15 2
    27   10   11 1
    28   11   12 2
    29   11   29 1
    30   12   13 1
    31   12   17 1
    32   13   14 1
    33   13   15 1
    34   15   16 1
    35   16   45 1
    36   16   46 1
    37   16   47 1
    38   17   18 2
    39   17   48 1
    40   18   26 1
    41   18   19 1
    42   19   24 ar
    43   19   20 ar
    44   20   21 ar
    45   20   49 1
    46   21   22 ar
    47   21   28 1
    48   22   23 ar
    49   22   50 1
    50   23   24 ar
    51   23   51 1
    52   24   25 1
    53   25   26 am
    54   25   52 1
    55   26   27 2
    56   29   53 1
    57   29   54 1
    58   29   55 1
    59   56   57 1
@<TRIPOS>MOLECULE
ZINC13527454
   33    35     0     0     0
SMALL
USER_CHARGES
N-methyl-N-phenyl-quinazoline-4,6-diamine
@<TRIPOS>ATOM
      1 C1          0.5585    4.7597    1.2616 C.3       1 <0>         0.0982
      2 N1         -0.0691    5.2401    0.0281 N.pl3     1 <0>        -0.5795
      3 C2          0.5040    4.9392   -1.2108 C.ar      1 <0>         0.2124
      4 C3          1.7301    4.2892   -1.2711 C.ar      1 <0>        -0.1831
      5 C4          2.2937    3.9937   -2.4968 C.ar      1 <0>        -0.0757
      6 C5          1.6390    4.3446   -3.6632 C.ar      1 <0>        -0.1665
      7 C6          0.4206    4.9964   -3.6067 C.ar      1 <0>        -0.0746
      8 C7         -0.1513    5.2898   -2.3844 C.ar      1 <0>        -0.1763
      9 C8         -1.2263    5.9901    0.0893 C.ar      1 <0>         0.4333
     10 C9         -1.1772    7.4058    0.0797 C.ar      1 <0>        -0.0992
     11 C10         0.0312    8.1056   -0.0025 C.ar      1 <0>        -0.1750
     12 C11         0.0142    9.4855   -0.0135 C.ar      1 <0>         0.2216
     13 C12        -1.1963   10.1828    0.0513 C.ar      1 <0>        -0.1332
     14 C13        -2.3833    9.5199    0.1268 C.ar      1 <0>        -0.0541
     15 C14        -2.3997    8.1183    0.1400 C.ar      1 <0>         0.1171
     16 N2         -3.5461    7.4244    0.2135 N.ar      1 <0>        -0.4899
     17 C15        -3.5308    6.1131    0.2240 C.ar      1 <0>         0.2862
     18 N3         -2.4138    5.4049    0.1643 N.ar      1 <0>        -0.5215
     19 N4          1.2174   10.1923   -0.0894 N.pl3     1 <0>        -0.8694
     20 H1          1.2154    5.5329    1.6601 H         1 <0>         0.0567
     21 H2         -0.2134    4.5254    1.9946 H         1 <0>         0.0693
     22 H3          1.1406    3.8632    1.0478 H         1 <0>         0.0819
     23 H4          2.2423    4.0156   -0.3605 H         1 <0>         0.1264
     24 H5          3.2470    3.4884   -2.5444 H         1 <0>         0.1246
     25 H6          2.0822    4.1130   -4.6204 H         1 <0>         0.1210
     26 H7         -0.0861    5.2727   -4.5196 H         1 <0>         0.1219
     27 H8         -1.1045    5.7955   -2.3410 H         1 <0>         0.1110
     28 H9          0.9684    7.5713   -0.0523 H         1 <0>         0.1316
     29 H10        -1.1895   11.2627    0.0415 H         1 <0>         0.1370
     30 H11        -3.3098   10.0726    0.1769 H         1 <0>         0.1457
     31 H12        -4.4721    5.5871    0.2844 H         1 <0>         0.1974
     32 H13         1.2105   11.1622   -0.0971 H         1 <0>         0.4021
     33 H14         2.0595    9.7129   -0.1345 H         1 <0>         0.4027
@<TRIPOS>BOND
     1    1    2 1
     2    1   20 1
     3    1   21 1
     4    1   22 1
     5    2    3 1
     6    2    9 1
     7    3    8 ar
     8    3    4 ar
     9    4    5 ar
    10    4   23 1
    11    5    6 ar
    12    5   24 1
    13    6    7 ar
    14    6   25 1
    15    7    8 ar
    16    7   26 1
    17    8   27 1
    18    9   18 ar
    19    9   10 ar
    20   10   15 ar
    21   10   11 ar
    22   11   12 ar
    23   11   28 1
    24   12   13 ar
    25   12   19 1
    26   13   14 ar
    27   13   29 1
    28   14   15 ar
    29   14   30 1
    30   15   16 ar
    31   16   17 ar
    32   17   18 ar
    33   17   31 1
    34   19   32 1
    35   19   33 1
@<TRIPOS>MOLECULE
ZINC21982951
   60    63     0     0     0
SMALL
USER_CHARGES

@<TRIPOS>ATOM
      1 C1         -2.0700    1.6928    0.2333 C.3       1 <0>        -0.1170
      2 C2         -1.6482    0.2604    0.0301 C.ar      1 <0>        -0.0813
      3 C3         -1.8479   -0.3525   -1.1919 C.ar      1 <0>        -0.1034
      4 C4         -1.4615   -1.6665   -1.3798 C.ar      1 <0>        -0.0990
      5 C5         -0.8738   -2.3725   -0.3459 C.ar      1 <0>        -0.1046
      6 C6         -0.6714   -1.7660    0.8791 C.ar      1 <0>        -0.0220
      7 C7         -1.0534   -0.4428    1.0688 C.ar      1 <0>         0.1347
      8 N1         -0.8441    0.1769    2.3055 N.am      1 <0>        -0.6659
      9 C8         -1.2819   -0.4110    3.4365 C.2       1 <0>         0.6018
     10 O1         -1.7689   -1.5261    3.3939 O.2       1 <0>        -0.4722
     11 C9         -1.1720    0.2905    4.7149 C.2       1 <0>        -0.2635
     12 C10        -1.5472   -0.1201    5.9866 C.2       1 <0>         0.1512
     13 N2         -1.3262    0.7270    6.9599 N.2       1 <0>        -0.5510
     14 C11        -0.7756    1.9070    6.7361 C.2       1 <0>         0.2513
     15 S1         -0.5107    1.9100    5.0742 S.3       1 <0>         0.2445
     16 N3         -0.4817    2.8997    7.6498 N.pl3     1 <0>        -0.5870
     17 C12        -0.6908    2.6801    9.0050 C.ar      1 <0>         0.4543
     18 C13        -1.0534    1.4192    9.4679 C.ar      1 <0>        -0.2926
     19 C14        -1.2512    1.2508   10.8352 C.ar      1 <0>         0.4935
     20 N4         -1.0875    2.2952   11.6453 N.ar      1 <0>        -0.5328
     21 C15        -0.7435    3.4737   11.1677 C.ar      1 <0>         0.4541
     22 N5         -0.5417    3.6719    9.8809 N.ar      1 <0>        -0.5672
     23 C16        -0.5694    4.6273   12.1217 C.3       1 <0>        -0.1251
     24 N6         -1.6138    0.0143   11.3464 N.pl3     1 <0>        -0.5370
     25 C17        -2.0559   -0.1253   12.7422 C.3       1 <0>         0.1090
     26 C18        -3.3866   -0.8852   12.7576 C.3       1 <0>         0.0383
     27 N7         -3.2335   -2.1493   12.0251 N.3       1 <0>        -0.5289
     28 C19        -2.9165   -1.9105   10.6107 C.3       1 <0>         0.0343
     29 C20        -1.5725   -1.1917   10.5056 C.3       1 <0>         0.1057
     30 C21        -4.4334   -2.9856   12.1619 C.3       1 <0>         0.0545
     31 C22        -4.1483   -4.3816   11.6043 C.3       1 <0>         0.0776
     32 O2         -3.1500   -5.0191   12.4038 O.3       1 <0>        -0.5606
     33 Cl1         0.0658   -2.6526    2.1768 Cl        1 <0>        -0.0453
     34 H1         -1.2464    2.3553   -0.0328 H         1 <0>         0.0773
     35 H2         -2.9308    1.9112   -0.3987 H         1 <0>         0.0785
     36 H3         -2.3379    1.8478    1.2784 H         1 <0>         0.0640
     37 H4         -2.3069    0.1956   -2.0014 H         1 <0>         0.1372
     38 H5         -1.6193   -2.1430   -2.3361 H         1 <0>         0.1391
     39 H6         -0.5731   -3.3989   -0.4959 H         1 <0>         0.1403
     40 H7         -0.3838    1.0296    2.3489 H         1 <0>         0.4083
     41 H8         -1.9972   -1.0858    6.1634 H         1 <0>         0.2027
     42 H9         -0.1293    3.7505    7.3451 H         1 <0>         0.4460
     43 H10        -1.1784    0.5927    8.7841 H         1 <0>         0.2218
     44 H11         0.4644    4.6619   12.4652 H         1 <0>         0.1245
     45 H12        -0.8146    5.5596   11.6130 H         1 <0>         0.1071
     46 H13        -1.2322    4.4948   12.9768 H         1 <0>         0.1273
     47 H14        -1.3096   -0.6823   13.3087 H         1 <0>         0.0989
     48 H15        -2.1929    0.8619   13.1834 H         1 <0>         0.1094
     49 H16        -3.6740   -1.0944   13.7880 H         1 <0>         0.1036
     50 H17        -4.1569   -0.2794   12.2806 H         1 <0>         0.0428
     51 H18        -2.8631   -2.8634   10.0841 H         1 <0>         0.1043
     52 H19        -3.6935   -1.2904   10.1636 H         1 <0>         0.0450
     53 H20        -1.3900   -0.9091    9.4688 H         1 <0>         0.1029
     54 H21        -0.7788   -1.8532   10.8529 H         1 <0>         0.1042
     55 H22        -4.7041   -3.0633   13.2149 H         1 <0>         0.0912
     56 H23        -5.2561   -2.5340   11.6075 H         1 <0>         0.0533
     57 H24        -5.0627   -4.9745   11.6240 H         1 <0>         0.0547
     58 H25        -3.7921   -4.2970   10.5776 H         1 <0>         0.0454
     59 H26        -2.9188   -5.9101   12.1076 H         1 <0>         0.3805
     60 H27        -0.2852    4.5531    9.5669 H         1 <0>         0.4414
@<TRIPOS>BOND
     1    1    2 1
     2    1   34 1
     3    1   35 1
     4    1   36 1
     5    2    7 ar
     6    2    3 ar
     7    3    4 ar
     8    3   37 1
     9    4    5 ar
    10    4   38 1
    11    5    6 ar
    12    5   39 1
    13    6    7 ar
    14    6   33 1
    15    7    8 1
    16    8    9 am
    17    8   40 1
    18    9   10 2
    19    9   11 1
    20   11   15 1
    21   11   12 2
    22   12   13 1
    23   12   41 1
    24   13   14 2
    25   14   15 1
    26   14   16 1
    27   16   17 1
    28   16   42 1
    29   17   22 ar
    30   17   18 ar
    31   18   19 ar
    32   18   43 1
    33   19   20 ar
    34   19   24 1
    35   20   21 ar
    36   21   22 ar
    37   21   23 1
    38   22   60 1
    39   23   44 1
    40   23   45 1
    41   23   46 1
    42   24   29 1
    43   24   25 1
    44   25   26 1
    45   25   47 1
    46   25   48 1
    47   26   27 1
    48   26   49 1
    49   26   50 1
    50   27   28 1
    51   27   30 1
    52   28   29 1
    53   28   51 1
    54   28   52 1
    55   29   53 1
    56   29   54 1
    57   30   31 1
    58   30   55 1
    59   30   56 1
    60   31   32 1
    61   31   57 1
    62   31   58 1
    63   32   59 1
@<TRIPOS>MOLECULE
ZINC21982951
   60    63     0     0     0
SMALL
USER_CHARGES

@<TRIPOS>ATOM
      1 C1          3.2739    6.6585    1.8418 C.3       1 <0>        -0.1168
      2 C2          2.5810    7.9910    1.9663 C.ar      1 <0>        -0.0823
      3 C3          2.8983    9.0189    1.0995 C.ar      1 <0>        -0.1038
      4 C4          2.2635   10.2419    1.2126 C.ar      1 <0>        -0.1008
      5 C5          1.3088   10.4411    2.1933 C.ar      1 <0>        -0.1049
      6 C6          0.9869    9.4175    3.0639 C.ar      1 <0>        -0.0226
      7 C7          1.6192    8.1849    2.9486 C.ar      1 <0>         0.1373
      8 N1          1.2913    7.1440    3.8238 N.am      1 <0>        -0.6678
      9 C8          1.3128    7.3511    5.1554 C.2       1 <0>         0.6036
     10 O1          1.5184    8.4680    5.5945 O.2       1 <0>        -0.4759
     11 C9          1.0891    6.2346    6.0728 C.2       1 <0>        -0.2694
     12 C10         1.0619    6.2190    7.4604 C.2       1 <0>         0.1522
     13 N2          0.8357    5.0596    8.0247 N.2       1 <0>        -0.5060
     14 C11         0.6446    3.9678    7.3056 C.2       1 <0>         0.2464
     15 S1          0.7674    4.5141    5.7185 S.3       1 <0>         0.2029
     16 N3          0.3973    2.6842    7.7505 N.pl3     1 <0>        -0.5650
     17 C12         0.2197    2.4414    9.1063 C.ar      1 <0>         0.4999
     18 C13        -0.1342    1.1736    9.5555 C.ar      1 <0>        -0.3181
     19 C14        -0.3003    0.9817   10.9244 C.ar      1 <0>         0.4940
     20 N4         -0.1157    2.0114   11.7481 N.ar      1 <0>        -0.5712
     21 C15         0.2193    3.1978   11.2829 C.ar      1 <0>         0.4509
     22 N5          0.3911    3.4178    9.9956 N.ar      1 <0>        -0.4879
     23 C16         0.4179    4.3344   12.2523 C.3       1 <0>        -0.1253
     24 N6         -0.6531   -0.2629   11.4224 N.pl3     1 <0>        -0.5744
     25 C17        -0.9639   -0.4449   12.8484 C.3       1 <0>         0.1013
     26 C18        -2.3114   -1.1652   12.9649 C.3       1 <0>         0.0387
     27 N7         -2.2712   -2.4031   12.1749 N.3       1 <0>        -0.5277
     28 C19        -2.0835   -2.1176   10.7462 C.3       1 <0>         0.0305
     29 C20        -0.7325   -1.4351   10.5377 C.3       1 <0>         0.1149
     30 C21        -3.4796   -3.2085   12.3965 C.3       1 <0>         0.0543
     31 C22        -3.2958   -4.5889   11.7629 C.3       1 <0>         0.0774
     32 O2         -2.2472   -5.2869   12.4378 O.3       1 <0>        -0.5615
     33 Cl1        -0.2110    9.6681    4.2952 Cl        1 <0>        -0.0453
     34 H1          2.7121    6.0191    1.1609 H         1 <0>         0.0767
     35 H2          4.2810    6.8077    1.4524 H         1 <0>         0.0779
     36 H3          3.3298    6.1850    2.8220 H         1 <0>         0.0648
     37 H4          3.6435    8.8670    0.3327 H         1 <0>         0.1365
     38 H5          2.5139   11.0437    0.5337 H         1 <0>         0.1383
     39 H6          0.8148   11.3976    2.2790 H         1 <0>         0.1396
     40 H7          1.0484    6.2731    3.4723 H         1 <0>         0.4083
     41 H8          1.2191    7.1147    8.0430 H         1 <0>         0.1979
     42 H9          0.3477    1.9521    7.1161 H         1 <0>         0.4525
     43 H10        -0.2767    0.3593    8.8606 H         1 <0>         0.1835
     44 H11         1.4596    4.3615   12.5720 H         1 <0>         0.1250
     45 H12         0.1626    5.2758   11.7656 H         1 <0>         0.1301
     46 H13        -0.2249    4.1881   13.1203 H         1 <0>         0.1049
     47 H14        -0.1857   -1.0458   13.3190 H         1 <0>         0.1119
     48 H15        -1.0251    0.5276   13.3369 H         1 <0>         0.0843
     49 H16        -2.5057   -1.4068   14.0099 H         1 <0>         0.1076
     50 H17        -3.1034   -0.5184   12.5874 H         1 <0>         0.0465
     51 H18        -2.1124   -3.0499   10.1822 H         1 <0>         0.1076
     52 H19        -2.8786   -1.4576   10.3996 H         1 <0>         0.0467
     53 H20        -0.6409   -1.1170    9.4992 H         1 <0>         0.1034
     54 H21         0.0684   -2.1330   10.7819 H         1 <0>         0.1075
     55 H22        -3.6507   -3.3200   13.4672 H         1 <0>         0.0925
     56 H23        -4.3362   -2.7111   11.9416 H         1 <0>         0.0553
     57 H24        -4.2233   -5.1548   11.8494 H         1 <0>         0.0565
     58 H25        -3.0370   -4.4741   10.7103 H         1 <0>         0.0456
     59 H26        -2.0752   -6.1719   12.0881 H         1 <0>         0.3821
     60 H27        -0.2297    1.8867   12.7033 H         1 <0>         0.4392
@<TRIPOS>BOND
     1    1    2 1
     2    1   34 1
     3    1   35 1
     4    1   36 1
     5    2    7 ar
     6    2    3 ar
     7    3    4 ar
     8    3   37 1
     9    4    5 ar
    10    4   38 1
    11    5    6 ar
    12    5   39 1
    13    6    7 ar
    14    6   33 1
    15    7    8 1
    16    8    9 am
    17    8   40 1
    18    9   10 2
    19    9   11 1
    20   11   15 1
    21   11   12 2
    22   12   13 1
    23   12   41 1
    24   13   14 2
    25   14   15 1
    26   14   16 1
    27   16   17 1
    28   16   42 1
    29   17   18 ar
    30   17   22 ar
    31   18   43 1
    32   18   19 ar
    33   19   24 1
    34   19   20 ar
    35   20   60 1
    36   20   21 ar
    37   21   23 1
    38   21   22 ar
    39   23   44 1
    40   23   45 1
    41   23   46 1
    42   24   29 1
    43   24   25 1
    44   25   26 1
    45   25   47 1
    46   25   48 1
    47   26   27 1
    48   26   49 1
    49   26   50 1
    50   27   28 1
    51   27   30 1
    52   28   29 1
    53   28   51 1
    54   28   52 1
    55   29   53 1
    56   29   54 1
    57   30   31 1
    58   30   55 1
    59   30   56 1
    60   31   32 1
    61   31   57 1
    62   31   58 1
    63   32   59 1
@<TRIPOS>MOLECULE
ZINC21982951
   59    62     0     0     0
SMALL
USER_CHARGES

@<TRIPOS>ATOM
      1 C1          3.4106    6.6420    1.8847 C.3       1 <0>        -0.1165
      2 C2          2.6976    7.9659    1.9845 C.ar      1 <0>        -0.0852
      3 C3          3.0204    8.9921    1.1176 C.ar      1 <0>        -0.1055
      4 C4          2.3672   10.2073    1.2080 C.ar      1 <0>        -0.1070
      5 C5          1.3885   10.4004    2.1660 C.ar      1 <0>        -0.1064
      6 C6          1.0609    9.3785    3.0365 C.ar      1 <0>        -0.0243
      7 C7          1.7118    8.1536    2.9438 C.ar      1 <0>         0.1460
      8 N1          1.3783    7.1144    3.8189 N.am      1 <0>        -0.6734
      9 C8          1.3676    7.3308    5.1492 C.2       1 <0>         0.6131
     10 O1          1.5489    8.4533    5.5848 O.2       1 <0>        -0.4899
     11 C9          1.1384    6.2176    6.0693 C.2       1 <0>        -0.3092
     12 C10         1.0807    6.2111    7.4561 C.2       1 <0>         0.1722
     13 N2          0.8573    5.0526    8.0233 N.2       1 <0>        -0.5180
     14 C11         0.6966    3.9535    7.3079 C.2       1 <0>         0.3121
     15 S1          0.8472    4.4907    5.7202 S.3       1 <0>         0.1340
     16 N3          0.4564    2.6698    7.7563 N.pl3     1 <0>        -0.5904
     17 C12         0.2490    2.4343    9.1091 C.ar      1 <0>         0.4412
     18 C13        -0.1036    1.1661    9.5586 C.ar      1 <0>        -0.3412
     19 C14        -0.3003    0.9817   10.9244 C.ar      1 <0>         0.4686
     20 N4         -0.1450    2.0186   11.7452 N.ar      1 <0>        -0.5923
     21 C15         0.1898    3.2050   11.2799 C.ar      1 <0>         0.3946
     22 N5          0.3901    3.4182    9.9956 N.ar      1 <0>        -0.5459
     23 C16         0.3546    4.3498   12.2460 C.3       1 <0>        -0.0834
     24 N6         -0.6531   -0.2629   11.4224 N.pl3     1 <0>        -0.5966
     25 C17        -1.0693   -0.4249   12.8237 C.3       1 <0>         0.1300
     26 C18        -2.3993   -1.1856   12.8517 C.3       1 <0>         0.0401
     27 N7         -2.2595   -2.4378   12.0965 N.3       1 <0>        -0.5276
     28 C19        -1.9688   -2.1765   10.6804 C.3       1 <0>         0.0363
     29 C20        -0.6270   -1.4554   10.5619 C.3       1 <0>         0.1269
     30 C21        -3.4565   -3.2768   12.2420 C.3       1 <0>         0.0537
     31 C22        -3.1814   -4.6636   11.6572 C.3       1 <0>         0.0792
     32 O2         -2.1684   -5.3132   12.4279 O.3       1 <0>        -0.5589
     33 Cl1        -0.1672    9.6214    4.2392 Cl        1 <0>        -0.0433
     34 H1          2.8725    5.9906    1.1961 H         1 <0>         0.0754
     35 H2          4.4240    6.8020    1.5166 H         1 <0>         0.0754
     36 H3          3.4510    6.1760    2.8692 H         1 <0>         0.0676
     37 H4          3.7844    8.8450    0.3685 H         1 <0>         0.1337
     38 H5          2.6220   11.0077    0.5292 H         1 <0>         0.1350
     39 H6          0.8801   11.3508    2.2339 H         1 <0>         0.1371
     40 H7          1.1547    6.2381    3.4683 H         1 <0>         0.4085
     41 H8          1.2132    7.1127    8.0357 H         1 <0>         0.1884
     42 H9          0.4325    1.9325    7.1264 H         1 <0>         0.4387
     43 H10        -0.2220    0.3459    8.8660 H         1 <0>         0.1413
     44 H11         1.3882    4.3890   12.5900 H         1 <0>         0.0870
     45 H12         0.1021    5.2855   11.7470 H         1 <0>         0.0890
     46 H13        -0.3072    4.2031   13.0995 H         1 <0>         0.0846
     47 H14        -0.3126   -0.9904   13.3674 H         1 <0>         0.0744
     48 H15        -1.1984    0.5551   13.2831 H         1 <0>         0.1008
     49 H16        -2.6676   -1.4113   13.8837 H         1 <0>         0.0903
     50 H17        -3.1785   -0.5727   12.3986 H         1 <0>         0.0372
     51 H18        -1.9249   -3.1208   10.1378 H         1 <0>         0.0905
     52 H19        -2.7540   -1.5497   10.2576 H         1 <0>         0.0380
     53 H20        -0.4638   -1.1563    9.5265 H         1 <0>         0.0877
     54 H21         0.1731   -2.1219   10.8840 H         1 <0>         0.0802
     55 H22        -3.7077   -3.3713   13.2985 H         1 <0>         0.0861
     56 H23        -4.2894   -2.8169   11.7102 H         1 <0>         0.0487
     57 H24        -4.0952   -5.2572   11.6843 H         1 <0>         0.0498
     58 H25        -2.8443   -4.5626   10.6256 H         1 <0>         0.0451
     59 H26        -1.9426   -6.1994   12.1134 H         1 <0>         0.3762
@<TRIPOS>BOND
     1    1    2 1
     2    1   34 1
     3    1   35 1
     4    1   36 1
     5    2    7 ar
     6    2    3 ar
     7    3    4 ar
     8    3   37 1
     9    4    5 ar
    10    4   38 1
    11    5    6 ar
    12    5   39 1
    13    6    7 ar
    14    6   33 1
    15    7    8 1
    16    8    9 am
    17    8   40 1
    18    9   10 2
    19    9   11 1
    20   11   15 1
    21   11   12 2
    22   12   13 1
    23   12   41 1
    24   13   14 2
    25   14   15 1
    26   14   16 1
    27   16   17 1
    28   16   42 1
    29   17   18 ar
    30   17   22 ar
    31   18   43 1
    32   18   19 ar
    33   19   24 1
    34   19   20 ar
    35   20   21 ar
    36   21   23 1
    37   21   22 ar
    38   23   44 1
    39   23   45 1
    40   23   46 1
    41   24   29 1
    42   24   25 1
    43   25   26 1
    44   25   47 1
    45   25   48 1
    46   26   27 1
    47   26   49 1
    48   26   50 1
    49   27   28 1
    50   27   30 1
    51   28   29 1
    52   28   51 1
    53   28   52 1
    54   29   53 1
    55   29   54 1
    56   30   31 1
    57   30   55 1
    58   30   56 1
    59   31   32 1
    60   31   57 1
    61   31   58 1
    62   32   59 1
@<TRIPOS>MOLECULE
ZINC21982951
   61    64     0     0     0
SMALL
USER_CHARGES

@<TRIPOS>ATOM
      1 C1          3.2770    6.6581    1.8427 C.3       1 <0>        -0.1166
      2 C2          2.5837    7.9904    1.9667 C.ar      1 <0>        -0.0814
      3 C3          2.9012    9.0183    1.0999 C.ar      1 <0>        -0.1028
      4 C4          2.2660   10.2411    1.2125 C.ar      1 <0>        -0.0975
      5 C5          1.3108   10.4402    2.1928 C.ar      1 <0>        -0.1039
      6 C6          0.9888    9.4167    3.0634 C.ar      1 <0>        -0.0218
      7 C7          1.6215    8.1842    2.9485 C.ar      1 <0>         0.1327
      8 N1          1.2933    7.1433    3.8237 N.am      1 <0>        -0.6648
      9 C8          1.3141    7.3507    5.1552 C.2       1 <0>         0.5983
     10 O1          1.5193    8.4677    5.5943 O.2       1 <0>        -0.4690
     11 C9          1.0903    6.2342    6.0727 C.2       1 <0>        -0.2500
     12 C10         1.0624    6.2188    7.4604 C.2       1 <0>         0.1439
     13 N2          0.8362    5.0594    8.0246 N.2       1 <0>        -0.4984
     14 C11         0.6458    3.9675    7.3056 C.2       1 <0>         0.2172
     15 S1          0.7692    4.5136    5.7185 S.3       1 <0>         0.2242
     16 N3          0.3986    2.6839    7.7506 N.pl3     1 <0>        -0.5513
     17 C12         0.2203    2.4413    9.1063 C.ar      1 <0>         0.5098
     18 C13        -0.1335    1.1734    9.5556 C.ar      1 <0>        -0.3097
     19 C14        -0.3003    0.9817   10.9244 C.ar      1 <0>         0.4927
     20 N4         -0.1163    2.0116   11.7481 N.ar      1 <0>        -0.5695
     21 C15         0.2187    3.1980   11.2828 C.ar      1 <0>         0.4589
     22 N5          0.3911    3.4178    9.9956 N.ar      1 <0>        -0.4762
     23 C16         0.4165    4.3348   12.2521 C.3       1 <0>        -0.1303
     24 N6         -0.6531   -0.2629   11.4224 N.pl3     1 <0>        -0.6123
     25 C17        -0.9643   -0.4465   12.8484 C.3       1 <0>         0.0782
     26 C18        -2.3027   -1.1838   12.9625 C.3       1 <0>        -0.0204
     27 N7         -2.2406   -2.4311   12.1903 N.4       1 <0>        -0.3852
     28 C19        -2.0770   -2.1279   10.7629 C.3       1 <0>        -0.0304
     29 C20        -0.7330   -1.4363   10.5388 C.3       1 <0>         0.0932
     30 C21        -3.4827   -3.1900   12.3886 C.3       1 <0>        -0.0061
     31 C22        -3.3702   -4.5448   11.6865 C.3       1 <0>         0.0434
     32 O2         -2.3479   -5.3224   12.3128 O.3       1 <0>        -0.5819
     33 Cl1        -0.2098    9.6671    4.2940 Cl        1 <0>        -0.0466
     34 H1          2.7157    6.0184    1.1617 H         1 <0>         0.0770
     35 H2          4.2843    6.8074    1.4538 H         1 <0>         0.0791
     36 H3          3.3325    6.1847    2.8230 H         1 <0>         0.0631
     37 H4          3.6468    8.8665    0.3335 H         1 <0>         0.1380
     38 H5          2.5166   11.0428    0.5336 H         1 <0>         0.1401
     39 H6          0.8165   11.3966    2.2780 H         1 <0>         0.1410
     40 H7          1.0508    6.2723    3.4722 H         1 <0>         0.4077
     41 H8          1.2191    7.1146    8.0429 H         1 <0>         0.2016
     42 H9          0.3494    1.9517    7.1163 H         1 <0>         0.4545
     43 H10        -0.2756    0.3590    8.8607 H         1 <0>         0.1860
     44 H11         1.4581    4.3621   12.5724 H         1 <0>         0.1309
     45 H12         0.1613    5.2760   11.7653 H         1 <0>         0.1358
     46 H13        -0.2267    4.1885   13.1199 H         1 <0>         0.1083
     47 H14        -0.1795   -1.0367   13.3215 H         1 <0>         0.1249
     48 H15        -1.0392    0.5259   13.3352 H         1 <0>         0.1232
     49 H16        -2.5028   -1.4138   14.0090 H         1 <0>         0.1602
     50 H17        -3.0999   -0.5526   12.5701 H         1 <0>         0.1410
     51 H18        -2.1110   -3.0537   10.1885 H         1 <0>         0.1585
     52 H19        -2.8811   -1.4682   10.4370 H         1 <0>         0.1418
     53 H20        -0.6550   -1.1179    9.4992 H         1 <0>         0.1416
     54 H21         0.0756   -2.1281   10.7747 H         1 <0>         0.1211
     55 H22        -3.6469   -3.3459   13.4548 H         1 <0>         0.1465
     56 H23        -4.3202   -2.6321   11.9697 H         1 <0>         0.1464
     57 H24        -4.3221   -5.0710   11.7578 H         1 <0>         0.1026
     58 H25        -3.1180   -4.3904   10.6374 H         1 <0>         0.0719
     59 H26        -2.2211   -6.1961   11.9183 H         1 <0>         0.4154
     60 H27        -0.2308    1.8869   12.7032 H         1 <0>         0.4393
     61 H28        -1.4578   -2.9831   12.5075 H         1 <0>         0.4359
@<TRIPOS>BOND
     1    1    2 1
     2    1   34 1
     3    1   35 1
     4    1   36 1
     5    2    7 ar
     6    2    3 ar
     7    3    4 ar
     8    3   37 1
     9    4    5 ar
    10    4   38 1
    11    5    6 ar
    12    5   39 1
    13    6    7 ar
    14    6   33 1
    15    7    8 1
    16    8    9 am
    17    8   40 1
    18    9   10 2
    19    9   11 1
    20   11   15 1
    21   11   12 2
    22   12   13 1
    23   12   41 1
    24   13   14 2
    25   14   15 1
    26   14   16 1
    27   16   17 1
    28   16   42 1
    29   17   18 ar
    30   17   22 ar
    31   18   43 1
    32   18   19 ar
    33   19   24 1
    34   19   20 ar
    35   20   60 1
    36   20   21 ar
    37   21   23 1
    38   21   22 ar
    39   23   44 1
    40   23   45 1
    41   23   46 1
    42   24   29 1
    43   24   25 1
    44   25   26 1
    45   25   47 1
    46   25   48 1
    47   26   27 1
    48   26   49 1
    49   26   50 1
    50   27   28 1
    51   27   30 1
    52   27   61 1
    53   28   29 1
    54   28   51 1
    55   28   52 1
    56   29   53 1
    57   29   54 1
    58   30   31 1
    59   30   55 1
    60   30   56 1
    61   31   32 1
    62   31   57 1
    63   31   58 1
    64   32   59 1
@<TRIPOS>MOLECULE
ZINC13588397
   46    49     0     0     0
SMALL
USER_CHARGES
N-(4-benzyloxyphenyl)-6-methoxy-quinazolin-4-amine
@<TRIPOS>ATOM
      1 C1         -0.3317    7.8324    0.5243 C.3       1 <0>         0.0238
      2 O1         -0.5717    6.4478    0.2650 O.3       1 <0>        -0.3140
      3 C2          0.3969    5.5722    0.6429 C.ar      1 <0>         0.1177
      4 C3          1.5591    6.0480    1.2544 C.ar      1 <0>        -0.1494
      5 C4          2.5467    5.1942    1.6433 C.ar      1 <0>        -0.0649
      6 C5          2.4006    3.8167    1.4300 C.ar      1 <0>         0.1569
      7 C6          1.2265    3.3288    0.8060 C.ar      1 <0>        -0.1526
      8 C7          0.2230    4.2235    0.4188 C.ar      1 <0>        -0.1201
      9 C8          1.1048    1.9316    0.6082 C.ar      1 <0>         0.4627
     10 N1          2.1010    1.1530    1.0090 N.ar      1 <0>        -0.5771
     11 C9          3.1822    1.6551    1.5839 C.ar      1 <0>         0.3349
     12 N2          3.3470    2.9389    1.7965 N.ar      1 <0>        -0.5392
     13 N3         -0.0169    1.3957    0.0097 N.pl3     1 <0>        -0.6353
     14 C10        -0.0665    0.0284   -0.2866 C.ar      1 <0>         0.1114
     15 C11         1.0869   -0.6406   -0.6748 C.ar      1 <0>        -0.0657
     16 C12         1.0382   -1.9905   -0.9618 C.ar      1 <0>        -0.1895
     17 C13        -0.1646   -2.6759   -0.8731 C.ar      1 <0>         0.1188
     18 C14        -1.3183   -2.0071   -0.4909 C.ar      1 <0>        -0.1316
     19 C15        -1.2702   -0.6585   -0.1980 C.ar      1 <0>        -0.1026
     20 O2         -0.2127   -4.0041   -1.1605 O.3       1 <0>        -0.3085
     21 C16         1.0129   -4.6289   -1.5473 C.3       1 <0>         0.1021
     22 C17         0.7665   -6.0896   -1.8244 C.ar      1 <0>        -0.0981
     23 C18         0.8901   -7.0166   -0.8064 C.ar      1 <0>        -0.0953
     24 C19         0.6589   -8.3558   -1.0593 C.ar      1 <0>        -0.1230
     25 C20         0.3148   -8.7693   -2.3327 C.ar      1 <0>        -0.1093
     26 C21         0.1967   -7.8430   -3.3519 C.ar      1 <0>        -0.1233
     27 C22         0.4223   -6.5031   -3.0977 C.ar      1 <0>        -0.0956
     28 H1         -1.1805    8.4200    0.1745 H         1 <0>         0.1042
     29 H2         -0.2017    7.9841    1.5959 H         1 <0>         0.0584
     30 H3          0.5701    8.1492    0.0005 H         1 <0>         0.0584
     31 H4          1.6767    7.1086    1.4210 H         1 <0>         0.1415
     32 H5          3.4397    5.5777    2.1142 H         1 <0>         0.1465
     33 H6         -0.6775    3.8611   -0.0547 H         1 <0>         0.1349
     34 H7          3.9644    0.9770    1.8916 H         1 <0>         0.1963
     35 H8         -0.7696    1.9670   -0.2094 H         1 <0>         0.4210
     36 H9          2.0226   -0.1062   -0.7482 H         1 <0>         0.1378
     37 H10         1.9360   -2.5120   -1.2591 H         1 <0>         0.1312
     38 H11        -2.2543   -2.5414   -0.4221 H         1 <0>         0.1352
     39 H12        -2.1684   -0.1382    0.1002 H         1 <0>         0.1321
     40 H13         1.3976   -4.1483   -2.4469 H         1 <0>         0.0717
     41 H14         1.7412   -4.5296   -0.7425 H         1 <0>         0.0725
     42 H15         1.1633   -6.6940    0.1875 H         1 <0>         0.1246
     43 H16         0.7508   -9.0795   -0.2629 H         1 <0>         0.1258
     44 H17         0.1378   -9.8161   -2.5311 H         1 <0>         0.1247
     45 H18        -0.0722   -8.1661   -4.3468 H         1 <0>         0.1257
     46 H19         0.3301   -5.7794   -3.8940 H         1 <0>         0.1242
@<TRIPOS>BOND
     1    1    2 1
     2    1   28 1
     3    1   29 1
     4    1   30 1
     5    2    3 1
     6    3    8 ar
     7    3    4 ar
     8    4    5 ar
     9    4   31 1
    10    5    6 ar
    11    5   32 1
    12    6   12 ar
    13    6    7 ar
    14    7    8 ar
    15    7    9 ar
    16    8   33 1
    17    9   10 ar
    18    9   13 1
    19   10   11 ar
    20   11   12 ar
    21   11   34 1
    22   13   14 1
    23   13   35 1
    24   14   19 ar
    25   14   15 ar
    26   15   16 ar
    27   15   36 1
    28   16   17 ar
    29   16   37 1
    30   17   18 ar
    31   17   20 1
    32   18   19 ar
    33   18   38 1
    34   19   39 1
    35   20   21 1
    36   21   22 1
    37   21   40 1
    38   21   41 1
    39   22   27 ar
    40   22   23 ar
    41   23   24 ar
    42   23   42 1
    43   24   25 ar
    44   24   43 1
    45   25   26 ar
    46   25   44 1
    47   26   27 ar
    48   26   45 1
    49   27   46 1
@<TRIPOS>MOLECULE
ZINC03814434
   62    69     0     0     0
SMALL
USER_CHARGES

@<TRIPOS>ATOM
      1 C1         -0.1295    1.5952   -0.2973 C.3       1 <0>        -0.1687
      2 C2         -0.0862    0.0696   -0.1900 C.3       1 <0>         0.3342
      3 C3          0.5692   -0.4501   -1.4637 C.3       1 <0>         0.0405
      4 H1          1.4796    0.1159   -1.6612 H         1 <0>         0.1372
      5 C4          0.9167   -1.9328   -1.2889 C.3       1 <0>        -0.0061
      6 H2          1.3963   -2.3075   -2.1932 H         1 <0>         0.1555
      7 C5          1.8785   -2.0596   -0.1021 C.3       1 <0>        -0.1827
      8 C6          1.2061   -1.5198    1.1541 C.3       1 <0>         0.2999
      9 H3          1.9797   -1.4243    1.9161 H         1 <0>         0.1550
     10 O1          0.6555   -0.2442    0.9666 O.3       1 <0>        -0.3234
     11 N1          0.2189   -2.4746    1.6600 N.pl3     1 <0>        -0.5366
     12 C7          0.4705   -3.5508    2.4739 C.ar      1 <0>         0.1469
     13 C8          1.6649   -4.0152    3.0240 C.ar      1 <0>        -0.1522
     14 C9          1.5948   -5.1456    3.8201 C.ar      1 <0>        -0.0582
     15 C10         0.4006   -5.7997    4.0696 C.ar      1 <0>        -0.1457
     16 C11        -0.7984   -5.3597    3.5358 C.ar      1 <0>        -0.0280
     17 C12        -0.7487   -4.2198    2.7307 C.ar      1 <0>        -0.1131
     18 C13        -1.7893   -3.4830    2.0197 C.ar      1 <0>         0.0276
     19 C14        -1.1442   -2.4197    1.3841 C.ar      1 <0>         0.0376
     20 C15        -1.8806   -1.5095    0.6175 C.ar      1 <0>         0.0894
     21 N2         -1.4718   -0.3951   -0.1095 N.pl3     1 <0>        -0.5183
     22 C16        -2.5611    0.1913   -0.7090 C.ar      1 <0>         0.1618
     23 C17        -2.6521    1.3277   -1.5118 C.ar      1 <0>        -0.1305
     24 C18        -3.9109    1.6745   -1.9733 C.ar      1 <0>        -0.0737
     25 C19        -5.0393    0.9368   -1.6616 C.ar      1 <0>        -0.1358
     26 C20        -4.9745   -0.1955   -0.8662 C.ar      1 <0>        -0.0503
     27 C21        -3.7147   -0.5596   -0.3919 C.ar      1 <0>        -0.1042
     28 C22        -3.2693   -1.6660    0.4845 C.ar      1 <0>        -0.0360
     29 C23        -3.9084   -2.7313    1.1102 C.ar      1 <0>        -0.0288
     30 C24        -3.1873   -3.6421    1.8754 C.ar      1 <0>        -0.1255
     31 C25        -4.1221   -4.6480    2.4030 C.2       1 <0>         0.5632
     32 O2         -3.8062   -5.5851    3.1110 O.2       1 <0>        -0.5106
     33 N3         -5.3744   -4.3851    1.9926 N.am      1 <0>        -0.7162
     34 C26        -5.3495   -3.1771    1.1601 C.3       1 <0>         0.1358
     35 N4         -0.3067   -2.7008   -1.0216 N.4       1 <0>        -0.5252
     36 C27         0.0145   -4.1336   -0.9773 C.3       1 <0>        -0.0497
     37 O3         -0.3340   -0.2979   -2.5607 O.3       1 <0>        -0.3614
     38 C28         0.3101   -0.0933   -3.8198 C.3       1 <0>         0.0162
     39 H4          0.8261    2.0094    0.0240 H         1 <0>         0.0984
     40 H5         -0.3202    1.8814   -1.3317 H         1 <0>         0.1036
     41 H6         -0.9255    1.9818    0.3392 H         1 <0>         0.0921
     42 H7          2.1370   -3.1081    0.0458 H         1 <0>         0.1233
     43 H8          2.7835   -1.4869   -0.3048 H         1 <0>         0.1455
     44 H9          2.6036   -3.5149    2.8368 H         1 <0>         0.1365
     45 H10         2.5026   -5.5304    4.2610 H         1 <0>         0.1359
     46 H11         0.4045   -6.6780    4.6980 H         1 <0>         0.1352
     47 H12        -1.7278   -5.8736    3.7323 H         1 <0>         0.1600
     48 H13        -1.7792    1.9122   -1.7624 H         1 <0>         0.1440
     49 H14        -4.0153    2.5500   -2.5970 H         1 <0>         0.1336
     50 H15        -5.9967    1.2527   -2.0488 H         1 <0>         0.1332
     51 H16        -5.8575   -0.7687   -0.6249 H         1 <0>         0.1415
     52 H17        -6.1628   -4.9065    2.2103 H         1 <0>         0.4348
     53 H18        -5.9671   -2.3994    1.6094 H         1 <0>         0.1115
     54 H19        -5.7060   -3.4063    0.1559 H         1 <0>         0.1103
     55 H20        -0.6958   -2.4158   -0.1353 H         1 <0>         0.4186
     56 H21         0.4349   -4.4415   -1.9347 H         1 <0>         0.1256
     57 H22         0.7403   -4.3189   -0.1854 H         1 <0>         0.1191
     58 H23        -0.8932   -4.7035   -0.7789 H         1 <0>         0.1256
     59 H24         0.9168    0.8112   -3.7748 H         1 <0>         0.0633
     60 H25         0.9482   -0.9479   -4.0446 H         1 <0>         0.0514
     61 H26        -0.4433    0.0130   -4.6003 H         1 <0>         0.1100
     62 H27        -0.9785   -2.5293   -1.7546 H         1 <0>         0.4274
@<TRIPOS>BOND
     1    1    2 1
     2    1   39 1
     3    1   40 1
     4    1   41 1
     5    2   10 1
     6    2   21 1
     7    2    3 1
     8    3    4 1
     9    3    5 1
    10    3   37 1
    11    5    6 1
    12    5    7 1
    13    5   35 1
    14    7    8 1
    15    7   42 1
    16    7   43 1
    17    8    9 1
    18    8   10 1
    19    8   11 1
    20   11   19 1
    21   11   12 1
    22   12   17 ar
    23   12   13 ar
    24   13   14 ar
    25   13   44 1
    26   14   15 ar
    27   14   45 1
    28   15   16 ar
    29   15   46 1
    30   16   17 ar
    31   16   47 1
    32   17   18 1
    33   18   30 ar
    34   18   19 ar
    35   19   20 ar
    36   20   28 ar
    37   20   21 1
    38   21   22 1
    39   22   27 ar
    40   22   23 ar
    41   23   24 ar
    42   23   48 1
    43   24   25 ar
    44   24   49 1
    45   25   26 ar
    46   25   50 1
    47   26   27 ar
    48   26   51 1
    49   27   28 1
    50   28   29 ar
    51   29   34 1
    52   29   30 ar
    53   30   31 1
    54   31   32 2
    55   31   33 am
    56   33   34 1
    57   33   52 1
    58   34   53 1
    59   34   54 1
    60   35   36 1
    61   35   55 1
    62   35   62 1
    63   36   56 1
    64   36   57 1
    65   36   58 1
    66   37   38 1
    67   38   59 1
    68   38   60 1
    69   38   61 1
@<TRIPOS>MOLECULE
ZINC06717782
   67    72     0     0     0
SMALL
USER_CHARGES
morpholin-3-ylmethyl [5-[1-[(3-fluorophenyl)methyl]indazol-5-yl]amino-7-methyl-1,2,4-triazabicyclo[4.3.0]nona-2,4,6,8-tetraen-8-yl]aminoformate
@<TRIPOS>ATOM
      1 C1          0.2962   -6.9101    4.7585 C.3       1 <0>        -0.0941
      2 C2          0.3825   -6.1089    6.0319 C.2       1 <0>        -0.1078
      3 C3          0.2931   -6.6068    7.3369 C.2       1 <0>         0.0740
      4 C4          0.4199   -5.5542    8.1951 C.2       1 <0>         0.0579
      5 N1          0.5850   -4.4193    7.4764 N.pl3     1 <0>        -0.2280
      6 C5          0.5645   -4.7431    6.1333 C.2       1 <0>        -0.0825
      7 C6          0.7204   -3.7052    5.1862 C.2       1 <0>         0.5250
      8 N2          0.8858   -2.4632    5.6110 N.2       1 <0>        -0.6045
      9 C7          0.8980   -2.1654    6.9089 C.2       1 <0>         0.3361
     10 N3          0.7597   -3.0750    7.8342 N.2       1 <0>        -0.3478
     11 N4          0.7060   -3.9852    3.8334 N.pl3     1 <0>        -0.6187
     12 C8          0.7448   -2.9408    2.9019 C.ar      1 <0>         0.1014
     13 C9          0.1166   -1.7286    3.1913 C.ar      1 <0>        -0.0501
     14 C10         0.1421   -0.6984    2.2965 C.ar      1 <0>        -0.1226
     15 C11         0.8004   -0.8477    1.0781 C.ar      1 <0>         0.1294
     16 C12         1.4375   -2.0661    0.7756 C.ar      1 <0>        -0.1631
     17 C13         1.4040   -3.1152    1.7014 C.ar      1 <0>        -0.0595
     18 C14         2.0244   -1.9047   -0.5508 C.2       1 <0>         0.0748
     19 N5          1.7415   -0.7036   -0.9680 N.2       1 <0>        -0.2412
     20 N6          0.9983   -0.0212    0.0006 N.pl3     1 <0>        -0.3992
     21 C15         0.5049    1.3530   -0.1187 C.3       1 <0>         0.1821
     22 C16         1.5352    2.3060    0.4303 C.ar      1 <0>        -0.0922
     23 C17         2.5071    2.8282   -0.4032 C.ar      1 <0>        -0.1020
     24 C18         3.4530    3.7021    0.0990 C.ar      1 <0>        -0.0908
     25 C19         3.4277    4.0556    1.4350 C.ar      1 <0>        -0.1432
     26 C20         2.4549    3.5338    2.2703 C.ar      1 <0>         0.0982
     27 C21         1.5049    2.6621    1.7650 C.ar      1 <0>        -0.1343
     28 F1          2.4295    3.8783    3.5764 F         1 <0>        -0.1366
     29 N7          0.1065   -7.9529    7.6988 N.am      1 <0>        -0.6055
     30 C22         0.0376   -8.2975    9.0000 C.2       1 <0>         0.6543
     31 O1          0.1368   -7.4450    9.8604 O.2       1 <0>        -0.5400
     32 O2         -0.1411   -9.5864    9.3466 O.3       1 <0>        -0.3809
     33 C23        -0.2057   -9.8844   10.7662 C.3       1 <0>         0.0612
     34 C24        -0.4106  -11.3878   10.9629 C.3       1 <0>         0.0017
     35 H1         -1.2925  -11.7105   10.4096 H         1 <0>         0.1613
     36 C25        -0.6035  -11.6869   12.4520 C.3       1 <0>         0.0444
     37 O3         -0.7194  -13.1002   12.6380 O.3       1 <0>        -0.3484
     38 C26         0.4139  -13.8372   12.1713 C.3       1 <0>         0.0311
     39 C27         0.6171  -13.5598   10.6795 C.3       1 <0>        -0.0388
     40 H2          1.3014   -7.1375    4.4035 H         1 <0>         0.0796
     41 H3         -0.2406   -7.8393    4.9495 H         1 <0>         0.0742
     42 H4         -0.2345   -6.3329    4.0013 H         1 <0>         0.0707
     43 H5          0.3935   -5.6164    9.2730 H         1 <0>         0.2038
     44 H6          1.0314   -1.1357    7.2061 H         1 <0>         0.2239
     45 H7          0.6689   -4.9055    3.5289 H         1 <0>         0.4221
     46 H8         -0.3958   -1.6044    4.1338 H         1 <0>         0.1431
     47 H9         -0.3480    0.2343    2.5338 H         1 <0>         0.1286
     48 H10         1.8895   -4.0538    1.4783 H         1 <0>         0.1327
     49 H11         2.5888   -2.6497   -1.0918 H         1 <0>         0.1981
     50 H12         0.3199    1.5829   -1.1680 H         1 <0>         0.1095
     51 H13        -0.4223    1.4563    0.4449 H         1 <0>         0.1030
     52 H14         2.5274    2.5528   -1.4472 H         1 <0>         0.1335
     53 H15         4.2119    4.1090   -0.5528 H         1 <0>         0.1374
     54 H16         4.1665    4.7390    1.8270 H         1 <0>         0.1385
     55 H17         0.7428    2.2578    2.4148 H         1 <0>         0.1346
     56 H18         0.0273   -8.6333    7.0121 H         1 <0>         0.4223
     57 H19         0.7249   -9.5788   11.2444 H         1 <0>         0.1031
     58 H20        -1.0390   -9.3426   11.2136 H         1 <0>         0.1258
     59 H21         0.2545  -11.3152   13.0120 H         1 <0>         0.0888
     60 H22        -1.5100  -11.1968   12.8072 H         1 <0>         0.1475
     61 H23         1.3015  -13.5280   12.7233 H         1 <0>         0.0844
     62 H24         0.2431  -14.9028   12.3241 H         1 <0>         0.1452
     63 H25         1.5132  -14.0743   10.3324 H         1 <0>         0.1479
     64 H26        -0.2477  -13.9186   10.1214 H         1 <0>         0.1424
     65 N8          0.7776  -12.1086   10.4681 N.4       1 <0>        -0.5166
     66 H27         1.6084  -11.7817   10.9752 H         1 <0>         0.4316
     67 H28         0.8939  -11.9227    9.4650 H         1 <0>         0.4432
@<TRIPOS>BOND
     1    1    2 1
     2    1   40 1
     3    1   41 1
     4    1   42 1
     5    2    6 2
     6    2    3 1
     7    3    4 2
     8    3   29 1
     9    4    5 1
    10    4   43 1
    11    5   10 1
    12    5    6 1
    13    6    7 1
    14    7    8 2
    15    7   11 1
    16    8    9 1
    17    9   10 2
    18    9   44 1
    19   11   12 1
    20   11   45 1
    21   12   17 ar
    22   12   13 ar
    23   13   14 ar
    24   13   46 1
    25   14   15 ar
    26   14   47 1
    27   15   20 1
    28   15   16 ar
    29   16   17 ar
    30   16   18 1
    31   17   48 1
    32   18   19 2
    33   18   49 1
    34   19   20 1
    35   20   21 1
    36   21   22 1
    37   21   50 1
    38   21   51 1
    39   22   27 ar
    40   22   23 ar
    41   23   24 ar
    42   23   52 1
    43   24   25 ar
    44   24   53 1
    45   25   26 ar
    46   25   54 1
    47   26   27 ar
    48   26   28 1
    49   27   55 1
    50   29   30 am
    51   29   56 1
    52   30   31 2
    53   30   32 1
    54   32   33 1
    55   33   34 1
    56   33   57 1
    57   33   58 1
    58   34   35 1
    59   34   36 1
    60   34   65 1
    61   36   37 1
    62   36   59 1
    63   36   60 1
    64   37   38 1
    65   38   39 1
    66   38   61 1
    67   38   62 1
    68   39   63 1
    69   39   64 1
    70   39   65 1
    71   65   66 1
    72   65   67 1
@<TRIPOS>MOLECULE
ZINC01609260
   36    39     0     0     0
SMALL
USER_CHARGES
7,9-diphenyl-2,4,9-triazabicyclo[4.3.0]nona-1,3,5,7-tetraen-5-amine
@<TRIPOS>ATOM
      1 C1         -0.8018   -5.5010   -0.0193 C.ar      1 <0>        -0.1197
      2 C2          0.2183   -5.3887   -0.9469 C.ar      1 <0>        -0.1112
      3 C3          1.0287   -4.2719   -0.9536 C.ar      1 <0>        -0.1080
      4 C4          0.8181   -3.2556   -0.0226 C.ar      1 <0>        -0.0116
      5 C5         -0.2077   -3.3771    0.9139 C.ar      1 <0>        -0.1264
      6 C6         -1.0156   -4.4958    0.9069 C.ar      1 <0>        -0.1125
      7 C7          1.6851   -2.0534   -0.0246 C.2       1 <0>        -0.0946
      8 C8          3.0408   -2.0315   -0.0372 C.2       1 <0>         0.0606
      9 N1          3.4801   -0.7343   -0.0347 N.pl3     1 <0>        -0.4086
     10 C9          2.4135    0.1274   -0.0203 C.ar      1 <0>         0.3514
     11 C10         1.2440   -0.6524   -0.0133 C.ar      1 <0>        -0.2510
     12 C11         0.0021   -0.0041    0.0020 C.ar      1 <0>         0.4945
     13 N2         -0.0160    1.3262    0.0093 N.ar      1 <0>        -0.5987
     14 C12         1.1067    2.0214    0.0023 C.ar      1 <0>         0.3635
     15 N3          2.2936    1.4540   -0.0124 N.ar      1 <0>        -0.5643
     16 N4         -1.1762   -0.7291    0.0089 N.pl3     1 <0>        -0.8301
     17 C13         4.8254   -0.3439   -0.0444 C.ar      1 <0>         0.1198
     18 C14         5.2714    0.5924   -0.9676 C.ar      1 <0>        -0.0990
     19 C15         6.5970    0.9802   -0.9703 C.ar      1 <0>        -0.1026
     20 C16         7.4824    0.4276   -0.0631 C.ar      1 <0>        -0.1139
     21 C17         7.0425   -0.5097    0.8535 C.ar      1 <0>        -0.1045
     22 C18         5.7168   -0.8967    0.8656 C.ar      1 <0>        -0.1183
     23 H1         -1.4340   -6.3766   -0.0183 H         1 <0>         0.1248
     24 H2          0.3805   -6.1766   -1.6676 H         1 <0>         0.1262
     25 H3          1.8243   -4.1850   -1.6787 H         1 <0>         0.1252
     26 H4         -0.3724   -2.5952    1.6404 H         1 <0>         0.1246
     27 H5         -1.8133   -4.5891    1.6290 H         1 <0>         0.1266
     28 H6          3.6772   -2.9041   -0.0473 H         1 <0>         0.1819
     29 H7          1.0482    3.0998    0.0083 H         1 <0>         0.2016
     30 H8         -2.0294   -0.2679    0.0192 H         1 <0>         0.4080
     31 H9         -1.1490   -1.6987    0.0035 H         1 <0>         0.4124
     32 H10         4.5815    1.0209   -1.6795 H         1 <0>         0.1292
     33 H11         6.9435    1.7123   -1.6847 H         1 <0>         0.1327
     34 H12         8.5195    0.7288   -0.0703 H         1 <0>         0.1301
     35 H13         7.7363   -0.9393    1.5610 H         1 <0>         0.1326
     36 H14         5.3736   -1.6282    1.5822 H         1 <0>         0.1292
@<TRIPOS>BOND
     1    1    6 ar
     2    1    2 ar
     3    1   23 1
     4    2    3 ar
     5    2   24 1
     6    3    4 ar
     7    3   25 1
     8    4    5 ar
     9    4    7 1
    10    5    6 ar
    11    5   26 1
    12    6   27 1
    13    7   11 1
    14    7    8 2
    15    8    9 1
    16    8   28 1
    17    9   10 1
    18    9   17 1
    19   10   15 ar
    20   10   11 ar
    21   11   12 ar
    22   12   13 ar
    23   12   16 1
    24   13   14 ar
    25   14   15 ar
    26   14   29 1
    27   16   30 1
    28   16   31 1
    29   17   22 ar
    30   17   18 ar
    31   18   19 ar
    32   18   32 1
    33   19   20 ar
    34   19   33 1
    35   20   21 ar
    36   20   34 1
    37   21   22 ar
    38   21   35 1
    39   22   36 1
@<TRIPOS>MOLECULE
ZINC02391775
   34    37     0     0     0
SMALL
USER_CHARGES
N-(3-bromophenyl)-methyl-BLAHamine
@<TRIPOS>ATOM
      1 C1         -1.1914   -0.8057    0.9837 C.3       1 <0>         0.0787
      2 N1         -0.0211    0.0718    0.9018 N.pl3     1 <0>        -0.5128
      3 C2          1.2804   -0.3033    1.0457 C.2       1 <0>         0.2914
      4 N2          2.0637    0.7255    0.9133 N.2       1 <0>        -0.4975
      5 C3          1.3204    1.8399    0.6739 C.ar      1 <0>         0.0392
      6 C4         -0.0336    1.4336    0.6632 C.ar      1 <0>         0.1036
      7 C5         -1.0416    2.3479    0.4378 C.ar      1 <0>        -0.1114
      8 C6         -0.7213    3.6912    0.2268 C.ar      1 <0>         0.1930
      9 C7          0.6377    4.1027    0.2368 C.ar      1 <0>        -0.1873
     10 C8          1.6510    3.1715    0.4609 C.ar      1 <0>        -0.0127
     11 C9          0.9213    5.4740    0.0136 C.ar      1 <0>         0.4798
     12 N3         -0.0957    6.2996   -0.1922 N.ar      1 <0>        -0.5895
     13 C10        -1.3479    5.8693   -0.1930 C.ar      1 <0>         0.3496
     14 N4         -1.6722    4.6149    0.0073 N.ar      1 <0>        -0.5468
     15 N5          2.2207    5.9371    0.0115 N.pl3     1 <0>        -0.6369
     16 C11         2.4739    7.3080   -0.0900 C.ar      1 <0>         0.1582
     17 C12         1.6176    8.2206    0.5135 C.ar      1 <0>        -0.0917
     18 C13         1.8702    9.5743    0.4116 C.ar      1 <0>        -0.0933
     19 C14         2.9742   10.0226   -0.2902 C.ar      1 <0>        -0.1033
     20 C15         3.8293    9.1169   -0.8925 C.ar      1 <0>        -0.0718
     21 C16         3.5851    7.7604   -0.7894 C.ar      1 <0>        -0.1182
     22 Br1         5.3379    9.7350   -1.8506 Br        1 <0>        -0.0447
     23 H1         -1.4201   -1.1997   -0.0065 H         1 <0>         0.0780
     24 H2         -0.9796   -1.6312    1.6633 H         1 <0>         0.0926
     25 H3         -2.0451   -0.2390    1.3553 H         1 <0>         0.0866
     26 H4          1.6139   -1.3117    1.2415 H         1 <0>         0.2205
     27 H5         -2.0729    2.0274    0.4267 H         1 <0>         0.1409
     28 H6          2.6849    3.4836    0.4691 H         1 <0>         0.1361
     29 H7         -2.1384    6.5846   -0.3662 H         1 <0>         0.1978
     30 H8          2.9586    5.3113    0.0804 H         1 <0>         0.4232
     31 H9          0.7549    7.8715    1.0616 H         1 <0>         0.1416
     32 H10         1.2048   10.2839    0.8810 H         1 <0>         0.1372
     33 H11         3.1696   11.0820   -0.3680 H         1 <0>         0.1348
     34 H12         4.2551    7.0534   -1.2558 H         1 <0>         0.1352
@<TRIPOS>BOND
     1    1    2 1
     2    1   23 1
     3    1   24 1
     4    1   25 1
     5    2    6 1
     6    2    3 1
     7    3    4 2
     8    3   26 1
     9    4    5 1
    10    5   10 ar
    11    5    6 ar
    12    6    7 ar
    13    7    8 ar
    14    7   27 1
    15    8   14 ar
    16    8    9 ar
    17    9   10 ar
    18    9   11 ar
    19   10   28 1
    20   11   12 ar
    21   11   15 1
    22   12   13 ar
    23   13   14 ar
    24   13   29 1
    25   15   16 1
    26   15   30 1
    27   16   21 ar
    28   16   17 ar
    29   17   18 ar
    30   17   31 1
    31   18   19 ar
    32   18   32 1
    33   19   20 ar
    34   19   33 1
    35   20   21 ar
    36   20   22 1
    37   21   34 1
@<TRIPOS>MOLECULE
ZINC01609268
   40    43     0     0     0
SMALL
USER_CHARGES
7-(4-methoxyphenyl)-9-phenyl-2,4,9-triazabicyclo[4.3.0]nona-1,3,5,7-tetraen-5-amine
@<TRIPOS>ATOM
      1 C1         -2.6307   -6.6583    0.9712 C.3       1 <0>         0.0252
      2 O1         -1.5977   -6.6056   -0.0148 O.3       1 <0>        -0.3158
      3 C2         -0.8031   -5.5028   -0.0177 C.ar      1 <0>         0.1292
      4 C3          0.2194   -5.3885   -0.9494 C.ar      1 <0>        -0.1432
      5 C4          1.0281   -4.2712   -0.9546 C.ar      1 <0>        -0.0662
      6 C5          0.8172   -3.2556   -0.0228 C.ar      1 <0>        -0.0504
      7 C6         -0.2077   -3.3758    0.9148 C.ar      1 <0>        -0.0839
      8 C7         -1.0158   -4.4936    0.9113 C.ar      1 <0>        -0.2017
      9 C8          1.6848   -2.0534   -0.0251 C.2       1 <0>        -0.0869
     10 C9          3.0402   -2.0322   -0.0379 C.2       1 <0>         0.0571
     11 N1          3.4801   -0.7341   -0.0351 N.pl3     1 <0>        -0.4090
     12 C10         2.4136    0.1274   -0.0203 C.ar      1 <0>         0.3514
     13 C11         1.2440   -0.6525   -0.0133 C.ar      1 <0>        -0.2518
     14 C12         0.0021   -0.0041    0.0020 C.ar      1 <0>         0.4942
     15 N2         -0.0160    1.3262    0.0093 N.ar      1 <0>        -0.5991
     16 C13         1.1068    2.0215    0.0023 C.ar      1 <0>         0.3631
     17 N3          2.2937    1.4541   -0.0120 N.ar      1 <0>        -0.5643
     18 N4         -1.1762   -0.7291    0.0089 N.pl3     1 <0>        -0.8306
     19 C14         4.8253   -0.3438   -0.0458 C.ar      1 <0>         0.1205
     20 C15         5.2708    0.5925   -0.9694 C.ar      1 <0>        -0.0992
     21 C16         6.5967    0.9791   -0.9740 C.ar      1 <0>        -0.1027
     22 C17         7.4827    0.4266   -0.0674 C.ar      1 <0>        -0.1141
     23 C18         7.0434   -0.5103    0.8499 C.ar      1 <0>        -0.1046
     24 C19         5.7175   -0.8968    0.8633 C.ar      1 <0>        -0.1184
     25 H1         -2.1864   -6.6147    1.9656 H         1 <0>         0.0571
     26 H2         -3.3046   -5.8121    0.8369 H         1 <0>         0.0569
     27 H3         -3.1890   -7.5882    0.8631 H         1 <0>         0.1022
     28 H4          0.3822   -6.1755   -1.6709 H         1 <0>         0.1354
     29 H5          1.8239   -4.1832   -1.6793 H         1 <0>         0.1334
     30 H6         -0.3709   -2.5930    1.6407 H         1 <0>         0.1279
     31 H7         -1.8125   -4.5855    1.6347 H         1 <0>         0.1325
     32 H8          3.6763   -2.9049   -0.0481 H         1 <0>         0.1818
     33 H9          1.0482    3.0998    0.0087 H         1 <0>         0.2011
     34 H10        -2.0294   -0.2678    0.0192 H         1 <0>         0.4077
     35 H11        -1.1490   -1.6987    0.0035 H         1 <0>         0.4118
     36 H12         4.5802    1.0214   -1.6805 H         1 <0>         0.1292
     37 H13         6.9428    1.7107   -1.6892 H         1 <0>         0.1325
     38 H14         8.5198    0.7278   -0.0755 H         1 <0>         0.1299
     39 H15         7.7377   -0.9401    1.5567 H         1 <0>         0.1324
     40 H16         5.3748   -1.6281    1.5804 H         1 <0>         0.1292
@<TRIPOS>BOND
     1    1    2 1
     2    1   25 1
     3    1   26 1
     4    1   27 1
     5    2    3 1
     6    3    8 ar
     7    3    4 ar
     8    4    5 ar
     9    4   28 1
    10    5    6 ar
    11    5   29 1
    12    6    7 ar
    13    6    9 1
    14    7    8 ar
    15    7   30 1
    16    8   31 1
    17    9   13 1
    18    9   10 2
    19   10   11 1
    20   10   32 1
    21   11   12 1
    22   11   19 1
    23   12   17 ar
    24   12   13 ar
    25   13   14 ar
    26   14   15 ar
    27   14   18 1
    28   15   16 ar
    29   16   17 ar
    30   16   33 1
    31   18   34 1
    32   18   35 1
    33   19   24 ar
    34   19   20 ar
    35   20   21 ar
    36   20   36 1
    37   21   22 ar
    38   21   37 1
    39   22   23 ar
    40   22   38 1
    41   23   24 ar
    42   23   39 1
    43   24   40 1
