@<TRIPOS>MOLECULE
ZINC00391915
   15    15     0     0     0
SMALL
USER_CHARGES

@<TRIPOS>ATOM
      1 C1         -0.0169    1.3943    0.0097 C.ar      1 <0>        -0.1506
      2 C2          1.1844    2.0868    0.0020 C.ar      1 <0>         0.0506
      3 N1          2.3333    1.4504   -0.0124 N.ar      1 <0>        -0.4538
      4 C3          2.4029    0.1245   -0.0202 C.ar      1 <0>         0.0473
      5 C4          1.2439   -0.6483   -0.0138 C.ar      1 <0>        -0.0982
      6 C5          0.0021   -0.0041    0.0020 C.ar      1 <0>        -0.1203
      7 C6         -1.2566   -0.7809    0.0103 C.2       1 <0>         0.5276
      8 O1         -2.3327   -0.2010    0.0241 O.co2     1 <0>        -0.6963
      9 O2         -1.2208   -2.0027    0.0034 O.co2     1 <0>        -0.6833
     10 C7          3.7250   -0.5390   -0.0364 C.2       1 <0>         0.5395
     11 O3          4.7461    0.1331   -0.0425 O.co2     1 <0>        -0.6781
     12 O4          3.7964   -1.7593   -0.0436 O.co2     1 <0>        -0.6867
     13 H1         -0.9556    1.9282    0.0260 H         1 <0>         0.1250
     14 H2          1.1752    3.1668    0.0075 H         1 <0>         0.1374
     15 H3          1.3029   -1.7267   -0.0208 H         1 <0>         0.1399
@<TRIPOS>BOND
     1    1    6 ar
     2    1    2 ar
     3    1   13 1
     4    2    3 ar
     5    2   14 1
     6    3    4 ar
     7    4    5 ar
     8    4   10 1
     9    5    6 ar
    10    5   15 1
    11    6    7 1
    12    7    8 2
    13    7    9 1
    14   10   11 2
    15   10   12 1
