@<TRIPOS>MOLECULE
ZINC08780879
   51    54     0     0     0
SMALL
USER_CHARGES
4-[4-[[5-(4,5-dimethyl-2-nitro-phenyl)-2-furyl]methylene]-3-methyl-5-oxo-pyrazol-1-yl]benzoic acid
@<TRIPOS>ATOM
      1 C1         -1.2937   -0.7734    0.0098 C.3       1 <0>        -0.1246
      2 C2          0.0021   -0.0041    0.0020 C.ar      1 <0>        -0.0399
      3 C3         -0.0166    1.3751    0.0096 C.ar      1 <0>        -0.0903
      4 C4          1.1858    2.0867    0.0019 C.ar      1 <0>         0.0358
      5 C5          2.3997    1.3941   -0.0134 C.ar      1 <0>        -0.0214
      6 C6          2.4029    0.0153   -0.0208 C.ar      1 <0>        -0.0508
      7 C7          1.2077   -0.6829   -0.0131 C.ar      1 <0>        -0.0748
      8 C8          1.2197   -2.1899   -0.0208 C.3       1 <0>        -0.1214
      9 N1          3.6791    2.1392   -0.0221 N.pl3     1 <0>         0.0260
     10 O1          4.7361    1.5342   -0.0358 O.2       1 <0>        -0.1698
     11 O2          3.6746    3.3572   -0.0155 O.3       1 <0>        -0.1163
     12 C9          1.1742    3.5619    0.0100 C.2       1 <0>         0.0420
     13 C10         0.4432    4.3657   -0.8411 C.2       1 <0>        -0.1920
     14 C11         0.7174    5.6859   -0.4923 C.2       1 <0>        -0.1434
     15 C12         1.6211    5.6428    0.5626 C.2       1 <0>        -0.0237
     16 O3          1.8779    4.3467    0.8434 O.3       1 <0>        -0.0640
     17 C13         2.1699    6.7510    1.2209 C.2       1 <0>         0.0853
     18 C14         3.0696    6.5639    2.2693 C.2       1 <0>        -0.2222
     19 C15         3.7391    7.5979    3.0675 C.2       1 <0>         0.1128
     20 N2          4.4916    6.9957    3.9388 N.2       1 <0>        -0.2228
     21 N3          4.4018    5.6096    3.8134 N.am      1 <0>        -0.4024
     22 C16         3.5486    5.2897    2.8194 C.2       1 <0>         0.5163
     23 O4          3.2392    4.1692    2.4506 O.2       1 <0>        -0.4506
     24 C17         5.0894    4.6885    4.6048 C.ar      1 <0>         0.1590
     25 C18         4.9161    3.3244    4.3917 C.ar      1 <0>        -0.1617
     26 C19         5.5965    2.4131    5.1672 C.ar      1 <0>        -0.0530
     27 C20         6.4539    2.8594    6.1772 C.ar      1 <0>        -0.1270
     28 C21         6.6215    4.2307    6.3920 C.ar      1 <0>        -0.0661
     29 C22         5.9423    5.1363    5.6088 C.ar      1 <0>        -0.1470
     30 C23         7.1802    1.8861    7.0138 C.2       1 <0>         0.4915
     31 O5          7.9253    2.2756    7.8910 O.co2     1 <0>        -0.6328
     32 C24         3.5824    9.0879    2.9054 C.3       1 <0>        -0.0767
     33 H1         -1.6155   -0.9534   -1.0160 H         1 <0>         0.0838
     34 H2         -1.1471   -1.7269    0.5171 H         1 <0>         0.0823
     35 H3         -2.0557   -0.1964    0.5337 H         1 <0>         0.0765
     36 H4         -0.9584    1.9037    0.0169 H         1 <0>         0.1509
     37 H5          3.3401   -0.5212   -0.0330 H         1 <0>         0.1589
     38 H6          1.2125   -2.5480   -1.0503 H         1 <0>         0.0812
     39 H7          2.1175   -2.5487    0.4825 H         1 <0>         0.0782
     40 H8          0.3376   -2.5629    0.4997 H         1 <0>         0.0808
     41 H9         -0.2186    4.0337   -1.6274 H         1 <0>         0.1560
     42 H10         0.3100    6.5724   -0.9555 H         1 <0>         0.1626
     43 H11         1.8960    7.7503    0.9162 H         1 <0>         0.1746
     44 H12         4.2502    2.9803    3.6142 H         1 <0>         0.1410
     45 H13         5.4643    1.3545    4.9987 H         1 <0>         0.1351
     46 H14         7.2833    4.5790    7.1711 H         1 <0>         0.1334
     47 H15         6.0713    6.1958    5.7742 H         1 <0>         0.1281
     48 H16         2.7634    9.4376    3.5340 H         1 <0>         0.0880
     49 H17         4.5060    9.5848    3.2024 H         1 <0>         0.0863
     50 H18         3.3644    9.3191    1.8628 H         1 <0>         0.0841
     51 O6          7.0174    0.5648    6.8055 O.co2     1 <0>        -0.7557
@<TRIPOS>BOND
     1    1    2 1
     2    1   33 1
     3    1   34 1
     4    1   35 1
     5    2    7 ar
     6    2    3 ar
     7    3    4 ar
     8    3   36 1
     9    4    5 ar
    10    4   12 1
    11    5    6 ar
    12    5    9 1
    13    6    7 ar
    14    6   37 1
    15    7    8 1
    16    8   38 1
    17    8   39 1
    18    8   40 1
    19    9   10 2
    20    9   11 1
    21   12   16 1
    22   12   13 2
    23   13   14 1
    24   13   41 1
    25   14   15 2
    26   14   42 1
    27   15   16 1
    28   15   17 1
    29   17   18 2
    30   17   43 1
    31   18   22 1
    32   18   19 1
    33   19   20 2
    34   19   32 1
    35   20   21 1
    36   21   22 am
    37   21   24 1
    38   22   23 2
    39   24   29 ar
    40   24   25 ar
    41   25   26 ar
    42   25   44 1
    43   26   27 ar
    44   26   45 1
    45   27   28 ar
    46   27   30 1
    47   28   29 ar
    48   28   46 1
    49   29   47 1
    50   30   31 2
    51   30   51 1
    52   32   48 1
    53   32   49 1
    54   32   50 1
@<TRIPOS>MOLECULE
ZINC28635315
   41    43     0     0     0
SMALL
USER_CHARGES

@<TRIPOS>ATOM
      1 C1          1.7640    1.3963   -0.6377 C.ar      1 <0>        -0.0705
      2 C2          0.8263    2.1064    0.1217 C.ar      1 <0>        -0.0711
      3 C3         -0.2184    1.4215    0.7539 C.ar      1 <0>        -0.0568
      4 C4         -0.3187    0.0539    0.6259 C.ar      1 <0>        -0.1224
      5 C5          0.6161   -0.6464   -0.1297 C.ar      1 <0>         0.1444
      6 C6          1.6548    0.0294   -0.7595 C.ar      1 <0>        -0.1401
      7 O1          0.5137   -1.9945   -0.2523 O.3       1 <0>        -0.4853
      8 Br1        -1.7289   -0.8733    1.4788 Br        1 <0>        -0.0311
      9 C7          0.9387    3.5655    0.2552 C.2       1 <0>        -0.0449
     10 C8          2.1546    4.1408    0.3784 C.2       1 <0>        -0.1766
     11 C9          2.3271    5.6102    0.3485 C.2       1 <0>         0.4345
     12 O2          1.6895    6.3286   -0.4027 O.2       1 <0>        -0.4354
     13 C10         3.3295    6.1442    1.2971 C.2       1 <0>        -0.1781
     14 C11         3.1284    7.2996    1.9676 C.2       1 <0>        -0.0440
     15 C12         4.2053    7.8691    2.7894 C.ar      1 <0>        -0.0714
     16 C13         3.8995    8.5520    3.9728 C.ar      1 <0>        -0.0562
     17 C14         4.9127    9.0839    4.7392 C.ar      1 <0>        -0.1226
     18 C15         6.2375    8.9436    4.3388 C.ar      1 <0>         0.1448
     19 C16         6.5458    8.2664    3.1647 C.ar      1 <0>        -0.1407
     20 C17         5.5409    7.7256    2.3947 C.ar      1 <0>        -0.0739
     21 O3          7.2327    9.4703    5.0971 O.3       1 <0>        -0.4850
     22 Br2         4.5022   10.0067    6.3379 Br        1 <0>        -0.0310
     23 C18         4.5929    5.3274    1.4776 C.3       1 <0>        -0.0913
     24 C19         4.2069    3.8694    1.7409 C.3       1 <0>        -0.1168
     25 C20         3.4122    3.3154    0.5607 C.3       1 <0>        -0.0877
     26 H1          2.5691    1.9206   -1.1310 H         1 <0>         0.1408
     27 H2         -0.9441    1.9646    1.3412 H         1 <0>         0.1411
     28 H3          2.3775   -0.5190   -1.3455 H         1 <0>         0.1430
     29 H4         -0.0192   -2.2815   -1.0065 H         1 <0>         0.3978
     30 H5          0.0490    4.1778    0.2549 H         1 <0>         0.1345
     31 H6          2.1762    7.8047    1.8996 H         1 <0>         0.1346
     32 H7          2.8711    8.6619    4.2838 H         1 <0>         0.1413
     33 H8          7.5760    8.1603    2.8584 H         1 <0>         0.1431
     34 H9          5.7821    7.1955    1.4852 H         1 <0>         0.1439
     35 H10         7.5775    8.8659    5.7687 H         1 <0>         0.3974
     36 H11         5.1986    5.3871    0.5733 H         1 <0>         0.0822
     37 H12         5.1595    5.7137    2.3248 H         1 <0>         0.0911
     38 H13         5.1103    3.2756    1.8805 H         1 <0>         0.0789
     39 H14         3.5966    3.8139    2.6423 H         1 <0>         0.0703
     40 H15         3.1426    2.2779    0.7583 H         1 <0>         0.0880
     41 H16         4.0195    3.3709   -0.3428 H         1 <0>         0.0808
@<TRIPOS>BOND
     1    1    6 ar
     2    1    2 ar
     3    1   26 1
     4    2    3 ar
     5    2    9 1
     6    3    4 ar
     7    3   27 1
     8    4    5 ar
     9    4    8 1
    10    5    6 ar
    11    5    7 1
    12    6   28 1
    13    7   29 1
    14    9   10 2
    15    9   30 1
    16   10   25 1
    17   10   11 1
    18   11   12 2
    19   11   13 1
    20   13   14 2
    21   13   23 1
    22   14   15 1
    23   14   31 1
    24   15   20 ar
    25   15   16 ar
    26   16   17 ar
    27   16   32 1
    28   17   18 ar
    29   17   22 1
    30   18   19 ar
    31   18   21 1
    32   19   20 ar
    33   19   33 1
    34   20   34 1
    35   21   35 1
    36   23   24 1
    37   23   36 1
    38   23   37 1
    39   24   25 1
    40   24   38 1
    41   24   39 1
    42   25   40 1
    43   25   41 1
@<TRIPOS>MOLECULE
ZINC17198574
   54    54     0     0     0
SMALL
USER_CHARGES

@<TRIPOS>ATOM
      1 C1          1.0552    1.2578   -0.2536 C.2       1 <0>        -0.1978
      2 C2          0.7593   -0.0051   -0.0704 C.2       1 <0>        -0.1456
      3 C3          1.8400   -1.0520   -0.1548 C.3       1 <0>        -0.0777
      4 C4          1.8534   -1.8636    1.1150 C.2       1 <0>        -0.1602
      5 C5          1.7964   -3.1711    1.0573 C.2       1 <0>        -0.1447
      6 C6          1.8867   -3.8712   -0.2741 C.3       1 <0>        -0.0842
      7 C7          2.9815   -4.9057   -0.2244 C.2       1 <0>        -0.1614
      8 C8          2.7306   -6.1423   -0.5766 C.2       1 <0>        -0.1496
      9 C9          1.3999   -6.4961   -1.1890 C.3       1 <0>        -0.1035
     10 C10         1.6263   -7.2206   -2.5175 C.3       1 <0>        -0.1135
     11 C11         0.2753   -7.5798   -3.1392 C.3       1 <0>        -0.1192
     12 C12         0.5017   -8.3043   -4.4677 C.3       1 <0>        -0.1186
     13 C13        -0.8494   -8.6635   -5.0894 C.3       1 <0>        -0.1148
     14 C14        -0.6229   -9.3879   -6.4179 C.3       1 <0>        -0.1171
     15 C15        -1.9740   -9.7472   -7.0396 C.3       1 <0>        -0.0754
     16 C16        -1.7510  -10.4607   -8.3481 C.ar      1 <0>        -0.0566
     17 C17        -1.7782   -9.7561   -9.5314 C.ar      1 <0>        -0.1341
     18 C18        -1.5739  -10.4065  -10.7378 C.ar      1 <0>        -0.1254
     19 C19        -1.3413  -11.7672  -10.7680 C.ar      1 <0>        -0.1569
     20 C20        -1.3107  -12.4939   -9.5872 C.ar      1 <0>         0.1112
     21 C21        -1.5104  -11.8383   -8.3625 C.ar      1 <0>        -0.1286
     22 C22        -1.4738  -12.5968   -7.1019 C.2       1 <0>         0.5370
     23 O1         -2.4811  -13.1621   -6.6987 O.co2     1 <0>        -0.6818
     24 O2         -0.4362  -12.6621   -6.4572 O.co2     1 <0>        -0.6851
     25 O3         -1.0829  -13.8304   -9.6154 O.3       1 <0>        -0.4921
     26 H1          2.0735    1.5487   -0.4651 H         1 <0>         0.0955
     27 H2          0.2799    2.0077   -0.1976 H         1 <0>         0.0967
     28 H3         -0.2590   -0.2960    0.1411 H         1 <0>         0.1087
     29 H4          1.6450   -1.7080   -1.0032 H         1 <0>         0.0874
     30 H5          2.8070   -0.5664   -0.2858 H         1 <0>         0.0729
     31 H6          1.9100   -1.3673    2.0725 H         1 <0>         0.1089
     32 H7          1.6847   -3.7472    1.9639 H         1 <0>         0.1100
     33 H8          0.9365   -4.3580   -0.4938 H         1 <0>         0.0862
     34 H9          2.1104   -3.1426   -1.0533 H         1 <0>         0.0818
     35 H10         3.9728   -4.6276    0.1016 H         1 <0>         0.1069
     36 H11         3.4775   -6.9081   -0.4282 H         1 <0>         0.1092
     37 H12         0.8488   -7.1466   -0.5098 H         1 <0>         0.0698
     38 H13         0.8271   -5.5855   -1.3647 H         1 <0>         0.0743
     39 H14         2.1773   -6.5701   -3.1967 H         1 <0>         0.0603
     40 H15         2.1990   -8.1312   -2.3418 H         1 <0>         0.0629
     41 H16        -0.2758   -8.2303   -2.4600 H         1 <0>         0.0617
     42 H17        -0.2975   -6.6692   -3.3149 H         1 <0>         0.0579
     43 H18         1.0527   -7.6538   -5.1469 H         1 <0>         0.0571
     44 H19         1.0744   -9.2148   -4.2920 H         1 <0>         0.0647
     45 H20        -1.4004   -9.3140   -4.4102 H         1 <0>         0.0619
     46 H21        -1.4221   -7.7529   -5.2651 H         1 <0>         0.0532
     47 H22        -0.0719   -8.7375   -7.0971 H         1 <0>         0.0517
     48 H23        -0.0502  -10.2985   -6.2422 H         1 <0>         0.0871
     49 H24        -2.5250  -10.3977   -6.3604 H         1 <0>         0.0760
     50 H25        -2.5467   -8.8366   -7.2153 H         1 <0>         0.0606
     51 H26        -1.9599   -8.6916   -9.5189 H         1 <0>         0.1154
     52 H27        -1.5970   -9.8456  -11.6604 H         1 <0>         0.1160
     53 H28        -1.1834  -12.2664  -11.7126 H         1 <0>         0.1184
     54 H29        -0.1483  -14.0714   -9.5559 H         1 <0>         0.3827
@<TRIPOS>BOND
     1    1    2 2
     2    1   26 1
     3    1   27 1
     4    2    3 1
     5    2   28 1
     6    3    4 1
     7    3   29 1
     8    3   30 1
     9    4    5 2
    10    4   31 1
    11    5    6 1
    12    5   32 1
    13    6    7 1
    14    6   33 1
    15    6   34 1
    16    7    8 2
    17    7   35 1
    18    8    9 1
    19    8   36 1
    20    9   10 1
    21    9   37 1
    22    9   38 1
    23   10   11 1
    24   10   39 1
    25   10   40 1
    26   11   12 1
    27   11   41 1
    28   11   42 1
    29   12   13 1
    30   12   43 1
    31   12   44 1
    32   13   14 1
    33   13   45 1
    34   13   46 1
    35   14   15 1
    36   14   47 1
    37   14   48 1
    38   15   16 1
    39   15   49 1
    40   15   50 1
    41   16   21 ar
    42   16   17 ar
    43   17   18 ar
    44   17   51 1
    45   18   19 ar
    46   18   52 1
    47   19   20 ar
    48   19   53 1
    49   20   21 ar
    50   20   25 1
    51   21   22 1
    52   22   23 2
    53   22   24 1
    54   25   54 1
@<TRIPOS>MOLECULE
ZINC04098424
   94    96     0     0     0
SMALL
USER_CHARGES
3-(3,4-dihydroxybenzoyl)-2-hydroxy-1-(2-isopropenyl-5-methyl-hex-4-enyl)-6,6-dimethyl-5,7-bis(3-methylbut-2-enyl)bicyclo[3.3.1]non-2-ene-4,9-dione
@<TRIPOS>ATOM
      1 C1         -2.9757   10.0474    0.8737 C.3       1 <0>        -0.1160
      2 C2         -1.5605    9.5304    0.9048 C.2       1 <0>        -0.1146
      3 C3         -1.3168    8.2719    0.6348 C.2       1 <0>        -0.1737
      4 C4         -2.4584    7.3024    0.4675 C.3       1 <0>        -0.1212
      5 C5         -2.5121    6.8234   -0.9845 C.3       1 <0>        -0.0895
      6 H1         -1.8458    7.4363   -1.5915 H         1 <0>         0.0968
      7 C6         -3.9436    6.9582   -1.5099 C.3       1 <0>        -0.1041
      8 C7         -4.8759    6.1582   -0.5790 C.3       1 <0>        -0.0578
      9 C8         -4.6429    6.6630    0.8257 C.2       1 <0>         0.2376
     10 C9         -3.7086    6.0970    1.6558 C.2       1 <0>        -0.3998
     11 C10        -2.9050    4.9437    1.2496 C.2       1 <0>         0.4403
     12 O1         -2.2018    4.3655    2.0522 O.2       1 <0>        -0.4425
     13 C11        -2.9690    4.4856   -0.1931 C.3       1 <0>        -0.1265
     14 C12        -4.4067    4.7122   -0.6430 C.2       1 <0>         0.3855
     15 O2         -5.1187    3.8134   -1.0219 O.2       1 <0>        -0.3907
     16 C13        -2.0446    5.3557   -1.0469 C.3       1 <0>        -0.0358
     17 C14        -0.6141    5.2477   -0.5150 C.3       1 <0>        -0.1509
     18 C15        -2.0804    4.8627   -2.4948 C.3       1 <0>        -0.1521
     19 C16        -2.5875    3.0087   -0.3121 C.3       1 <0>        -0.0678
     20 C17        -3.5420    2.1761    0.5045 C.2       1 <0>        -0.1769
     21 C18        -4.1969    1.1904   -0.0574 C.2       1 <0>        -0.1024
     22 C19        -3.9960    0.8893   -1.5202 C.3       1 <0>        -0.1192
     23 C20        -5.1514    0.3577    0.7592 C.3       1 <0>        -0.1177
     24 C21        -3.5080    6.6681    2.9965 C.2       1 <0>         0.4514
     25 O3         -3.0500    7.7887    3.1182 O.2       1 <0>        -0.4263
     26 C22        -3.8624    5.8814    4.1944 C.ar      1 <0>        -0.1557
     27 C23        -4.2789    4.5540    4.0625 C.ar      1 <0>        -0.0331
     28 C24        -4.6093    3.8213    5.1815 C.ar      1 <0>        -0.1472
     29 C25        -4.5292    4.3984    6.4418 C.ar      1 <0>         0.1210
     30 C26        -4.1144    5.7223    6.5806 C.ar      1 <0>         0.0647
     31 C27        -3.7766    6.4609    5.4634 C.ar      1 <0>        -0.0712
     32 O4         -4.0365    6.2845    7.8165 O.3       1 <0>        -0.4840
     33 O5         -4.8551    3.6717    7.5417 O.3       1 <0>        -0.4863
     34 O6         -5.3716    7.6953    1.2750 O.3       1 <0>        -0.4272
     35 C28        -6.3465    6.2864   -0.9810 C.3       1 <0>        -0.0920
     36 C29        -7.1987    5.3754   -0.0952 C.3       1 <0>        -0.0614
     37 H2         -6.7772    4.3703   -0.0957 H         1 <0>         0.0973
     38 C30        -8.6286    5.3291   -0.6375 C.3       1 <0>        -0.0817
     39 C31        -9.4366    4.3382    0.1602 C.2       1 <0>        -0.1572
     40 C32       -10.5340    4.7225    0.7634 C.2       1 <0>        -0.1316
     41 C33       -11.0675    6.1145    0.5424 C.3       1 <0>        -0.1212
     42 C34       -11.2631    3.7727    1.6785 C.3       1 <0>        -0.1165
     43 C35        -7.2126    5.9136    1.3124 C.2       1 <0>        -0.0929
     44 C36        -6.6405    5.2376    2.2777 C.2       1 <0>        -0.2129
     45 C37        -7.8847    7.2293    1.6095 C.3       1 <0>        -0.1135
     46 C38        -0.4256   10.4611    1.2464 C.3       1 <0>        -0.1172
     47 H3         -3.5774    9.5032    1.6017 H         1 <0>         0.0693
     48 H4         -2.9801   11.1092    1.1199 H         1 <0>         0.0562
     49 H5         -3.3932    9.9037   -0.1228 H         1 <0>         0.0598
     50 H6         -0.2978    7.9291    0.5320 H         1 <0>         0.1030
     51 H7         -3.3957    7.7974    0.7217 H         1 <0>         0.0938
     52 H8         -2.3086    6.4475    1.1269 H         1 <0>         0.1197
     53 H9         -4.0030    6.5581   -2.5221 H         1 <0>         0.0908
     54 H10        -4.2380    8.0077   -1.5116 H         1 <0>         0.0920
     55 H11        -0.2883    4.2083   -0.5570 H         1 <0>         0.0674
     56 H12         0.0481    5.8610   -1.1261 H         1 <0>         0.0680
     57 H13        -0.5829    5.5967    0.5171 H         1 <0>         0.0615
     58 H14        -3.0993    4.9296   -2.8763 H         1 <0>         0.0584
     59 H15        -1.4225    5.4810   -3.1056 H         1 <0>         0.0705
     60 H16        -1.7450    3.8263   -2.5342 H         1 <0>         0.0689
     61 H17        -1.5722    2.8648    0.0574 H         1 <0>         0.0893
     62 H18        -2.6408    2.7028   -1.3569 H         1 <0>         0.0894
     63 H19        -3.6860    2.3919    1.5528 H         1 <0>         0.1028
     64 H20        -4.6199    0.0424   -1.8059 H         1 <0>         0.0576
     65 H21        -2.9488    0.6462   -1.7006 H         1 <0>         0.0616
     66 H22        -4.2738    1.7613   -2.1122 H         1 <0>         0.0734
     67 H23        -4.6165   -0.4868    1.1937 H         1 <0>         0.0656
     68 H24        -5.5756    0.9681    1.5564 H         1 <0>         0.0586
     69 H25        -5.9523   -0.0104    0.1181 H         1 <0>         0.0630
     70 H26        -4.3421    4.1027    3.0834 H         1 <0>         0.1321
     71 H27        -4.9310    2.7955    5.0781 H         1 <0>         0.1390
     72 H28        -3.4508    7.4851    5.5698 H         1 <0>         0.1445
     73 H29        -3.1758    6.1771    8.2440 H         1 <0>         0.3890
     74 H30        -4.1112    3.1915    7.9305 H         1 <0>         0.3940
     75 H31        -5.1024    7.9097    2.2139 H         1 <0>         0.3986
     76 H32        -6.6687    7.3201   -0.8555 H         1 <0>         0.0883
     77 H33        -6.4649    5.9930   -2.0241 H         1 <0>         0.0840
     78 H34        -9.0809    6.3173   -0.5545 H         1 <0>         0.0734
     79 H35        -8.6106    5.0245   -1.6840 H         1 <0>         0.0702
     80 H36        -9.1108    3.3111    0.2345 H         1 <0>         0.1045
     81 H37       -11.2008    6.2872   -0.5256 H         1 <0>         0.0635
     82 H38       -12.0261    6.2211    1.0501 H         1 <0>         0.0574
     83 H39       -10.3614    6.8420    0.9427 H         1 <0>         0.0687
     84 H40       -10.7318    2.8216    1.7129 H         1 <0>         0.0584
     85 H41       -11.3110    4.1986    2.6807 H         1 <0>         0.0645
     86 H42       -12.2738    3.6109    1.3038 H         1 <0>         0.0616
     87 H43        -6.1588    4.2947    2.0648 H         1 <0>         0.0900
     88 H44        -6.6504    5.6233    3.2865 H         1 <0>         0.0954
     89 H45        -8.2135    7.6880    0.6770 H         1 <0>         0.0617
     90 H46        -8.7467    7.0594    2.2546 H         1 <0>         0.0618
     91 H47        -7.1799    7.8920    2.1118 H         1 <0>         0.0679
     92 H48        -0.0446   10.9198    0.3339 H         1 <0>         0.0627
     93 H49        -0.7837   11.2383    1.9215 H         1 <0>         0.0622
     94 H50         0.3725    9.8985    1.7309 H         1 <0>         0.0596
@<TRIPOS>BOND
     1    1    2 1
     2    1   47 1
     3    1   48 1
     4    1   49 1
     5    2    3 2
     6    2   46 1
     7    3    4 1
     8    3   50 1
     9    4    5 1
    10    4   51 1
    11    4   52 1
    12    5    6 1
    13    5   16 1
    14    5    7 1
    15    7    8 1
    16    7   53 1
    17    7   54 1
    18    8   14 1
    19    8    9 1
    20    8   35 1
    21    9   10 2
    22    9   34 1
    23   10   11 1
    24   10   24 1
    25   11   12 2
    26   11   13 1
    27   13   14 1
    28   13   16 1
    29   13   19 1
    30   14   15 2
    31   16   17 1
    32   16   18 1
    33   17   55 1
    34   17   56 1
    35   17   57 1
    36   18   58 1
    37   18   59 1
    38   18   60 1
    39   19   20 1
    40   19   61 1
    41   19   62 1
    42   20   21 2
    43   20   63 1
    44   21   22 1
    45   21   23 1
    46   22   64 1
    47   22   65 1
    48   22   66 1
    49   23   67 1
    50   23   68 1
    51   23   69 1
    52   24   25 2
    53   24   26 1
    54   26   31 ar
    55   26   27 ar
    56   27   28 ar
    57   27   70 1
    58   28   29 ar
    59   28   71 1
    60   29   30 ar
    61   29   33 1
    62   30   31 ar
    63   30   32 1
    64   31   72 1
    65   32   73 1
    66   33   74 1
    67   34   75 1
    68   35   36 1
    69   35   76 1
    70   35   77 1
    71   36   37 1
    72   36   38 1
    73   36   43 1
    74   38   39 1
    75   38   78 1
    76   38   79 1
    77   39   40 2
    78   39   80 1
    79   40   41 1
    80   40   42 1
    81   41   81 1
    82   41   82 1
    83   41   83 1
    84   42   84 1
    85   42   85 1
    86   42   86 1
    87   43   44 2
    88   43   45 1
    89   44   87 1
    90   44   88 1
    91   45   89 1
    92   45   90 1
    93   45   91 1
    94   46   92 1
    95   46   93 1
    96   46   94 1
