@<TRIPOS>MOLECULE
ZINC03814434
   62    69     0     0     0
SMALL
USER_CHARGES

@<TRIPOS>ATOM
      1 C1         -0.1295    1.5952   -0.2973 C.3       1 <0>        -0.1687
      2 C2         -0.0862    0.0696   -0.1900 C.3       1 <0>         0.3342
      3 C3          0.5692   -0.4501   -1.4637 C.3       1 <0>         0.0405
      4 H1          1.4796    0.1159   -1.6612 H         1 <0>         0.1372
      5 C4          0.9167   -1.9328   -1.2889 C.3       1 <0>        -0.0061
      6 H2          1.3963   -2.3075   -2.1932 H         1 <0>         0.1555
      7 C5          1.8785   -2.0596   -0.1021 C.3       1 <0>        -0.1827
      8 C6          1.2061   -1.5198    1.1541 C.3       1 <0>         0.2999
      9 H3          1.9797   -1.4243    1.9161 H         1 <0>         0.1550
     10 O1          0.6555   -0.2442    0.9666 O.3       1 <0>        -0.3234
     11 N1          0.2189   -2.4746    1.6600 N.pl3     1 <0>        -0.5366
     12 C7          0.4705   -3.5508    2.4739 C.ar      1 <0>         0.1469
     13 C8          1.6649   -4.0152    3.0240 C.ar      1 <0>        -0.1522
     14 C9          1.5948   -5.1456    3.8201 C.ar      1 <0>        -0.0582
     15 C10         0.4006   -5.7997    4.0696 C.ar      1 <0>        -0.1457
     16 C11        -0.7984   -5.3597    3.5358 C.ar      1 <0>        -0.0280
     17 C12        -0.7487   -4.2198    2.7307 C.ar      1 <0>        -0.1131
     18 C13        -1.7893   -3.4830    2.0197 C.ar      1 <0>         0.0276
     19 C14        -1.1442   -2.4197    1.3841 C.ar      1 <0>         0.0376
     20 C15        -1.8806   -1.5095    0.6175 C.ar      1 <0>         0.0894
     21 N2         -1.4718   -0.3951   -0.1095 N.pl3     1 <0>        -0.5183
     22 C16        -2.5611    0.1913   -0.7090 C.ar      1 <0>         0.1618
     23 C17        -2.6521    1.3277   -1.5118 C.ar      1 <0>        -0.1305
     24 C18        -3.9109    1.6745   -1.9733 C.ar      1 <0>        -0.0737
     25 C19        -5.0393    0.9368   -1.6616 C.ar      1 <0>        -0.1358
     26 C20        -4.9745   -0.1955   -0.8662 C.ar      1 <0>        -0.0503
     27 C21        -3.7147   -0.5596   -0.3919 C.ar      1 <0>        -0.1042
     28 C22        -3.2693   -1.6660    0.4845 C.ar      1 <0>        -0.0360
     29 C23        -3.9084   -2.7313    1.1102 C.ar      1 <0>        -0.0288
     30 C24        -3.1873   -3.6421    1.8754 C.ar      1 <0>        -0.1255
     31 C25        -4.1221   -4.6480    2.4030 C.2       1 <0>         0.5632
     32 O2         -3.8062   -5.5851    3.1110 O.2       1 <0>        -0.5106
     33 N3         -5.3744   -4.3851    1.9926 N.am      1 <0>        -0.7162
     34 C26        -5.3495   -3.1771    1.1601 C.3       1 <0>         0.1358
     35 N4         -0.3067   -2.7008   -1.0216 N.4       1 <0>        -0.5252
     36 C27         0.0145   -4.1336   -0.9773 C.3       1 <0>        -0.0497
     37 O3         -0.3340   -0.2979   -2.5607 O.3       1 <0>        -0.3614
     38 C28         0.3101   -0.0933   -3.8198 C.3       1 <0>         0.0162
     39 H4          0.8261    2.0094    0.0240 H         1 <0>         0.0984
     40 H5         -0.3202    1.8814   -1.3317 H         1 <0>         0.1036
     41 H6         -0.9255    1.9818    0.3392 H         1 <0>         0.0921
     42 H7          2.1370   -3.1081    0.0458 H         1 <0>         0.1233
     43 H8          2.7835   -1.4869   -0.3048 H         1 <0>         0.1455
     44 H9          2.6036   -3.5149    2.8368 H         1 <0>         0.1365
     45 H10         2.5026   -5.5304    4.2610 H         1 <0>         0.1359
     46 H11         0.4045   -6.6780    4.6980 H         1 <0>         0.1352
     47 H12        -1.7278   -5.8736    3.7323 H         1 <0>         0.1600
     48 H13        -1.7792    1.9122   -1.7624 H         1 <0>         0.1440
     49 H14        -4.0153    2.5500   -2.5970 H         1 <0>         0.1336
     50 H15        -5.9967    1.2527   -2.0488 H         1 <0>         0.1332
     51 H16        -5.8575   -0.7687   -0.6249 H         1 <0>         0.1415
     52 H17        -6.1628   -4.9065    2.2103 H         1 <0>         0.4348
     53 H18        -5.9671   -2.3994    1.6094 H         1 <0>         0.1115
     54 H19        -5.7060   -3.4063    0.1559 H         1 <0>         0.1103
     55 H20        -0.6958   -2.4158   -0.1353 H         1 <0>         0.4186
     56 H21         0.4349   -4.4415   -1.9347 H         1 <0>         0.1256
     57 H22         0.7403   -4.3189   -0.1854 H         1 <0>         0.1191
     58 H23        -0.8932   -4.7035   -0.7789 H         1 <0>         0.1256
     59 H24         0.9168    0.8112   -3.7748 H         1 <0>         0.0633
     60 H25         0.9482   -0.9479   -4.0446 H         1 <0>         0.0514
     61 H26        -0.4433    0.0130   -4.6003 H         1 <0>         0.1100
     62 H27        -0.9785   -2.5293   -1.7546 H         1 <0>         0.4274
@<TRIPOS>BOND
     1    1    2 1
     2    1   39 1
     3    1   40 1
     4    1   41 1
     5    2   10 1
     6    2   21 1
     7    2    3 1
     8    3    4 1
     9    3    5 1
    10    3   37 1
    11    5    6 1
    12    5    7 1
    13    5   35 1
    14    7    8 1
    15    7   42 1
    16    7   43 1
    17    8    9 1
    18    8   10 1
    19    8   11 1
    20   11   19 1
    21   11   12 1
    22   12   17 ar
    23   12   13 ar
    24   13   14 ar
    25   13   44 1
    26   14   15 ar
    27   14   45 1
    28   15   16 ar
    29   15   46 1
    30   16   17 ar
    31   16   47 1
    32   17   18 1
    33   18   30 ar
    34   18   19 ar
    35   19   20 ar
    36   20   28 ar
    37   20   21 1
    38   21   22 1
    39   22   27 ar
    40   22   23 ar
    41   23   24 ar
    42   23   48 1
    43   24   25 ar
    44   24   49 1
    45   25   26 ar
    46   25   50 1
    47   26   27 ar
    48   26   51 1
    49   27   28 1
    50   28   29 ar
    51   29   34 1
    52   29   30 ar
    53   30   31 1
    54   31   32 2
    55   31   33 am
    56   33   34 1
    57   33   52 1
    58   34   53 1
    59   34   54 1
    60   35   36 1
    61   35   55 1
    62   35   62 1
    63   36   56 1
    64   36   57 1
    65   36   58 1
    66   37   38 1
    67   38   59 1
    68   38   60 1
    69   38   61 1
@<TRIPOS>MOLECULE
ZINC06717782
   67    72     0     0     0
SMALL
USER_CHARGES
morpholin-3-ylmethyl [5-[1-[(3-fluorophenyl)methyl]indazol-5-yl]amino-7-methyl-1,2,4-triazabicyclo[4.3.0]nona-2,4,6,8-tetraen-8-yl]aminoformate
@<TRIPOS>ATOM
      1 C1          0.2962   -6.9101    4.7585 C.3       1 <0>        -0.0941
      2 C2          0.3825   -6.1089    6.0319 C.2       1 <0>        -0.1078
      3 C3          0.2931   -6.6068    7.3369 C.2       1 <0>         0.0740
      4 C4          0.4199   -5.5542    8.1951 C.2       1 <0>         0.0579
      5 N1          0.5850   -4.4193    7.4764 N.pl3     1 <0>        -0.2280
      6 C5          0.5645   -4.7431    6.1333 C.2       1 <0>        -0.0825
      7 C6          0.7204   -3.7052    5.1862 C.2       1 <0>         0.5250
      8 N2          0.8858   -2.4632    5.6110 N.2       1 <0>        -0.6045
      9 C7          0.8980   -2.1654    6.9089 C.2       1 <0>         0.3361
     10 N3          0.7597   -3.0750    7.8342 N.2       1 <0>        -0.3478
     11 N4          0.7060   -3.9852    3.8334 N.pl3     1 <0>        -0.6187
     12 C8          0.7448   -2.9408    2.9019 C.ar      1 <0>         0.1014
     13 C9          0.1166   -1.7286    3.1913 C.ar      1 <0>        -0.0501
     14 C10         0.1421   -0.6984    2.2965 C.ar      1 <0>        -0.1226
     15 C11         0.8004   -0.8477    1.0781 C.ar      1 <0>         0.1294
     16 C12         1.4375   -2.0661    0.7756 C.ar      1 <0>        -0.1631
     17 C13         1.4040   -3.1152    1.7014 C.ar      1 <0>        -0.0595
     18 C14         2.0244   -1.9047   -0.5508 C.2       1 <0>         0.0748
     19 N5          1.7415   -0.7036   -0.9680 N.2       1 <0>        -0.2412
     20 N6          0.9983   -0.0212    0.0006 N.pl3     1 <0>        -0.3992
     21 C15         0.5049    1.3530   -0.1187 C.3       1 <0>         0.1821
     22 C16         1.5352    2.3060    0.4303 C.ar      1 <0>        -0.0922
     23 C17         2.5071    2.8282   -0.4032 C.ar      1 <0>        -0.1020
     24 C18         3.4530    3.7021    0.0990 C.ar      1 <0>        -0.0908
     25 C19         3.4277    4.0556    1.4350 C.ar      1 <0>        -0.1432
     26 C20         2.4549    3.5338    2.2703 C.ar      1 <0>         0.0982
     27 C21         1.5049    2.6621    1.7650 C.ar      1 <0>        -0.1343
     28 F1          2.4295    3.8783    3.5764 F         1 <0>        -0.1366
     29 N7          0.1065   -7.9529    7.6988 N.am      1 <0>        -0.6055
     30 C22         0.0376   -8.2975    9.0000 C.2       1 <0>         0.6543
     31 O1          0.1368   -7.4450    9.8604 O.2       1 <0>        -0.5400
     32 O2         -0.1411   -9.5864    9.3466 O.3       1 <0>        -0.3809
     33 C23        -0.2057   -9.8844   10.7662 C.3       1 <0>         0.0612
     34 C24        -0.4106  -11.3878   10.9629 C.3       1 <0>         0.0017
     35 H1         -1.2925  -11.7105   10.4096 H         1 <0>         0.1613
     36 C25        -0.6035  -11.6869   12.4520 C.3       1 <0>         0.0444
     37 O3         -0.7194  -13.1002   12.6380 O.3       1 <0>        -0.3484
     38 C26         0.4139  -13.8372   12.1713 C.3       1 <0>         0.0311
     39 C27         0.6171  -13.5598   10.6795 C.3       1 <0>        -0.0388
     40 H2          1.3014   -7.1375    4.4035 H         1 <0>         0.0796
     41 H3         -0.2406   -7.8393    4.9495 H         1 <0>         0.0742
     42 H4         -0.2345   -6.3329    4.0013 H         1 <0>         0.0707
     43 H5          0.3935   -5.6164    9.2730 H         1 <0>         0.2038
     44 H6          1.0314   -1.1357    7.2061 H         1 <0>         0.2239
     45 H7          0.6689   -4.9055    3.5289 H         1 <0>         0.4221
     46 H8         -0.3958   -1.6044    4.1338 H         1 <0>         0.1431
     47 H9         -0.3480    0.2343    2.5338 H         1 <0>         0.1286
     48 H10         1.8895   -4.0538    1.4783 H         1 <0>         0.1327
     49 H11         2.5888   -2.6497   -1.0918 H         1 <0>         0.1981
     50 H12         0.3199    1.5829   -1.1680 H         1 <0>         0.1095
     51 H13        -0.4223    1.4563    0.4449 H         1 <0>         0.1030
     52 H14         2.5274    2.5528   -1.4472 H         1 <0>         0.1335
     53 H15         4.2119    4.1090   -0.5528 H         1 <0>         0.1374
     54 H16         4.1665    4.7390    1.8270 H         1 <0>         0.1385
     55 H17         0.7428    2.2578    2.4148 H         1 <0>         0.1346
     56 H18         0.0273   -8.6333    7.0121 H         1 <0>         0.4223
     57 H19         0.7249   -9.5788   11.2444 H         1 <0>         0.1031
     58 H20        -1.0390   -9.3426   11.2136 H         1 <0>         0.1258
     59 H21         0.2545  -11.3152   13.0120 H         1 <0>         0.0888
     60 H22        -1.5100  -11.1968   12.8072 H         1 <0>         0.1475
     61 H23         1.3015  -13.5280   12.7233 H         1 <0>         0.0844
     62 H24         0.2431  -14.9028   12.3241 H         1 <0>         0.1452
     63 H25         1.5132  -14.0743   10.3324 H         1 <0>         0.1479
     64 H26        -0.2477  -13.9186   10.1214 H         1 <0>         0.1424
     65 N8          0.7776  -12.1086   10.4681 N.4       1 <0>        -0.5166
     66 H27         1.6084  -11.7817   10.9752 H         1 <0>         0.4316
     67 H28         0.8939  -11.9227    9.4650 H         1 <0>         0.4432
@<TRIPOS>BOND
     1    1    2 1
     2    1   40 1
     3    1   41 1
     4    1   42 1
     5    2    6 2
     6    2    3 1
     7    3    4 2
     8    3   29 1
     9    4    5 1
    10    4   43 1
    11    5   10 1
    12    5    6 1
    13    6    7 1
    14    7    8 2
    15    7   11 1
    16    8    9 1
    17    9   10 2
    18    9   44 1
    19   11   12 1
    20   11   45 1
    21   12   17 ar
    22   12   13 ar
    23   13   14 ar
    24   13   46 1
    25   14   15 ar
    26   14   47 1
    27   15   20 1
    28   15   16 ar
    29   16   17 ar
    30   16   18 1
    31   17   48 1
    32   18   19 2
    33   18   49 1
    34   19   20 1
    35   20   21 1
    36   21   22 1
    37   21   50 1
    38   21   51 1
    39   22   27 ar
    40   22   23 ar
    41   23   24 ar
    42   23   52 1
    43   24   25 ar
    44   24   53 1
    45   25   26 ar
    46   25   54 1
    47   26   27 ar
    48   26   28 1
    49   27   55 1
    50   29   30 am
    51   29   56 1
    52   30   31 2
    53   30   32 1
    54   32   33 1
    55   33   34 1
    56   33   57 1
    57   33   58 1
    58   34   35 1
    59   34   36 1
    60   34   65 1
    61   36   37 1
    62   36   59 1
    63   36   60 1
    64   37   38 1
    65   38   39 1
    66   38   61 1
    67   38   62 1
    68   39   63 1
    69   39   64 1
    70   39   65 1
    71   65   66 1
    72   65   67 1
@<TRIPOS>MOLECULE
ZINC13682420
   36    38     0     0     0
SMALL
USER_CHARGES

@<TRIPOS>ATOM
      1 C1          2.3641    1.4252    0.5325 C.3       1 <0>        -0.0595
      2 C2          2.3790   -0.0378    0.3708 C.1       1 <0>        -0.0563
      3 C3          2.3908   -1.2047    0.2419 C.1       1 <0>        -0.2481
      4 C4          2.4052   -2.6279    0.0846 C.2       1 <0>         0.6300
      5 O1          3.4612   -3.2125   -0.0654 O.2       1 <0>        -0.4478
      6 N1          1.2487   -3.3197    0.1029 N.am      1 <0>        -0.6522
      7 C5          1.2519   -4.6908   -0.1540 C.ar      1 <0>         0.3479
      8 C6          0.0470   -5.3665   -0.2414 C.ar      1 <0>        -0.1671
      9 C7          0.0741   -6.7385   -0.4992 C.ar      1 <0>        -0.1229
     10 C8          1.3296   -7.3791   -0.6600 C.ar      1 <0>         0.1018
     11 C9          2.4947   -6.6085   -0.5535 C.ar      1 <0>         0.1920
     12 N2          2.4112   -5.3194   -0.3149 N.ar      1 <0>        -0.4451
     13 N3          1.3485   -8.6955   -0.9076 N.ar      1 <0>        -0.5178
     14 C10         0.2348   -9.3793   -1.0000 C.ar      1 <0>         0.3375
     15 N4         -0.9700   -8.8491   -0.8620 N.ar      1 <0>        -0.5667
     16 C11        -1.1310   -7.5544   -0.6134 C.ar      1 <0>         0.4616
     17 N5         -2.3869   -7.0027   -0.4688 N.pl3     1 <0>        -0.6290
     18 C12        -3.5175   -7.8265   -0.4734 C.ar      1 <0>         0.1535
     19 C13        -3.4404   -9.1160    0.0372 C.ar      1 <0>        -0.0782
     20 C14        -4.5576   -9.9279    0.0323 C.ar      1 <0>        -0.1185
     21 C15        -5.7545   -9.4578   -0.4811 C.ar      1 <0>         0.0981
     22 C16        -5.8341   -8.1720   -0.9915 C.ar      1 <0>        -0.0544
     23 C17        -4.7196   -7.3543   -0.9832 C.ar      1 <0>        -0.1112
     24 Cl1        -7.3358   -7.5856   -1.6356 Cl        1 <0>        -0.0405
     25 F1         -6.8461  -10.2538   -0.4848 F         1 <0>        -0.1241
     26 H1          1.3362    1.7669    0.6537 H         1 <0>         0.0953
     27 H2          2.9444    1.6993    1.4136 H         1 <0>         0.0947
     28 H3          2.8008    1.8927   -0.3500 H         1 <0>         0.0960
     29 H4          0.4141   -2.8642    0.2947 H         1 <0>         0.4224
     30 H5         -0.8904   -4.8457   -0.1130 H         1 <0>         0.1417
     31 H6          3.4620   -7.0738   -0.6720 H         1 <0>         0.1861
     32 H7          0.3040  -10.4382   -1.2009 H         1 <0>         0.2017
     33 H8         -2.4861   -6.0435   -0.3639 H         1 <0>         0.4250
     34 H9         -2.5072   -9.4837    0.4375 H         1 <0>         0.1554
     35 H10        -4.4976  -10.9307    0.4290 H         1 <0>         0.1520
     36 H11        -4.7827   -6.3506   -1.3769 H         1 <0>         0.1465
@<TRIPOS>BOND
     1    1    2 1
     2    1   26 1
     3    1   27 1
     4    1   28 1
     5    2    3 3
     6    3    4 1
     7    4    5 2
     8    4    6 am
     9    6    7 1
    10    6   29 1
    11    7   12 ar
    12    7    8 ar
    13    8    9 ar
    14    8   30 1
    15    9   16 ar
    16    9   10 ar
    17   10   11 ar
    18   10   13 ar
    19   11   12 ar
    20   11   31 1
    21   13   14 ar
    22   14   15 ar
    23   14   32 1
    24   15   16 ar
    25   16   17 1
    26   17   18 1
    27   17   33 1
    28   18   23 ar
    29   18   19 ar
    30   19   20 ar
    31   19   34 1
    32   20   21 ar
    33   20   35 1
    34   21   22 ar
    35   21   25 1
    36   22   23 ar
    37   22   24 1
    38   23   36 1
@<TRIPOS>MOLECULE
ZINC01488208
   36    38     0     0     0
SMALL
USER_CHARGES
N-[4-(3-bromophenyl)aminoquinazolin-6-yl]prop-2-enamide
@<TRIPOS>ATOM
      1 C1          0.7775   -0.7948   -0.0705 C.2       1 <0>        -0.0776
      2 C2         -0.1901   -0.0729    0.4879 C.2       1 <0>        -0.2239
      3 C3         -0.2148    1.3867    0.3098 C.2       1 <0>         0.5453
      4 O1          0.6497    1.9338   -0.3482 O.2       1 <0>        -0.5201
      5 N1         -1.1983    2.1176    0.8710 N.am      1 <0>        -0.6711
      6 C4         -1.1650    3.5137    0.7909 C.ar      1 <0>         0.1488
      7 C5          0.0636    4.1806    0.8263 C.ar      1 <0>        -0.0728
      8 C6          0.1262    5.5383    0.7452 C.ar      1 <0>        -0.0845
      9 C7         -1.0549    6.2855    0.6352 C.ar      1 <0>         0.1769
     10 C8         -2.3031    5.6166    0.6042 C.ar      1 <0>        -0.1665
     11 C9         -2.3452    4.2208    0.6834 C.ar      1 <0>        -0.1115
     12 C10        -3.4789    6.3983    0.4921 C.ar      1 <0>         0.4609
     13 N2         -3.3505    7.7165    0.4215 N.ar      1 <0>        -0.5769
     14 C11        -2.1619    8.2977    0.4547 C.ar      1 <0>         0.3399
     15 N3         -1.0405    7.6248    0.5574 N.ar      1 <0>        -0.5362
     16 N4         -4.7242    5.8046    0.4569 N.pl3     1 <0>        -0.6385
     17 C12        -5.8763    6.5961    0.4637 C.ar      1 <0>         0.1585
     18 C13        -7.0147    6.1742   -0.2119 C.ar      1 <0>        -0.1334
     19 C14        -8.1516    6.9579   -0.2031 C.ar      1 <0>        -0.0918
     20 C15        -8.1584    8.1619    0.4772 C.ar      1 <0>        -0.1069
     21 C16        -7.0268    8.5852    1.1515 C.ar      1 <0>        -0.0706
     22 C17        -5.8872    7.8030    1.1505 C.ar      1 <0>        -0.0848
     23 Br1        -7.0416   10.2318    2.0813 Br        1 <0>        -0.0434
     24 H1          0.7956   -1.8667    0.0603 H         1 <0>         0.1209
     25 H2          1.5450   -0.3091   -0.6547 H         1 <0>         0.1170
     26 H3         -0.9577   -0.5586    1.0722 H         1 <0>         0.1316
     27 H4         -1.9293    1.6755    1.3305 H         1 <0>         0.4144
     28 H5          0.9764    3.6102    0.9149 H         1 <0>         0.1459
     29 H6          1.0830    6.0386    0.7700 H         1 <0>         0.1477
     30 H7         -3.2919    3.7016    0.6610 H         1 <0>         0.1302
     31 H8         -2.1129    9.3749    0.3942 H         1 <0>         0.1986
     32 H9         -4.8000    4.8380    0.4274 H         1 <0>         0.4219
     33 H10        -7.0104    5.2342   -0.7437 H         1 <0>         0.1312
     34 H11        -9.0368    6.6300   -0.7278 H         1 <0>         0.1371
     35 H12        -9.0489    8.7729    0.4825 H         1 <0>         0.1347
     36 H13        -5.0054    8.1316    1.6804 H         1 <0>         0.1486
@<TRIPOS>BOND
     1    1    2 2
     2    1   24 1
     3    1   25 1
     4    2    3 1
     5    2   26 1
     6    3    4 2
     7    3    5 am
     8    5    6 1
     9    5   27 1
    10    6   11 ar
    11    6    7 ar
    12    7    8 ar
    13    7   28 1
    14    8    9 ar
    15    8   29 1
    16    9   15 ar
    17    9   10 ar
    18   10   11 ar
    19   10   12 ar
    20   11   30 1
    21   12   13 ar
    22   12   16 1
    23   13   14 ar
    24   14   15 ar
    25   14   31 1
    26   16   17 1
    27   16   32 1
    28   17   22 ar
    29   17   18 ar
    30   18   19 ar
    31   18   33 1
    32   19   20 ar
    33   19   34 1
    34   20   21 ar
    35   20   35 1
    36   21   22 ar
    37   21   23 1
    38   22   36 1
@<TRIPOS>MOLECULE
ZINC18371391
   51    55     0     0     0
SMALL
USER_CHARGES

@<TRIPOS>ATOM
      1 C1         -1.9121    0.8520   -0.5002 C.3       1 <0>         0.0932
      2 N1         -1.2344   -0.4395   -0.3627 N.pl3     1 <0>        -0.6168
      3 C2         -1.3570   -1.2022    0.8821 C.3       1 <0>         0.1028
      4 C3         -0.4735   -0.9422   -1.4153 C.ar      1 <0>         0.3834
      5 C4         -0.2766   -0.1621   -2.5423 C.ar      1 <0>        -0.2100
      6 C5          0.4899   -0.6862   -3.5849 C.ar      1 <0>        -0.1046
      7 C6          1.0321   -1.9899   -3.4464 C.ar      1 <0>         0.0725
      8 C7          0.7768   -2.7011   -2.2673 C.ar      1 <0>         0.2016
      9 N2          0.0526   -2.1581   -1.3148 N.ar      1 <0>        -0.5008
     10 N3          1.7671   -2.4864   -4.4507 N.ar      1 <0>        -0.5205
     11 C8          1.9823   -1.7871   -5.5372 C.ar      1 <0>         0.3237
     12 N4          1.5089   -0.5670   -5.7351 N.ar      1 <0>        -0.5674
     13 C9          0.7651    0.0428   -4.8194 C.ar      1 <0>         0.4557
     14 N5          0.2722    1.3143   -5.0265 N.pl3     1 <0>        -0.6297
     15 C10         0.4497    1.9407   -6.2658 C.ar      1 <0>         0.1136
     16 C11         0.4304    1.1813   -7.4367 C.ar      1 <0>        -0.0538
     17 C12         0.6016    1.7726   -8.6547 C.ar      1 <0>        -0.1220
     18 C13         0.7985    3.1488   -8.7416 C.ar      1 <0>         0.1252
     19 C14         0.8193    3.9246   -7.5670 C.ar      1 <0>        -0.1620
     20 C15         0.6374    3.3072   -6.3242 C.ar      1 <0>        -0.0675
     21 C16         1.0414    5.3038   -7.9895 C.2       1 <0>         0.0716
     22 N6          1.1382    5.3118   -9.2884 N.2       1 <0>        -0.2450
     23 N7          0.9954    4.0135   -9.7887 N.pl3     1 <0>        -0.3988
     24 C17         1.0480    3.6373  -11.2036 C.3       1 <0>         0.1823
     25 C18        -0.3377    3.7021  -11.7925 C.ar      1 <0>        -0.1191
     26 C19        -1.1555    2.5881  -11.7596 C.ar      1 <0>        -0.0991
     27 C20        -2.4265    2.6476  -12.2998 C.ar      1 <0>        -0.1223
     28 C21        -2.8799    3.8213  -12.8725 C.ar      1 <0>        -0.1098
     29 C22        -2.0624    4.9355  -12.9046 C.ar      1 <0>        -0.1227
     30 C23        -0.7929    4.8773  -12.3605 C.ar      1 <0>        -0.0919
     31 H1         -1.2494    1.6481   -0.1609 H         1 <0>         0.0556
     32 H2         -2.1719    1.0164   -1.5459 H         1 <0>         0.0689
     33 H3         -2.8194    0.8524    0.1040 H         1 <0>         0.0759
     34 H4         -1.9860   -0.6542    1.5836 H         1 <0>         0.0717
     35 H5         -1.8076   -2.1720    0.6711 H         1 <0>         0.0602
     36 H6         -0.3685   -1.3480    1.3178 H         1 <0>         0.0581
     37 H7         -0.7053    0.8266   -2.6131 H         1 <0>         0.1350
     38 H8          1.1787   -3.6953   -2.1393 H         1 <0>         0.1796
     39 H9          2.5817   -2.2323   -6.3176 H         1 <0>         0.1951
     40 H10        -0.1975    1.7745   -4.3133 H         1 <0>         0.4201
     41 H11         0.2787    0.1136   -7.3781 H         1 <0>         0.1419
     42 H12         0.5847    1.1726   -9.5525 H         1 <0>         0.1271
     43 H13         0.6481    3.8944   -5.4179 H         1 <0>         0.1312
     44 H14         1.1124    6.1644   -7.3408 H         1 <0>         0.1962
     45 H15         1.7027    4.3253  -11.7385 H         1 <0>         0.1028
     46 H16         1.4347    2.6223  -11.2955 H         1 <0>         0.0997
     47 H17        -0.8013    1.6712  -11.3122 H         1 <0>         0.1215
     48 H18        -3.0652    1.7771  -12.2748 H         1 <0>         0.1245
     49 H19        -3.8727    3.8675  -13.2952 H         1 <0>         0.1238
     50 H20        -2.4165    5.8523  -13.3523 H         1 <0>         0.1246
     51 H21        -0.1556    5.7489  -12.3823 H         1 <0>         0.1246
@<TRIPOS>BOND
     1    1    2 1
     2    1   31 1
     3    1   32 1
     4    1   33 1
     5    2    3 1
     6    2    4 1
     7    3   34 1
     8    3   35 1
     9    3   36 1
    10    4    9 ar
    11    4    5 ar
    12    5    6 ar
    13    5   37 1
    14    6   13 ar
    15    6    7 ar
    16    7    8 ar
    17    7   10 ar
    18    8    9 ar
    19    8   38 1
    20   10   11 ar
    21   11   12 ar
    22   11   39 1
    23   12   13 ar
    24   13   14 1
    25   14   15 1
    26   14   40 1
    27   15   20 ar
    28   15   16 ar
    29   16   17 ar
    30   16   41 1
    31   17   18 ar
    32   17   42 1
    33   18   23 1
    34   18   19 ar
    35   19   20 ar
    36   19   21 1
    37   20   43 1
    38   21   22 2
    39   21   44 1
    40   22   23 1
    41   23   24 1
    42   24   25 1
    43   24   45 1
    44   24   46 1
    45   25   30 ar
    46   25   26 ar
    47   26   27 ar
    48   26   47 1
    49   27   28 ar
    50   27   48 1
    51   28   29 ar
    52   28   49 1
    53   29   30 ar
    54   29   50 1
    55   30   51 1
@<TRIPOS>MOLECULE
ZINC27439698
   59    62     0     0     0
SMALL
USER_CHARGES

@<TRIPOS>ATOM
      1 C1         -0.2063    1.0844    0.8125 C.2       1 <0>        -0.0780
      2 C2         -0.0916   -0.1284    0.2785 C.2       1 <0>        -0.2217
      3 C3          1.1892   -0.8472    0.3546 C.2       1 <0>         0.5464
      4 O1          2.1435   -0.3327    0.9059 O.2       1 <0>        -0.5301
      5 N1          1.3054   -2.0761   -0.1864 N.am      1 <0>        -0.6549
      6 C4          2.5517   -2.7129   -0.2160 C.ar      1 <0>         0.1200
      7 C5          3.7048   -1.9595   -0.1827 C.ar      1 <0>        -0.0579
      8 C6          4.9490   -2.5997   -0.2120 C.ar      1 <0>        -0.1974
      9 C7          5.0154   -4.0138   -0.2753 C.ar      1 <0>         0.2129
     10 C8          3.8313   -4.7603   -0.3083 C.ar      1 <0>        -0.1947
     11 C9          2.6164   -4.1137   -0.2734 C.ar      1 <0>         0.1622
     12 O2          1.4681   -4.8389   -0.3002 O.3       1 <0>        -0.3093
     13 C10         1.5999   -6.2606   -0.3586 C.3       1 <0>         0.0588
     14 C11         0.2106   -6.9010   -0.3813 C.3       1 <0>        -0.1156
     15 C12         0.3517   -8.4232   -0.4438 C.3       1 <0>         0.0578
     16 N2         -0.9822   -9.0382   -0.4657 N.3       1 <0>        -0.5360
     17 C13        -1.6880   -8.8108    0.8038 C.3       1 <0>         0.0125
     18 C14        -3.0921   -9.4148    0.7161 C.3       1 <0>         0.0626
     19 O3         -2.9885  -10.8047    0.3955 O.3       1 <0>        -0.3850
     20 C15        -2.3071  -11.0626   -0.8351 C.3       1 <0>         0.0628
     21 C16        -0.8951  -10.4753   -0.7631 C.3       1 <0>         0.0171
     22 N3          6.2221   -4.6015   -0.3018 N.ar      1 <0>        -0.5452
     23 C17         7.3156   -3.8777   -0.2694 C.ar      1 <0>         0.3493
     24 N4          7.3023   -2.5556   -0.2097 N.ar      1 <0>        -0.5859
     25 C18         6.1642   -1.8746   -0.1796 C.ar      1 <0>         0.4714
     26 N5          6.1650   -0.4957   -0.1182 N.pl3     1 <0>        -0.6328
     27 C19         7.3694    0.2084   -0.2227 C.ar      1 <0>         0.1581
     28 C20         7.5013    1.4536    0.3785 C.ar      1 <0>        -0.1169
     29 C21         8.6911    2.1472    0.2750 C.ar      1 <0>        -0.1176
     30 C22         9.7524    1.6027   -0.4280 C.ar      1 <0>         0.0901
     31 C23         9.6235    0.3609   -1.0292 C.ar      1 <0>        -0.0524
     32 C24         8.4363   -0.3392   -0.9225 C.ar      1 <0>        -0.0856
     33 Cl1        10.9555   -0.3188   -1.9109 Cl        1 <0>        -0.0424
     34 F1         10.9152    2.2833   -0.5284 F         1 <0>        -0.1264
     35 H1          0.6411    1.5413    1.3020 H         1 <0>         0.1166
     36 H2         -1.1456    1.6141    0.7527 H         1 <0>         0.1209
     37 H3         -0.9390   -0.5853   -0.2110 H         1 <0>         0.1323
     38 H4          0.5255   -2.5194   -0.5554 H         1 <0>         0.4201
     39 H5          3.6489   -0.8820   -0.1348 H         1 <0>         0.1596
     40 H6          3.8708   -5.8385   -0.3565 H         1 <0>         0.1517
     41 H7          2.1429   -6.5383   -1.2620 H         1 <0>         0.0720
     42 H8          2.1473   -6.6110    0.5165 H         1 <0>         0.0691
     43 H9         -0.3323   -6.6233    0.5221 H         1 <0>         0.0760
     44 H10        -0.3367   -6.5506   -1.2564 H         1 <0>         0.0860
     45 H11         0.8947   -8.7010   -1.3473 H         1 <0>         0.0821
     46 H12         0.8990   -8.7736    0.4312 H         1 <0>         0.0409
     47 H13        -1.1377   -9.2854    1.6162 H         1 <0>         0.0448
     48 H14        -1.7636   -7.7398    0.9914 H         1 <0>         0.0895
     49 H15        -3.5986   -9.2990    1.6743 H         1 <0>         0.0993
     50 H16        -3.6604   -8.9035   -0.0609 H         1 <0>         0.0609
     51 H17        -2.2459  -12.1385   -0.9988 H         1 <0>         0.1001
     52 H18        -2.8525  -10.5991   -1.6572 H         1 <0>         0.0612
     53 H19        -0.3918  -10.6192   -1.7193 H         1 <0>         0.0886
     54 H20        -0.3321  -10.9764    0.0243 H         1 <0>         0.0452
     55 H21         8.2696   -4.3834   -0.2921 H         1 <0>         0.1993
     56 H22         5.3306   -0.0149   -0.0027 H         1 <0>         0.4275
     57 H23         6.6738    1.8794    0.9265 H         1 <0>         0.1431
     58 H24         8.7936    3.1154    0.7424 H         1 <0>         0.1506
     59 H25         8.3373   -1.3092   -1.3869 H         1 <0>         0.1663
@<TRIPOS>BOND
     1    1    2 2
     2    1   35 1
     3    1   36 1
     4    2    3 1
     5    2   37 1
     6    3    4 2
     7    3    5 am
     8    5    6 1
     9    5   38 1
    10    6   11 ar
    11    6    7 ar
    12    7    8 ar
    13    7   39 1
    14    8   25 ar
    15    8    9 ar
    16    9   10 ar
    17    9   22 ar
    18   10   11 ar
    19   10   40 1
    20   11   12 1
    21   12   13 1
    22   13   14 1
    23   13   41 1
    24   13   42 1
    25   14   15 1
    26   14   43 1
    27   14   44 1
    28   15   16 1
    29   15   45 1
    30   15   46 1
    31   16   21 1
    32   16   17 1
    33   17   18 1
    34   17   47 1
    35   17   48 1
    36   18   19 1
    37   18   49 1
    38   18   50 1
    39   19   20 1
    40   20   21 1
    41   20   51 1
    42   20   52 1
    43   21   53 1
    44   21   54 1
    45   22   23 ar
    46   23   24 ar
    47   23   55 1
    48   24   25 ar
    49   25   26 1
    50   26   27 1
    51   26   56 1
    52   27   32 ar
    53   27   28 ar
    54   28   29 ar
    55   28   57 1
    56   29   30 ar
    57   29   58 1
    58   30   31 ar
    59   30   34 1
    60   31   32 ar
    61   31   33 1
    62   32   59 1
@<TRIPOS>MOLECULE
ZINC13831337
   48    51     0     0     0
SMALL
USER_CHARGES

@<TRIPOS>ATOM
      1 C1          2.4779   -6.5050   -1.8341 C.ar      1 <0>        -0.1003
      2 C2          2.8394   -7.7421   -1.3323 C.ar      1 <0>        -0.0917
      3 C3          1.9781   -8.4323   -0.4995 C.ar      1 <0>        -0.1630
      4 C4          0.7531   -7.8880   -0.1661 C.ar      1 <0>        -0.1052
      5 C5          0.3872   -6.6458   -0.6680 C.ar      1 <0>         0.1566
      6 C6          1.2551   -5.9549   -1.5044 C.ar      1 <0>        -0.0907
      7 N1         -0.8519   -6.0922   -0.3329 N.pl3     1 <0>        -0.6494
      8 C7         -0.9928   -4.7156   -0.2345 C.ar      1 <0>         0.4566
      9 C8         -2.1741   -4.1594    0.2474 C.ar      1 <0>        -0.3344
     10 C9         -2.2654   -2.7733    0.3270 C.ar      1 <0>         0.4588
     11 N2         -1.2264   -2.0340   -0.0580 N.ar      1 <0>        -0.5861
     12 C10        -0.1249   -2.5985   -0.5089 C.ar      1 <0>         0.3743
     13 N3          0.0023   -3.9071   -0.5947 N.ar      1 <0>        -0.5942
     14 N4         -3.4217   -2.1701    0.8001 N.pl3     1 <0>        -0.6458
     15 C11        -3.5758   -0.7840    0.7056 C.ar      1 <0>         0.1733
     16 C12        -2.4571    0.0402    0.6786 C.ar      1 <0>        -0.1489
     17 C13        -2.6087    1.4099    0.5852 C.ar      1 <0>        -0.0790
     18 C14        -3.8723    1.9653    0.5188 C.ar      1 <0>        -0.1440
     19 C15        -4.9946    1.1472    0.5453 C.ar      1 <0>         0.1676
     20 C16        -4.8458   -0.2297    0.6328 C.ar      1 <0>        -0.1848
     21 N5         -6.2737    1.7105    0.4781 N.am      1 <0>        -0.6714
     22 C17        -6.4669    2.8661   -0.1880 C.2       1 <0>         0.5441
     23 O1         -5.5809    3.3236   -0.8784 O.2       1 <0>        -0.5133
     24 C18        -7.7839    3.5898   -0.0750 C.3       1 <0>        -0.2000
     25 C19        -8.6738    3.6357   -1.3187 C.3       1 <0>        -0.1517
     26 C20        -7.9412    4.8964   -0.8553 C.3       1 <0>        -0.1440
     27 C21         2.3759   -9.7802    0.0445 C.3       1 <0>         0.5094
     28 F1          3.6483  -10.1173   -0.4296 F         1 <0>        -0.1754
     29 F2          2.3971   -9.7311    1.4425 F         1 <0>        -0.1765
     30 F3          1.4519  -10.7434   -0.3744 F         1 <0>        -0.1768
     31 H1          3.1548   -5.9666   -2.4810 H         1 <0>         0.1390
     32 H2          3.7964   -8.1701   -1.5917 H         1 <0>         0.1387
     33 H3          0.0805   -8.4280    0.4838 H         1 <0>         0.1338
     34 H4          0.9736   -4.9887   -1.8964 H         1 <0>         0.1642
     35 H5         -1.6131   -6.6707   -0.1692 H         1 <0>         0.4230
     36 H6         -2.9986   -4.7874    0.5513 H         1 <0>         0.1426
     37 H7          0.6993   -1.9706   -0.8134 H         1 <0>         0.2029
     38 H8         -4.1232   -2.7102    1.1965 H         1 <0>         0.4204
     39 H9         -1.4682   -0.3908    0.7310 H         1 <0>         0.1693
     40 H10        -1.7378    2.0483    0.5644 H         1 <0>         0.1292
     41 H11        -3.9875    3.0367    0.4466 H         1 <0>         0.1326
     42 H12        -5.7167   -0.8682    0.6491 H         1 <0>         0.1251
     43 H13        -7.0213    1.2693    0.9109 H         1 <0>         0.4117
     44 H14        -8.2769    3.5202    0.8947 H         1 <0>         0.1283
     45 H15        -8.3067    3.1424   -2.2187 H         1 <0>         0.1007
     46 H16        -9.7525    3.5961   -1.1675 H         1 <0>         0.1075
     47 H17        -8.5380    5.6863   -0.3991 H         1 <0>         0.1067
     48 H18        -7.0922    5.2326   -1.4504 H         1 <0>         0.1098
@<TRIPOS>BOND
     1    1    6 ar
     2    1    2 ar
     3    1   31 1
     4    2    3 ar
     5    2   32 1
     6    3    4 ar
     7    3   27 1
     8    4    5 ar
     9    4   33 1
    10    5    6 ar
    11    5    7 1
    12    6   34 1
    13    7    8 1
    14    7   35 1
    15    8   13 ar
    16    8    9 ar
    17    9   10 ar
    18    9   36 1
    19   10   11 ar
    20   10   14 1
    21   11   12 ar
    22   12   13 ar
    23   12   37 1
    24   14   15 1
    25   14   38 1
    26   15   20 ar
    27   15   16 ar
    28   16   17 ar
    29   16   39 1
    30   17   18 ar
    31   17   40 1
    32   18   19 ar
    33   18   41 1
    34   19   20 ar
    35   19   21 1
    36   20   42 1
    37   21   22 am
    38   21   43 1
    39   22   23 2
    40   22   24 1
    41   24   26 1
    42   24   25 1
    43   24   44 1
    44   25   26 1
    45   25   45 1
    46   25   46 1
    47   26   47 1
    48   26   48 1
    49   27   28 1
    50   27   29 1
    51   27   30 1
@<TRIPOS>MOLECULE
ZINC01546066
   52    54     0     0     0
SMALL
USER_CHARGES

@<TRIPOS>ATOM
      1 C1          1.3190    1.4185    0.8998 C.3       1 <0>         0.0308
      2 O1          1.1221    0.0121    0.7412 O.3       1 <0>        -0.3842
      3 C2          1.6336   -0.7719    1.8209 C.3       1 <0>         0.0626
      4 C3          1.3686   -2.2534    1.5456 C.3       1 <0>         0.0560
      5 O2          2.1105   -2.6643    0.3955 O.3       1 <0>        -0.2877
      6 C4          1.9861   -3.9631    0.0122 C.ar      1 <0>         0.1163
      7 C5          1.1727   -4.8014    0.7206 C.ar      1 <0>        -0.1508
      8 C6          1.0439   -6.1386    0.3269 C.ar      1 <0>        -0.1822
      9 C7          1.7562   -6.6146   -0.8018 C.ar      1 <0>         0.2018
     10 C8          2.5842   -5.7378   -1.5132 C.ar      1 <0>        -0.1867
     11 C9          2.6894   -4.4253   -1.1088 C.ar      1 <0>         0.1692
     12 O3          3.4878   -3.5711   -1.8004 O.3       1 <0>        -0.2847
     13 C10         4.1782   -4.1019   -2.9333 C.3       1 <0>         0.0544
     14 C11         5.0210   -3.0002   -3.5791 C.3       1 <0>         0.0626
     15 O4          6.0448   -2.5894   -2.6708 O.3       1 <0>        -0.3848
     16 C12         6.8933   -1.5581   -3.1792 C.3       1 <0>         0.0309
     17 N1          1.6146   -7.9009   -1.1583 N.ar      1 <0>        -0.5426
     18 C13         0.8310   -8.6986   -0.4725 C.ar      1 <0>         0.3422
     19 N2          0.1465   -8.2987    0.5874 N.ar      1 <0>        -0.5807
     20 C14         0.2146   -7.0483    1.0253 C.ar      1 <0>         0.4641
     21 N3         -0.5043   -6.6451    2.1328 N.pl3     1 <0>        -0.6417
     22 C15        -1.2223   -7.5837    2.8797 C.ar      1 <0>         0.1534
     23 C16        -2.4417   -7.2339    3.4483 C.ar      1 <0>        -0.1365
     24 C17        -3.1548   -8.1581    4.1879 C.ar      1 <0>        -0.0976
     25 C18        -2.6612   -9.4349    4.3666 C.ar      1 <0>        -0.1098
     26 C19        -1.4382   -9.7960    3.7995 C.ar      1 <0>         0.0290
     27 C20        -0.7210   -8.8652    3.0488 C.ar      1 <0>        -0.0846
     28 C21        -0.9239  -11.1197    3.9839 C.1       1 <0>        -0.1518
     29 C22        -0.5023  -12.2049    4.1351 C.1       1 <0>        -0.1689
     30 H1          2.3858    1.6300    0.9737 H         1 <0>         0.0438
     31 H2          0.9034    1.9430    0.0394 H         1 <0>         0.0882
     32 H3          0.8182    1.7554    1.8074 H         1 <0>         0.0421
     33 H4          2.7069   -0.6059    1.9138 H         1 <0>         0.0642
     34 H5          1.1392   -0.4804    2.7476 H         1 <0>         0.0738
     35 H6          1.6782   -2.8442    2.4078 H         1 <0>         0.0797
     36 H7          0.3045   -2.4047    1.3647 H         1 <0>         0.0731
     37 H8          0.6320   -4.4344    1.5804 H         1 <0>         0.1376
     38 H9          3.1329   -6.0870   -2.3754 H         1 <0>         0.1546
     39 H10         4.8282   -4.9164   -2.6138 H         1 <0>         0.0783
     40 H11         3.4545   -4.4770   -3.6569 H         1 <0>         0.0849
     41 H12         5.4773   -3.3804   -4.4931 H         1 <0>         0.0752
     42 H13         4.3841   -2.1485   -3.8181 H         1 <0>         0.0638
     43 H14         6.2953   -0.6764   -3.4098 H         1 <0>         0.0434
     44 H15         7.6433   -1.3027   -2.4306 H         1 <0>         0.0879
     45 H16         7.3884   -1.9084   -4.0848 H         1 <0>         0.0424
     46 H17         0.7401   -9.7278   -0.7869 H         1 <0>         0.1966
     47 H18        -0.5113   -5.7106    2.3927 H         1 <0>         0.4197
     48 H19        -2.8329   -6.2365    3.3119 H         1 <0>         0.1281
     49 H20        -4.1012   -7.8805    4.6278 H         1 <0>         0.1331
     50 H21        -3.2213  -10.1542    4.9456 H         1 <0>         0.1284
     51 H22         0.2239   -9.1405    2.6039 H         1 <0>         0.1386
     52 H23        -0.1252  -13.1754    4.2703 H         1 <0>         0.2249
@<TRIPOS>BOND
     1    1    2 1
     2    1   30 1
     3    1   31 1
     4    1   32 1
     5    2    3 1
     6    3    4 1
     7    3   33 1
     8    3   34 1
     9    4    5 1
    10    4   35 1
    11    4   36 1
    12    5    6 1
    13    6   11 ar
    14    6    7 ar
    15    7    8 ar
    16    7   37 1
    17    8   20 ar
    18    8    9 ar
    19    9   10 ar
    20    9   17 ar
    21   10   11 ar
    22   10   38 1
    23   11   12 1
    24   12   13 1
    25   13   14 1
    26   13   39 1
    27   13   40 1
    28   14   15 1
    29   14   41 1
    30   14   42 1
    31   15   16 1
    32   16   43 1
    33   16   44 1
    34   16   45 1
    35   17   18 ar
    36   18   19 ar
    37   18   46 1
    38   19   20 ar
    39   20   21 1
    40   21   22 1
    41   21   47 1
    42   22   27 ar
    43   22   23 ar
    44   23   24 ar
    45   23   48 1
    46   24   25 ar
    47   24   49 1
    48   25   26 ar
    49   25   50 1
    50   26   27 ar
    51   26   28 1
    52   27   51 1
    53   28   29 3
    54   29   52 1
@<TRIPOS>MOLECULE
ZINC01488207
   37    39     0     0     0
SMALL
USER_CHARGES
N-[4-(3-bromophenyl)aminoquinazolin-6-yl]but-2-ynamide
@<TRIPOS>ATOM
      1 C1         -9.0048    0.0385    2.3715 C.3       1 <0>        -0.0604
      2 C2         -7.7093   -0.5501    1.9945 C.1       1 <0>        -0.0517
      3 C3         -6.6761   -1.0195    1.6938 C.1       1 <0>        -0.2504
      4 C4         -5.4158   -1.5920    1.3270 C.2       1 <0>         0.6419
      5 O1         -5.1340   -2.7205    1.6826 O.2       1 <0>        -0.4985
      6 N1         -4.5420   -0.8804    0.5878 N.am      1 <0>        -0.6635
      7 C5         -3.2732   -1.4006    0.3117 C.ar      1 <0>         0.1443
      8 C6         -3.1208   -2.7723    0.0859 C.ar      1 <0>        -0.0730
      9 C7         -1.8979   -3.3059   -0.1853 C.ar      1 <0>        -0.0850
     10 C8         -0.7708   -2.4741   -0.2407 C.ar      1 <0>         0.1798
     11 C9         -0.9172   -1.0846   -0.0073 C.ar      1 <0>        -0.1688
     12 C10        -2.1832   -0.5556    0.2640 C.ar      1 <0>        -0.1045
     13 C11         0.2389   -0.2690   -0.0754 C.ar      1 <0>         0.4624
     14 N2          1.4005   -0.8500   -0.3439 N.ar      1 <0>        -0.5772
     15 C12         1.4895   -2.1543   -0.5501 C.ar      1 <0>         0.3419
     16 N3          0.4529   -2.9568   -0.5046 N.ar      1 <0>        -0.5366
     17 N4          0.1595    1.0922    0.1376 N.pl3     1 <0>        -0.6382
     18 C13         1.3252    1.8625    0.1771 C.ar      1 <0>         0.1579
     19 C14         1.3085    3.1745   -0.2798 C.ar      1 <0>        -0.1333
     20 C15         2.4615    3.9333   -0.2392 C.ar      1 <0>        -0.0920
     21 C16         3.6325    3.3890    0.2558 C.ar      1 <0>        -0.1066
     22 C17         3.6530    2.0830    0.7121 C.ar      1 <0>        -0.0706
     23 C18         2.5011    1.3199    0.6785 C.ar      1 <0>        -0.0846
     24 Br1         5.2565    1.3439    1.3891 Br        1 <0>        -0.0431
     25 H1         -9.5718   -0.6800    2.9634 H         1 <0>         0.0950
     26 H2         -8.8366    0.9410    2.9590 H         1 <0>         0.0962
     27 H3         -9.5653    0.2903    1.4712 H         1 <0>         0.0966
     28 H4         -4.7929   -0.0075    0.2472 H         1 <0>         0.4168
     29 H5         -3.9857   -3.4178    0.1278 H         1 <0>         0.1517
     30 H6         -1.7964   -4.3673   -0.3571 H         1 <0>         0.1490
     31 H7         -2.3058    0.5030    0.4394 H         1 <0>         0.1314
     32 H8          2.4597   -2.5772   -0.7651 H         1 <0>         0.1990
     33 H9         -0.7054    1.5150    0.2558 H         1 <0>         0.4220
     34 H10         0.3946    3.6004   -0.6668 H         1 <0>         0.1313
     35 H11         2.4486    4.9533   -0.5940 H         1 <0>         0.1372
     36 H12         4.5328    3.9847    0.2864 H         1 <0>         0.1347
     37 H13         2.5163    0.3018    1.0386 H         1 <0>         0.1489
@<TRIPOS>BOND
     1    1    2 1
     2    1   25 1
     3    1   26 1
     4    1   27 1
     5    2    3 3
     6    3    4 1
     7    4    5 2
     8    4    6 am
     9    6    7 1
    10    6   28 1
    11    7   12 ar
    12    7    8 ar
    13    8    9 ar
    14    8   29 1
    15    9   10 ar
    16    9   30 1
    17   10   16 ar
    18   10   11 ar
    19   11   12 ar
    20   11   13 ar
    21   12   31 1
    22   13   14 ar
    23   13   17 1
    24   14   15 ar
    25   15   16 ar
    26   15   32 1
    27   17   18 1
    28   17   33 1
    29   18   23 ar
    30   18   19 ar
    31   19   20 ar
    32   19   34 1
    33   20   21 ar
    34   20   35 1
    35   21   22 ar
    36   21   36 1
    37   22   23 ar
    38   22   24 1
    39   23   37 1
