@<TRIPOS>MOLECULE
ZINC18371391
   51    55     0     0     0
SMALL
USER_CHARGES

@<TRIPOS>ATOM
      1 C1         -1.9121    0.8520   -0.5002 C.3       1 <0>         0.0932
      2 N1         -1.2344   -0.4395   -0.3627 N.pl3     1 <0>        -0.6168
      3 C2         -1.3570   -1.2022    0.8821 C.3       1 <0>         0.1028
      4 C3         -0.4735   -0.9422   -1.4153 C.ar      1 <0>         0.3834
      5 C4         -0.2766   -0.1621   -2.5423 C.ar      1 <0>        -0.2100
      6 C5          0.4899   -0.6862   -3.5849 C.ar      1 <0>        -0.1046
      7 C6          1.0321   -1.9899   -3.4464 C.ar      1 <0>         0.0725
      8 C7          0.7768   -2.7011   -2.2673 C.ar      1 <0>         0.2016
      9 N2          0.0526   -2.1581   -1.3148 N.ar      1 <0>        -0.5008
     10 N3          1.7671   -2.4864   -4.4507 N.ar      1 <0>        -0.5205
     11 C8          1.9823   -1.7871   -5.5372 C.ar      1 <0>         0.3237
     12 N4          1.5089   -0.5670   -5.7351 N.ar      1 <0>        -0.5674
     13 C9          0.7651    0.0428   -4.8194 C.ar      1 <0>         0.4557
     14 N5          0.2722    1.3143   -5.0265 N.pl3     1 <0>        -0.6297
     15 C10         0.4497    1.9407   -6.2658 C.ar      1 <0>         0.1136
     16 C11         0.4304    1.1813   -7.4367 C.ar      1 <0>        -0.0538
     17 C12         0.6016    1.7726   -8.6547 C.ar      1 <0>        -0.1220
     18 C13         0.7985    3.1488   -8.7416 C.ar      1 <0>         0.1252
     19 C14         0.8193    3.9246   -7.5670 C.ar      1 <0>        -0.1620
     20 C15         0.6374    3.3072   -6.3242 C.ar      1 <0>        -0.0675
     21 C16         1.0414    5.3038   -7.9895 C.2       1 <0>         0.0716
     22 N6          1.1382    5.3118   -9.2884 N.2       1 <0>        -0.2450
     23 N7          0.9954    4.0135   -9.7887 N.pl3     1 <0>        -0.3988
     24 C17         1.0480    3.6373  -11.2036 C.3       1 <0>         0.1823
     25 C18        -0.3377    3.7021  -11.7925 C.ar      1 <0>        -0.1191
     26 C19        -1.1555    2.5881  -11.7596 C.ar      1 <0>        -0.0991
     27 C20        -2.4265    2.6476  -12.2998 C.ar      1 <0>        -0.1223
     28 C21        -2.8799    3.8213  -12.8725 C.ar      1 <0>        -0.1098
     29 C22        -2.0624    4.9355  -12.9046 C.ar      1 <0>        -0.1227
     30 C23        -0.7929    4.8773  -12.3605 C.ar      1 <0>        -0.0919
     31 H1         -1.2494    1.6481   -0.1609 H         1 <0>         0.0556
     32 H2         -2.1719    1.0164   -1.5459 H         1 <0>         0.0689
     33 H3         -2.8194    0.8524    0.1040 H         1 <0>         0.0759
     34 H4         -1.9860   -0.6542    1.5836 H         1 <0>         0.0717
     35 H5         -1.8076   -2.1720    0.6711 H         1 <0>         0.0602
     36 H6         -0.3685   -1.3480    1.3178 H         1 <0>         0.0581
     37 H7         -0.7053    0.8266   -2.6131 H         1 <0>         0.1350
     38 H8          1.1787   -3.6953   -2.1393 H         1 <0>         0.1796
     39 H9          2.5817   -2.2323   -6.3176 H         1 <0>         0.1951
     40 H10        -0.1975    1.7745   -4.3133 H         1 <0>         0.4201
     41 H11         0.2787    0.1136   -7.3781 H         1 <0>         0.1419
     42 H12         0.5847    1.1726   -9.5525 H         1 <0>         0.1271
     43 H13         0.6481    3.8944   -5.4179 H         1 <0>         0.1312
     44 H14         1.1124    6.1644   -7.3408 H         1 <0>         0.1962
     45 H15         1.7027    4.3253  -11.7385 H         1 <0>         0.1028
     46 H16         1.4347    2.6223  -11.2955 H         1 <0>         0.0997
     47 H17        -0.8013    1.6712  -11.3122 H         1 <0>         0.1215
     48 H18        -3.0652    1.7771  -12.2748 H         1 <0>         0.1245
     49 H19        -3.8727    3.8675  -13.2952 H         1 <0>         0.1238
     50 H20        -2.4165    5.8523  -13.3523 H         1 <0>         0.1246
     51 H21        -0.1556    5.7489  -12.3823 H         1 <0>         0.1246
@<TRIPOS>BOND
     1    1    2 1
     2    1   31 1
     3    1   32 1
     4    1   33 1
     5    2    3 1
     6    2    4 1
     7    3   34 1
     8    3   35 1
     9    3   36 1
    10    4    9 ar
    11    4    5 ar
    12    5    6 ar
    13    5   37 1
    14    6   13 ar
    15    6    7 ar
    16    7    8 ar
    17    7   10 ar
    18    8    9 ar
    19    8   38 1
    20   10   11 ar
    21   11   12 ar
    22   11   39 1
    23   12   13 ar
    24   13   14 1
    25   14   15 1
    26   14   40 1
    27   15   20 ar
    28   15   16 ar
    29   16   17 ar
    30   16   41 1
    31   17   18 ar
    32   17   42 1
    33   18   23 1
    34   18   19 ar
    35   19   20 ar
    36   19   21 1
    37   20   43 1
    38   21   22 2
    39   21   44 1
    40   22   23 1
    41   23   24 1
    42   24   25 1
    43   24   45 1
    44   24   46 1
    45   25   30 ar
    46   25   26 ar
    47   26   27 ar
    48   26   47 1
    49   27   28 ar
    50   27   48 1
    51   28   29 ar
    52   28   49 1
    53   29   30 ar
    54   29   50 1
    55   30   51 1
