@<TRIPOS>MOLECULE
ZINC01640999
   19    20     0     0     0
SMALL
USER_CHARGES
3-hydroxy-1H-quinazoline-2,4-dione
@<TRIPOS>ATOM
      1 C1          1.2044   -0.6945   -0.0136 C.ar      1 <0>        -0.1493
      2 C2          0.0021   -0.0041    0.0020 C.ar      1 <0>        -0.0423
      3 C3         -0.0166    1.3764    0.0096 C.ar      1 <0>        -0.1597
      4 C4          1.1775    2.0809    0.0020 C.ar      1 <0>         0.1931
      5 C5          2.3970    1.3820   -0.0139 C.ar      1 <0>        -0.1846
      6 C6          2.4021   -0.0109   -0.0219 C.ar      1 <0>        -0.0104
      7 C7          3.6476    2.1619   -0.0226 C.2       1 <0>         0.5775
      8 O1          4.7290    1.6062   -0.0371 O.2       1 <0>        -0.4670
      9 N1          3.5613    3.5098   -0.0144 N.am      1 <0>        -0.4200
     10 C8          2.3719    4.1317    0.0007 C.2       1 <0>         0.6947
     11 O2          2.3509    5.3472    0.0067 O.2       1 <0>        -0.5441
     12 N2          1.2031    3.4680    0.0092 N.am      1 <0>        -0.6333
     13 H1          0.3694    3.9638    0.0204 H         1 <0>         0.4409
     14 O3          4.7484    4.2817   -0.0225 O.3       1 <0>        -0.2792
     15 H2          1.2029   -1.7745   -0.0198 H         1 <0>         0.1420
     16 H3         -0.9289   -0.5515    0.0080 H         1 <0>         0.1420
     17 H4         -0.9581    1.9056    0.0170 H         1 <0>         0.1440
     18 H5          3.3370   -0.5514   -0.0348 H         1 <0>         0.1492
     19 H6          4.5966    5.2367   -0.0158 H         1 <0>         0.4066
@<TRIPOS>BOND
     1    1    6 ar
     2    1    2 ar
     3    1   15 1
     4    2    3 ar
     5    2   16 1
     6    3    4 ar
     7    3   17 1
     8    4   12 1
     9    4    5 ar
    10    5    6 ar
    11    5    7 1
    12    6   18 1
    13    7    8 2
    14    7    9 am
    15    9   10 am
    16    9   14 1
    17   10   11 2
    18   10   12 am
    19   12   13 1
    20   14   19 1
@<TRIPOS>MOLECULE
ZINC13475020
   32    33     0     0     0
SMALL
USER_CHARGES

@<TRIPOS>ATOM
      1 C1          3.9170    1.3883   -3.6184 C.ar      1 <0>        -0.1546
      2 C2          3.7772    0.0127   -3.6123 C.ar      1 <0>        -0.0809
      3 C3          3.6660   -0.6661   -2.4144 C.ar      1 <0>        -0.1931
      4 C4          3.6952    0.0337   -1.2165 C.ar      1 <0>         0.1236
      5 C5          3.8361    1.4141   -1.2255 C.ar      1 <0>        -0.1475
      6 C6          3.9464    2.0881   -2.4262 C.ar      1 <0>        -0.0844
      7 O1          3.5855   -0.6316   -0.0368 O.3       1 <0>        -0.2604
      8 C7          3.4589   -1.9816   -0.0764 C.ar      1 <0>         0.1025
      9 C8          2.1944   -2.5575   -0.1441 C.ar      1 <0>        -0.1376
     10 C9          2.0611   -3.9215   -0.1843 C.ar      1 <0>        -0.0522
     11 C10         3.2006   -4.7351   -0.1576 C.ar      1 <0>        -0.1535
     12 C11         4.4713   -4.1503   -0.0898 C.ar      1 <0>        -0.0595
     13 C12         4.5941   -2.7852   -0.0549 C.ar      1 <0>        -0.1361
     14 C13         3.0635   -6.1966   -0.1999 C.2       1 <0>         0.3825
     15 C14         4.2914   -7.0698   -0.1710 C.3       1 <0>        -0.2126
     16 C15         3.8791   -8.5183   -0.2244 C.2       1 <0>         0.2904
     17 O2          2.7088   -8.8114   -0.2803 O.2       1 <0>        -0.4219
     18 C16         4.9178   -9.5914   -0.2083 C.2       1 <0>         0.4696
     19 O3          4.5839  -10.7645   -0.2516 O.co2     1 <0>        -0.6514
     20 O4          6.1004   -9.2953   -0.1519 O.co2     1 <0>        -0.6685
     21 O5          1.9619   -6.7010   -0.2582 O.2       1 <0>        -0.4134
     22 H1          4.0080    1.9167   -4.5559 H         1 <0>         0.1243
     23 H2          3.7545   -0.5314   -4.5449 H         1 <0>         0.1266
     24 H3          3.5560   -1.7405   -2.4102 H         1 <0>         0.1298
     25 H4          3.8587    1.9611   -0.2945 H         1 <0>         0.1318
     26 H5          4.0557    3.1625   -2.4337 H         1 <0>         0.1300
     27 H6          1.3163   -1.9291   -0.1647 H         1 <0>         0.1353
     28 H7          1.0789   -4.3676   -0.2362 H         1 <0>         0.1419
     29 H8          5.3531   -4.7735   -0.0685 H         1 <0>         0.1474
     30 H9          5.5737   -2.3331   -0.0064 H         1 <0>         0.1377
     31 H10         4.9214   -6.8394   -1.0301 H         1 <0>         0.1269
     32 H11         4.8478   -6.8840    0.7477 H         1 <0>         0.1271
@<TRIPOS>BOND
     1    1    6 ar
     2    1    2 ar
     3    1   22 1
     4    2    3 ar
     5    2   23 1
     6    3    4 ar
     7    3   24 1
     8    4    5 ar
     9    4    7 1
    10    5    6 ar
    11    5   25 1
    12    6   26 1
    13    7    8 1
    14    8   13 ar
    15    8    9 ar
    16    9   10 ar
    17    9   27 1
    18   10   11 ar
    19   10   28 1
    20   11   12 ar
    21   11   14 1
    22   12   13 ar
    23   12   29 1
    24   13   30 1
    25   14   15 1
    26   14   21 2
    27   15   16 1
    28   15   31 1
    29   15   32 1
    30   16   17 2
    31   16   18 1
    32   18   19 2
    33   18   20 1
@<TRIPOS>MOLECULE
ZINC22113519
   21    21     0     0     0
SMALL
USER_CHARGES

@<TRIPOS>ATOM
      1 C1         -0.0167    1.3817    0.0096 C.ar      1 <0>        -0.1190
      2 C2          1.1646    2.0909    0.0022 C.ar      1 <0>        -0.0494
      3 C3          2.3862    1.4090   -0.0132 C.ar      1 <0>        -0.1463
      4 C4          2.3981    0.0084   -0.0208 C.ar      1 <0>         0.0172
      5 C5          1.2067   -0.6875   -0.0132 C.ar      1 <0>        -0.1187
      6 C6          0.0021   -0.0041    0.0020 C.ar      1 <0>        -0.0038
      7 Cl1        -1.4920   -0.8879    0.0121 Cl        1 <0>        -0.0572
      8 Cl2         3.9073   -0.8493   -0.0405 Cl        1 <0>        -0.0221
      9 C7          3.6507    2.1586   -0.0217 C.2       1 <0>         0.3733
     10 O1          4.7078    1.5644   -0.0350 O.2       1 <0>        -0.3893
     11 C8          3.6334    3.6655   -0.0139 C.3       1 <0>        -0.2099
     12 C9          5.0483    4.1841   -0.0251 C.2       1 <0>         0.2908
     13 O2          5.9751    3.4100   -0.0380 O.2       1 <0>        -0.4199
     14 C10         5.3043    5.6556   -0.0202 C.2       1 <0>         0.4698
     15 O3          6.4502    6.0756   -0.0292 O.co2     1 <0>        -0.6511
     16 O4          4.3677    6.4379   -0.0071 O.co2     1 <0>        -0.6689
     17 H1         -0.9601    1.9073    0.0260 H         1 <0>         0.1466
     18 H2          1.1476    3.1708    0.0078 H         1 <0>         0.1574
     19 H3          1.2134   -1.7674   -0.0194 H         1 <0>         0.1472
     20 H4          3.1068    4.0274   -0.8970 H         1 <0>         0.1266
     21 H5          3.1241    4.0184    0.8828 H         1 <0>         0.1266
@<TRIPOS>BOND
     1    1    6 ar
     2    1    2 ar
     3    1   17 1
     4    2    3 ar
     5    2   18 1
     6    3    4 ar
     7    3    9 1
     8    4    5 ar
     9    4    8 1
    10    5    6 ar
    11    5   19 1
    12    6    7 1
    13    9   10 2
    14    9   11 1
    15   11   12 1
    16   11   20 1
    17   11   21 1
    18   12   13 2
    19   12   14 1
    20   14   15 2
    21   14   16 1
@<TRIPOS>MOLECULE
ZINC28456590
   21    21     0     0     0
SMALL
USER_CHARGES
4-(2,5-dichlorophenyl)-2,4-dioxo-butanoic acid
@<TRIPOS>ATOM
      1 C1          1.2072   -0.6830   -0.0131 C.ar      1 <0>        -0.0755
      2 C2          0.0021   -0.0041    0.0020 C.ar      1 <0>        -0.1127
      3 C3         -0.0166    1.3764    0.0096 C.ar      1 <0>         0.0095
      4 C4          1.1886    2.0889    0.0019 C.ar      1 <0>        -0.1376
      5 C5          2.4026    1.3946   -0.0134 C.ar      1 <0>        -0.0545
      6 C6          2.4040    0.0148   -0.0208 C.ar      1 <0>        -0.0461
      7 Cl1         3.9096   -0.8491   -0.0393 Cl        1 <0>        -0.0568
      8 C7          1.1780    3.5596    0.0094 C.2       1 <0>         0.3768
      9 O1          0.1236    4.1583    0.0223 O.2       1 <0>        -0.3863
     10 C8          2.4776    4.3225    0.0011 C.3       1 <0>        -0.2124
     11 C9          2.1917    5.8021    0.0113 C.2       1 <0>         0.3161
     12 O2          1.0501    6.1964    0.0239 O.2       1 <0>        -0.4084
     13 C10         3.3176    6.7789    0.0057 C.2       1 <0>         0.4327
     14 O3          4.4638    6.3829   -0.0071 O.co2     1 <0>        -0.6117
     15 O4          3.0622    8.1003    0.0147 O.co2     1 <0>        -0.7176
     16 Cl2        -1.5303    2.2263    0.0214 Cl        1 <0>        -0.0249
     17 H1          1.2152   -1.7629   -0.0194 H         1 <0>         0.1455
     18 H2         -0.9266   -0.5553    0.0076 H         1 <0>         0.1472
     19 H3          3.3365    1.9370   -0.0198 H         1 <0>         0.1567
     20 H4          3.0647    4.0564    0.8924 H         1 <0>         0.1300
     21 H5          3.0479    4.0655   -0.9037 H         1 <0>         0.1300
@<TRIPOS>BOND
     1    1    6 ar
     2    1    2 ar
     3    1   17 1
     4    2    3 ar
     5    2   18 1
     6    3    4 ar
     7    3   16 1
     8    4    5 ar
     9    4    8 1
    10    5    6 ar
    11    5   19 1
    12    6    7 1
    13    8    9 2
    14    8   10 1
    15   10   11 1
    16   10   20 1
    17   10   21 1
    18   11   12 2
    19   11   13 1
    20   13   14 2
    21   13   15 1
@<TRIPOS>MOLECULE
ZINC28221410
   31    32     0     0     0
SMALL
USER_CHARGES

@<TRIPOS>ATOM
      1 C1         -0.0167    1.3792    0.0096 C.ar      1 <0>        -0.1197
      2 C2          1.1686    2.0925    0.0021 C.ar      1 <0>        -0.1194
      3 C3          2.3774    1.4271   -0.0129 C.ar      1 <0>        -0.1089
      4 C4          2.4026    0.0331   -0.0206 C.ar      1 <0>        -0.0467
      5 C5          1.2048   -0.6804   -0.0130 C.ar      1 <0>        -0.1079
      6 C6          0.0021   -0.0041    0.0020 C.ar      1 <0>        -0.1188
      7 C7          3.6979   -0.6876   -0.0373 C.ar      1 <0>        -0.0263
      8 C8          4.8947    0.0304   -0.0395 C.ar      1 <0>        -0.1239
      9 C9          6.0939   -0.6339   -0.0545 C.ar      1 <0>        -0.0625
     10 C10         6.1173   -2.0337   -0.0675 C.ar      1 <0>        -0.1555
     11 C11         4.9154   -2.7517   -0.0653 C.ar      1 <0>        -0.0699
     12 C12         3.7187   -2.0831   -0.0449 C.ar      1 <0>        -0.1224
     13 C13         7.4017   -2.7483   -0.0841 C.2       1 <0>         0.3820
     14 O1          8.4422   -2.1253   -0.0864 O.2       1 <0>        -0.4170
     15 C14         7.4255   -4.2551   -0.0981 C.3       1 <0>        -0.2120
     16 C15         8.8540   -4.7347   -0.1136 C.2       1 <0>         0.2901
     17 O2          9.7595   -3.9355   -0.1133 O.2       1 <0>        -0.4221
     18 C16         9.1501   -6.1985   -0.1294 C.2       1 <0>         0.4696
     19 O3         10.3070   -6.5870   -0.1419 O.co2     1 <0>        -0.6521
     20 O4          8.2352   -7.0062   -0.1297 O.co2     1 <0>        -0.6689
     21 H1         -0.9603    1.9042    0.0260 H         1 <0>         0.1218
     22 H2          1.1478    3.1723    0.0077 H         1 <0>         0.1237
     23 H3          3.3021    1.9850   -0.0191 H         1 <0>         0.1265
     24 H4          1.2182   -1.7603   -0.0193 H         1 <0>         0.1281
     25 H5         -0.9264   -0.5557    0.0079 H         1 <0>         0.1244
     26 H6          4.8762    1.1102   -0.0298 H         1 <0>         0.1289
     27 H7          7.0197   -0.0779   -0.0565 H         1 <0>         0.1352
     28 H8          4.9310   -3.8316   -0.0757 H         1 <0>         0.1408
     29 H9          2.7914   -2.6366   -0.0387 H         1 <0>         0.1312
     30 H10         6.9244   -4.6347    0.7923 H         1 <0>         0.1260
     31 H11         6.9106   -4.6183   -0.9875 H         1 <0>         0.1260
@<TRIPOS>BOND
     1    1    6 ar
     2    1    2 ar
     3    1   21 1
     4    2    3 ar
     5    2   22 1
     6    3    4 ar
     7    3   23 1
     8    4    5 ar
     9    4    7 1
    10    5    6 ar
    11    5   24 1
    12    6   25 1
    13    7   12 ar
    14    7    8 ar
    15    8    9 ar
    16    8   26 1
    17    9   10 ar
    18    9   27 1
    19   10   11 ar
    20   10   13 1
    21   11   12 ar
    22   11   28 1
    23   12   29 1
    24   13   14 2
    25   13   15 1
    26   15   16 1
    27   15   30 1
    28   15   31 1
    29   16   17 2
    30   16   18 1
    31   18   19 2
    32   18   20 1
