@<TRIPOS>MOLECULE
ZINC02039372
   47    46     0     0     0
SMALL
USER_CHARGES
N,N-dimethyldodecan-1-amine oxide
@<TRIPOS>ATOM
      1 C1          0.5587    1.9957   14.9304 C.3       1 <0>        -0.1544
      2 C2         -0.2488    2.3964   13.6941 C.3       1 <0>        -0.1261
      3 C3          0.4674    1.9030   12.4353 C.3       1 <0>        -0.1214
      4 C4         -0.3401    2.3036   11.1990 C.3       1 <0>        -0.1211
      5 C5          0.3761    1.8102    9.9402 C.3       1 <0>        -0.1209
      6 C6         -0.4314    2.2108    8.7039 C.3       1 <0>        -0.1204
      7 C7          0.2847    1.7174    7.4451 C.3       1 <0>        -0.1210
      8 C8         -0.5227    2.1181    6.2088 C.3       1 <0>        -0.1200
      9 C9          0.1934    1.6246    4.9500 C.3       1 <0>        -0.1197
     10 C10        -0.6140    2.0253    3.7138 C.3       1 <0>        -0.1166
     11 C11         0.1021    1.5319    2.4550 C.3       1 <0>        -0.1307
     12 C12        -0.7054    1.9325    1.2187 C.3       1 <0>         0.0187
     13 N1         -0.0178    1.4588    0.0101 N.4       1 <0>        -0.1245
     14 O1          0.0021   -0.0041    0.0020 O.3       1 <0>        -0.6486
     15 C13         1.3604    1.9672   -0.0004 C.3       1 <0>        -0.0202
     16 C14        -0.7283    1.9454   -1.1800 C.3       1 <0>        -0.0145
     17 H1          0.0485    2.3472   15.8272 H         1 <0>         0.0535
     18 H2          0.6520    0.9104   14.9673 H         1 <0>         0.0534
     19 H3          1.5508    2.4441   14.8774 H         1 <0>         0.0533
     20 H4         -0.3421    3.4817   13.6572 H         1 <0>         0.0601
     21 H5         -1.2408    1.9480   13.7471 H         1 <0>         0.0603
     22 H6          0.5607    0.8176   12.4722 H         1 <0>         0.0607
     23 H7          1.4594    2.3514   12.3823 H         1 <0>         0.0605
     24 H8         -0.4334    3.3890   11.1621 H         1 <0>         0.0603
     25 H9         -1.3322    1.8552   11.2520 H         1 <0>         0.0606
     26 H10         0.4694    0.7248    9.9772 H         1 <0>         0.0608
     27 H11         1.3681    2.2586    9.8872 H         1 <0>         0.0604
     28 H12        -0.5248    3.2962    8.6670 H         1 <0>         0.0602
     29 H13        -1.4235    1.7624    8.7569 H         1 <0>         0.0606
     30 H14         0.3781    0.6320    7.4821 H         1 <0>         0.0614
     31 H15         1.2768    2.1658    7.3922 H         1 <0>         0.0605
     32 H16        -0.6161    3.2034    6.1719 H         1 <0>         0.0606
     33 H17        -1.5148    1.6696    6.2618 H         1 <0>         0.0615
     34 H18         0.2868    0.5393    4.9870 H         1 <0>         0.0644
     35 H19         1.1855    2.0731    4.8971 H         1 <0>         0.0617
     36 H20        -0.7074    3.1107    3.6768 H         1 <0>         0.0626
     37 H21        -1.6061    1.5769    3.7667 H         1 <0>         0.0660
     38 H22         0.1955    0.4465    2.4919 H         1 <0>         0.0897
     39 H23         1.0942    1.9803    2.4020 H         1 <0>         0.0700
     40 H24        -0.7987    3.0179    1.1817 H         1 <0>         0.0855
     41 H25        -1.6974    1.4841    1.2717 H         1 <0>         0.1022
     42 H26         1.8706    1.6157   -0.8972 H         1 <0>         0.0958
     43 H27         1.3456    3.0571    0.0056 H         1 <0>         0.0803
     44 H28         1.8876    1.6062    0.8827 H         1 <0>         0.1009
     45 H29        -1.7508    1.5681   -1.1723 H         1 <0>         0.0962
     46 H30        -0.7430    3.0353   -1.1740 H         1 <0>         0.0807
     47 H31        -0.2181    1.5939   -2.0768 H         1 <0>         0.0971
@<TRIPOS>BOND
     1    1    2 1
     2    1   17 1
     3    1   18 1
     4    1   19 1
     5    2    3 1
     6    2   20 1
     7    2   21 1
     8    3    4 1
     9    3   22 1
    10    3   23 1
    11    4    5 1
    12    4   24 1
    13    4   25 1
    14    5    6 1
    15    5   26 1
    16    5   27 1
    17    6    7 1
    18    6   28 1
    19    6   29 1
    20    7    8 1
    21    7   30 1
    22    7   31 1
    23    8    9 1
    24    8   32 1
    25    8   33 1
    26    9   10 1
    27    9   34 1
    28    9   35 1
    29   10   11 1
    30   10   36 1
    31   10   37 1
    32   11   12 1
    33   11   38 1
    34   11   39 1
    35   12   13 1
    36   12   40 1
    37   12   41 1
    38   13   14 1
    39   13   15 1
    40   13   16 1
    41   15   42 1
    42   15   43 1
    43   15   44 1
    44   16   45 1
    45   16   46 1
    46   16   47 1
@<TRIPOS>MOLECULE
ZINC07736225
   49    51     0     0     0
SMALL
USER_CHARGES
N-methyl-N-[[4-[(2-phenyltriazol-4-yl)methylaminomethyl]phenyl]methyl]methanamine
@<TRIPOS>ATOM
      1 C1          0.0585    1.3230   -2.4006 C.3       1 <0>        -0.0448
      2 C2         -2.0591    0.9694   -1.2810 C.3       1 <0>        -0.0493
      3 C3         -0.0127    1.0858    0.0080 C.3       1 <0>         0.0383
      4 C4         -0.7181    1.5718    1.2479 C.ar      1 <0>        -0.1253
      5 C5         -0.3599    2.7788    1.8186 C.ar      1 <0>        -0.0902
      6 C6         -1.0099    3.2267    2.9534 C.ar      1 <0>        -0.0858
      7 C7         -2.0116    2.4630    3.5230 C.ar      1 <0>        -0.1302
      8 C8         -2.3665    1.2538    2.9550 C.ar      1 <0>        -0.0873
      9 C9         -1.7194    0.8079    1.8177 C.ar      1 <0>        -0.0913
     10 C10        -2.7170    2.9491    4.7629 C.3       1 <0>         0.0415
     11 C11        -2.6679    2.9169    7.1834 C.3       1 <0>         0.1087
     12 C12        -1.9131    2.3986    8.3803 C.2       1 <0>        -0.0908
     13 C13        -0.9254    3.0680    9.1076 C.2       1 <0>         0.0141
     14 N1         -0.5528    2.2385   10.0563 N.2       1 <0>        -0.2648
     15 N2         -1.2326    1.1525    9.9456 N.pl3     1 <0>        -0.0602
     16 N3         -2.0528    1.2264    8.9579 N.2       1 <0>        -0.2495
     17 C14        -1.1019    0.0415   10.7908 C.ar      1 <0>         0.1022
     18 C15        -1.8904   -1.0832   10.5882 C.ar      1 <0>        -0.0948
     19 C16        -1.7546   -2.1786   11.4184 C.ar      1 <0>        -0.1021
     20 C17        -0.8435   -2.1512   12.4583 C.ar      1 <0>        -0.0891
     21 C18        -0.0611   -1.0302   12.6662 C.ar      1 <0>        -0.0984
     22 C19        -0.1876    0.0659   11.8353 C.ar      1 <0>        -0.0887
     23 H1          0.2299    0.2520   -2.5094 H         1 <0>         0.1270
     24 H2         -0.4905    1.6929   -3.2665 H         1 <0>         0.1279
     25 H3          1.0161    1.8388   -2.3299 H         1 <0>         0.1248
     26 H4         -2.6409    1.2283   -0.3963 H         1 <0>         0.1167
     27 H5         -2.5631    1.3469   -2.1707 H         1 <0>         0.1280
     28 H6         -1.9644   -0.1143   -1.3492 H         1 <0>         0.1266
     29 H7          0.0021   -0.0041    0.0020 H         1 <0>         0.1432
     30 H8          1.0099    1.4631    0.0003 H         1 <0>         0.1420
     31 H9          0.4255    3.3735    1.3760 H         1 <0>         0.1453
     32 H10        -0.7329    4.1716    3.3970 H         1 <0>         0.1468
     33 H11        -3.1490    0.6571    3.4000 H         1 <0>         0.1459
     34 H12        -1.9965   -0.1370    1.3742 H         1 <0>         0.1446
     35 H13        -2.7311    4.0390    4.7692 H         1 <0>         0.1481
     36 H14        -3.7398    2.5724    4.7702 H         1 <0>         0.1466
     37 H15        -2.6817    4.0066    7.2066 H         1 <0>         0.1576
     38 H16        -3.6904    2.5401    7.2076 H         1 <0>         0.1500
     39 H17        -0.5462    4.0631    8.9272 H         1 <0>         0.2138
     40 H18        -2.6058   -1.1032    9.7794 H         1 <0>         0.1402
     41 H19        -2.3641   -3.0557   11.2582 H         1 <0>         0.1443
     42 H20        -0.7426   -3.0072   13.1091 H         1 <0>         0.1427
     43 H21         0.6499   -1.0118   13.4790 H         1 <0>         0.1466
     44 H22         0.4242    0.9409   11.9978 H         1 <0>         0.1458
     45 N4         -0.7265    1.6008   -1.1794 N.4       1 <0>        -0.3966
     46 H23        -0.8450    2.6161   -1.0829 H         1 <0>         0.4308
     47 N5         -1.9983    2.4555    5.9527 N.4       1 <0>        -0.5193
     48 H24        -1.0349    2.8104    5.9379 H         1 <0>         0.4337
     49 H25        -1.9851    1.4290    5.9388 H         1 <0>         0.4347
@<TRIPOS>BOND
     1    1   23 1
     2    1   24 1
     3    1   25 1
     4    1   45 1
     5    2   26 1
     6    2   27 1
     7    2   28 1
     8    2   45 1
     9    3    4 1
    10    3   29 1
    11    3   30 1
    12    3   45 1
    13    4    9 ar
    14    4    5 ar
    15    5    6 ar
    16    5   31 1
    17    6    7 ar
    18    6   32 1
    19    7    8 ar
    20    7   10 1
    21    8    9 ar
    22    8   33 1
    23    9   34 1
    24   10   35 1
    25   10   36 1
    26   10   47 1
    27   11   12 1
    28   11   37 1
    29   11   38 1
    30   11   47 1
    31   12   16 2
    32   12   13 1
    33   13   14 2
    34   13   39 1
    35   14   15 1
    36   15   16 1
    37   15   17 1
    38   17   22 ar
    39   17   18 ar
    40   18   19 ar
    41   18   40 1
    42   19   20 ar
    43   19   41 1
    44   20   21 ar
    45   20   42 1
    46   21   22 ar
    47   21   43 1
    48   22   44 1
    49   45   46 1
    50   47   48 1
    51   47   49 1
@<TRIPOS>MOLECULE
ZINC04842179
   41    42     0     0     0
SMALL
USER_CHARGES
N,N-dimethyl-3-(4-phenylphenoxy)-propan-1-amine
@<TRIPOS>ATOM
      1 C1         -1.7730   10.3574   -1.1784 C.3       1 <0>        -0.0487
      2 C2         -3.6528   10.5735    0.3323 C.3       1 <0>        -0.0426
      3 C3         -2.5485    8.4345    0.0720 C.3       1 <0>        -0.0025
      4 C4         -1.1760    7.7585    0.0552 C.3       1 <0>        -0.1523
      5 C5         -1.3559    6.2391    0.0487 C.3       1 <0>         0.0621
      6 O1         -0.0740    5.6078    0.0330 O.3       1 <0>        -0.3131
      7 C6         -0.0556    4.2492    0.0255 C.ar      1 <0>         0.1192
      8 C7          1.1567    3.5729    0.0102 C.ar      1 <0>        -0.1404
      9 C8          1.1786    2.1940    0.0026 C.ar      1 <0>        -0.0699
     10 C9         -0.0180    1.4794    0.0102 C.ar      1 <0>        -0.0676
     11 C10        -1.2337    2.1612    0.0196 C.ar      1 <0>        -0.0717
     12 C11        -1.2492    3.5401    0.0326 C.ar      1 <0>        -0.2024
     13 C12         0.0021   -0.0041    0.0020 C.ar      1 <0>        -0.0502
     14 C13         1.2167   -0.6869   -0.0190 C.ar      1 <0>        -0.1117
     15 C14         1.2295   -2.0670   -0.0211 C.ar      1 <0>        -0.1146
     16 C15         0.0396   -2.7723   -0.0131 C.ar      1 <0>        -0.1151
     17 C16        -1.1690   -2.0996    0.0020 C.ar      1 <0>        -0.1157
     18 C17        -1.1936   -0.7197    0.0096 C.ar      1 <0>        -0.1129
     19 H1         -2.4188   10.0855   -2.0134 H         1 <0>         0.1245
     20 H2         -1.6564   11.4407   -1.1471 H         1 <0>         0.1247
     21 H3         -0.7965    9.8904   -1.3073 H         1 <0>         0.1232
     22 H4         -4.0430   10.2636    1.3017 H         1 <0>         0.1225
     23 H5         -3.4963   11.6522    0.3315 H         1 <0>         0.1246
     24 H6         -4.3667   10.3094   -0.4480 H         1 <0>         0.1239
     25 H7         -3.1100    8.1389   -0.8143 H         1 <0>         0.1350
     26 H8         -3.0929    8.1292    0.9656 H         1 <0>         0.1334
     27 H9         -0.6146    8.0541    0.9414 H         1 <0>         0.0990
     28 H10        -0.6316    8.0637   -0.8384 H         1 <0>         0.0992
     29 H11        -1.9174    5.9435   -0.8376 H         1 <0>         0.0724
     30 H12        -1.9003    5.9339    0.9423 H         1 <0>         0.0726
     31 H13         2.0837    4.1271    0.0047 H         1 <0>         0.1353
     32 H14         2.1220    1.6684   -0.0096 H         1 <0>         0.1374
     33 H15        -2.1625    1.6101    0.0210 H         1 <0>         0.1317
     34 H16        -2.1908    4.0689    0.0441 H         1 <0>         0.1272
     35 H17         2.1462   -0.1372   -0.0298 H         1 <0>         0.1253
     36 H18         2.1703   -2.5972   -0.0333 H         1 <0>         0.1270
     37 H19         0.0543   -3.8522   -0.0190 H         1 <0>         0.1258
     38 H20        -2.0950   -2.6553    0.0075 H         1 <0>         0.1262
     39 H21        -2.1378   -0.1956    0.0210 H         1 <0>         0.1233
     40 N1         -2.3578    9.9000    0.0996 N.4       1 <0>        -0.3969
     41 H22        -1.7157   10.1384    0.8645 H         1 <0>         0.4329
@<TRIPOS>BOND
     1    1   19 1
     2    1   20 1
     3    1   21 1
     4    1   40 1
     5    2   22 1
     6    2   23 1
     7    2   24 1
     8    2   40 1
     9    3    4 1
    10    3   25 1
    11    3   26 1
    12    3   40 1
    13    4    5 1
    14    4   27 1
    15    4   28 1
    16    5    6 1
    17    5   29 1
    18    5   30 1
    19    6    7 1
    20    7   12 ar
    21    7    8 ar
    22    8    9 ar
    23    8   31 1
    24    9   10 ar
    25    9   32 1
    26   10   11 ar
    27   10   13 1
    28   11   12 ar
    29   11   33 1
    30   12   34 1
    31   13   18 ar
    32   13   14 ar
    33   14   15 ar
    34   14   35 1
    35   15   16 ar
    36   15   36 1
    37   16   17 ar
    38   16   37 1
    39   17   18 ar
    40   17   38 1
    41   18   39 1
    42   40   41 1
@<TRIPOS>MOLECULE
ZINC02563947
   56    57     0     0     0
SMALL
USER_CHARGES

@<TRIPOS>ATOM
      1 C1         -0.2870    1.0126    0.0755 C.3       1 <0>        -0.0538
      2 N1         -0.1364   -0.4467    0.0014 N.4       1 <0>        -0.3846
      3 C2          0.6056   -0.8012   -1.2159 C.3       1 <0>        -0.0116
      4 C3         -0.2189   -0.4164   -2.4459 C.3       1 <0>        -0.1494
      5 C4          0.5538   -0.7857   -3.7137 C.3       1 <0>        -0.1169
      6 C5         -0.2706   -0.4009   -4.9438 C.3       1 <0>        -0.1177
      7 C6          0.5021   -0.7701   -6.2116 C.3       1 <0>        -0.1218
      8 C7         -0.3224   -0.3853   -7.4417 C.3       1 <0>         0.0551
      9 O1          0.3994   -0.7301   -8.6258 O.3       1 <0>        -0.3061
     10 C8         -0.1964   -0.4531   -9.8131 C.ar      1 <0>         0.1777
     11 C9         -1.4520    0.1459   -9.8354 C.ar      1 <0>        -0.2183
     12 C10        -2.0595    0.4284  -11.0254 C.ar      1 <0>        -0.0112
     13 C11        -1.4200    0.1164  -12.2300 C.ar      1 <0>        -0.2203
     14 C12        -0.1552   -0.4865  -12.2103 C.ar      1 <0>         0.1766
     15 C13         0.4519   -0.7633  -11.0016 C.ar      1 <0>        -0.1897
     16 F1          0.4693   -0.7915  -13.3688 F         1 <0>        -0.1195
     17 C14        -2.0743    0.4202  -13.5148 C.2       1 <0>         0.4504
     18 O2         -2.1121    1.5655  -13.9221 O.2       1 <0>        -0.4242
     19 C15        -2.6844   -0.6667  -14.3083 C.ar      1 <0>        -0.1526
     20 C16        -2.7486   -1.9623  -13.7904 C.ar      1 <0>        -0.0606
     21 C17        -3.3196   -2.9720  -14.5357 C.ar      1 <0>        -0.1029
     22 C18        -3.8286   -2.7039  -15.7956 C.ar      1 <0>        -0.0593
     23 C19        -3.7676   -1.4214  -16.3150 C.ar      1 <0>        -0.1012
     24 C20        -3.2047   -0.4016  -15.5772 C.ar      1 <0>        -0.0511
     25 Br1        -4.6094   -4.0948  -16.8111 Br        1 <0>        -0.0339
     26 C21         0.5997   -0.9235    1.1799 C.3       1 <0>         0.0297
     27 C22        -0.2183   -0.6696    2.4198 C.2       1 <0>        -0.2414
     28 C23        -0.4996   -1.6576    3.2327 C.2       1 <0>        -0.1007
     29 H1          0.6980    1.4787    0.1017 H         1 <0>         0.1224
     30 H2         -0.8332    1.3664   -0.7989 H         1 <0>         0.1241
     31 H3         -0.8376    1.2757    0.9788 H         1 <0>         0.1243
     32 H4          1.5544   -0.2650   -1.2322 H         1 <0>         0.1303
     33 H5          0.7946   -1.8747   -1.2265 H         1 <0>         0.1304
     34 H6         -1.1678   -0.9527   -2.4296 H         1 <0>         0.0873
     35 H7         -0.4080    0.6570   -2.4353 H         1 <0>         0.0883
     36 H8          1.5027   -0.2494   -3.7300 H         1 <0>         0.0768
     37 H9          0.7429   -1.8591   -3.7244 H         1 <0>         0.0769
     38 H10        -1.2195   -0.9371   -4.9275 H         1 <0>         0.0712
     39 H11        -0.4597    0.6726   -4.9332 H         1 <0>         0.0709
     40 H12         1.4509   -0.2338   -6.2279 H         1 <0>         0.0786
     41 H13         0.6912   -1.8435   -6.2222 H         1 <0>         0.0787
     42 H14        -1.2712   -0.9215   -7.4254 H         1 <0>         0.0681
     43 H15        -0.5115    0.6881   -7.4311 H         1 <0>         0.0679
     44 H16        -1.9487    0.3881   -8.9075 H         1 <0>         0.1407
     45 H17        -3.0346    0.8928  -11.0366 H         1 <0>         0.1427
     46 H18         1.4282   -1.2245  -10.9803 H         1 <0>         0.1531
     47 H19        -2.3514   -2.1728  -12.8083 H         1 <0>         0.1369
     48 H20        -3.3698   -3.9742  -14.1363 H         1 <0>         0.1417
     49 H21        -4.1659   -1.2188  -17.2982 H         1 <0>         0.1439
     50 H22        -3.1621    0.5990  -15.9814 H         1 <0>         0.1458
     51 H23         0.7890   -1.9925    1.0821 H         1 <0>         0.1299
     52 H24         1.5483   -0.3919    1.2553 H         1 <0>         0.1340
     53 H25        -0.5727    0.3269    2.6382 H         1 <0>         0.1338
     54 H26        -0.1452   -2.6542    3.0142 H         1 <0>         0.1119
     55 H27        -1.0858   -1.4757    4.1213 H         1 <0>         0.1234
     56 H28        -1.0482   -0.8782   -0.0228 H         1 <0>         0.4251
@<TRIPOS>BOND
     1    1    2 1
     2    1   29 1
     3    1   30 1
     4    1   31 1
     5    2    3 1
     6    2   26 1
     7    2   56 1
     8    3    4 1
     9    3   32 1
    10    3   33 1
    11    4    5 1
    12    4   34 1
    13    4   35 1
    14    5    6 1
    15    5   36 1
    16    5   37 1
    17    6    7 1
    18    6   38 1
    19    6   39 1
    20    7    8 1
    21    7   40 1
    22    7   41 1
    23    8    9 1
    24    8   42 1
    25    8   43 1
    26    9   10 1
    27   10   15 ar
    28   10   11 ar
    29   11   12 ar
    30   11   44 1
    31   12   13 ar
    32   12   45 1
    33   13   14 ar
    34   13   17 1
    35   14   15 ar
    36   14   16 1
    37   15   46 1
    38   17   18 2
    39   17   19 1
    40   19   24 ar
    41   19   20 ar
    42   20   21 ar
    43   20   47 1
    44   21   22 ar
    45   21   48 1
    46   22   23 ar
    47   22   25 1
    48   23   24 ar
    49   23   49 1
    50   24   50 1
    51   26   27 1
    52   26   51 1
    53   26   52 1
    54   27   28 2
    55   27   53 1
    56   28   54 1
    57   28   55 1
@<TRIPOS>MOLECULE
ZINC00598970
   48    51     0     0     0
SMALL
USER_CHARGES
(4-chlorophenyl)-[4-[[4-(4,5-dihydrooxazol-2-yl)phenyl]methylene]-1-piperidyl]-methanone
@<TRIPOS>ATOM
      1 C1          3.9774    3.9468    5.6340 C.ar      1 <0>        -0.1160
      2 C2          3.7267    4.9902    6.4960 C.ar      1 <0>        -0.0744
      3 C3          2.4121    5.3094    6.8424 C.ar      1 <0>        -0.0508
      4 C4          1.3512    4.5737    6.3099 C.ar      1 <0>        -0.0628
      5 C5          1.6012    3.5339    5.4434 C.ar      1 <0>        -0.1236
      6 C6          2.9161    3.2145    5.0968 C.ar      1 <0>        -0.0255
      7 C7          3.1845    2.0988    4.1670 C.2       1 <0>        -0.1276
      8 C8          2.3535    1.8591    3.1611 C.2       1 <0>        -0.0991
      9 C9          2.5067    0.6189    2.3082 C.3       1 <0>        -0.0986
     10 C10         2.5659    1.0469    0.8363 C.3       1 <0>         0.1133
     11 N1          1.4486    1.9604    0.5644 N.am      1 <0>        -0.6047
     12 C11         1.3240    3.1950    1.3498 C.3       1 <0>         0.0955
     13 C12         1.2294    2.8191    2.8391 C.3       1 <0>        -0.1174
     14 C13         0.5511    1.6717   -0.3987 C.2       1 <0>         0.5620
     15 O1          0.7002    0.6846   -1.0924 O.2       1 <0>        -0.5274
     16 C14        -0.6111    2.5585   -0.6154 C.ar      1 <0>        -0.1233
     17 C15        -0.4288    3.9382   -0.7267 C.ar      1 <0>        -0.0815
     18 C16        -1.5165    4.7600   -0.9341 C.ar      1 <0>        -0.1134
     19 C17        -2.7892    4.2203   -1.0211 C.ar      1 <0>        -0.0159
     20 C18        -2.9770    2.8528   -0.9058 C.ar      1 <0>        -0.1114
     21 C19        -1.8963    2.0203   -0.7040 C.ar      1 <0>        -0.0561
     22 Cl1        -4.1544    5.2619   -1.2762 Cl        1 <0>        -0.0589
     23 C20         2.1433    6.4267    7.7728 C.2       1 <0>         0.3456
     24 N2          0.9472    6.7784    8.1304 N.2       1 <0>        -0.5345
     25 C21         1.0550    7.9129    9.0683 C.3       1 <0>        -0.0097
     26 C22         2.5537    7.8720    9.4544 C.3       1 <0>         0.0199
     27 O2          3.1197    7.1780    8.3237 O.3       1 <0>        -0.3410
     28 H1          4.9943    3.6971    5.3696 H         1 <0>         0.1323
     29 H2          4.5470    5.5594    6.9076 H         1 <0>         0.1344
     30 H3          0.3346    4.8205    6.5782 H         1 <0>         0.1398
     31 H4          0.7807    2.9652    5.0313 H         1 <0>         0.1364
     32 H5          4.0573    1.4781    4.3061 H         1 <0>         0.1270
     33 H6          1.6537   -0.0415    2.4643 H         1 <0>         0.0836
     34 H7          3.4267    0.0996    2.5767 H         1 <0>         0.0866
     35 H8          2.4835    0.1682    0.1967 H         1 <0>         0.0990
     36 H9          3.5098    1.5552    0.6391 H         1 <0>         0.0741
     37 H10         2.1988    3.8237    1.1836 H         1 <0>         0.0774
     38 H11         0.4239    3.7306    1.0483 H         1 <0>         0.1015
     39 H12         0.2703    2.3415    3.0393 H         1 <0>         0.0816
     40 H13         1.3269    3.7166    3.4500 H         1 <0>         0.0995
     41 H14         0.5626    4.3605   -0.6549 H         1 <0>         0.1408
     42 H15        -1.3762    5.8270   -1.0248 H         1 <0>         0.1422
     43 H16        -3.9716    2.4377   -0.9744 H         1 <0>         0.1426
     44 H17        -2.0439    0.9542   -0.6149 H         1 <0>         0.1408
     45 H18         0.4233    7.7592    9.9432 H         1 <0>         0.1043
     46 H19         0.8066    8.8505    8.5711 H         1 <0>         0.0945
     47 H20         2.7055    7.3088   10.3753 H         1 <0>         0.0853
     48 H21         2.9637    8.8782    9.5415 H         1 <0>         0.1137
@<TRIPOS>BOND
     1    1    6 ar
     2    1    2 ar
     3    1   28 1
     4    2    3 ar
     5    2   29 1
     6    3    4 ar
     7    3   23 1
     8    4    5 ar
     9    4   30 1
    10    5    6 ar
    11    5   31 1
    12    6    7 1
    13    7    8 2
    14    7   32 1
    15    8   13 1
    16    8    9 1
    17    9   10 1
    18    9   33 1
    19    9   34 1
    20   10   11 1
    21   10   35 1
    22   10   36 1
    23   11   12 1
    24   11   14 am
    25   12   13 1
    26   12   37 1
    27   12   38 1
    28   13   39 1
    29   13   40 1
    30   14   15 2
    31   14   16 1
    32   16   21 ar
    33   16   17 ar
    34   17   18 ar
    35   17   41 1
    36   18   19 ar
    37   18   42 1
    38   19   20 ar
    39   19   22 1
    40   20   21 ar
    41   20   43 1
    42   21   44 1
    43   23   27 1
    44   23   24 2
    45   24   25 1
    46   25   26 1
    47   25   45 1
    48   25   46 1
    49   26   27 1
    50   26   47 1
    51   26   48 1
@<TRIPOS>MOLECULE
ZINC40423330
   48    51     0     0     0
SMALL
USER_CHARGES

@<TRIPOS>ATOM
      1 C1         -1.3751    1.5750    0.9587 C.ar      1 <0>        -0.0866
      2 C2         -0.3152    2.4155    1.2381 C.ar      1 <0>        -0.1328
      3 C3          0.9491    1.8863    1.4582 C.ar      1 <0>         0.1367
      4 C4          1.1443    0.5133    1.3968 C.ar      1 <0>        -0.1315
      5 C5          0.0806   -0.3223    1.1170 C.ar      1 <0>        -0.0676
      6 C6         -1.1777    0.2077    0.8981 C.ar      1 <0>        -0.0856
      7 C7         -2.3362   -0.7066    0.5930 C.3       1 <0>         0.0938
      8 N1         -2.4351   -0.9036   -0.8594 N.3       1 <0>        -0.5321
      9 C8         -2.7830    0.3517   -1.5385 C.3       1 <0>         0.0350
     10 C9         -2.6989    0.1485   -3.0550 C.3       1 <0>         0.1019
     11 N2         -3.5330   -1.0071   -3.4185 N.am      1 <0>        -0.6078
     12 C10        -3.3359   -2.2661   -2.6840 C.3       1 <0>         0.1171
     13 C11        -3.3949   -1.9678   -1.1821 C.3       1 <0>         0.0414
     14 C12        -4.4533   -0.9150   -4.3989 C.2       1 <0>         0.5626
     15 O1         -5.0854   -1.8979   -4.7335 O.2       1 <0>        -0.5272
     16 C13        -4.6938    0.3810   -5.0671 C.ar      1 <0>        -0.1242
     17 C14        -3.6193    1.1313   -5.5487 C.ar      1 <0>        -0.0800
     18 C15        -3.8500    2.3396   -6.1718 C.ar      1 <0>        -0.1134
     19 C16        -5.1445    2.8096   -6.3199 C.ar      1 <0>        -0.0158
     20 C17        -6.2145    2.0697   -5.8442 C.ar      1 <0>        -0.1119
     21 C18        -5.9967    0.8572   -5.2245 C.ar      1 <0>        -0.0564
     22 Cl1        -5.4270    4.3322   -7.1044 Cl        1 <0>        -0.0584
     23 N3          2.0272    2.7371    1.7417 N.pl3     1 <0>        -0.4128
     24 C19         3.3245    2.3592    1.9740 C.2       1 <0>        -0.0539
     25 C20         4.0242    3.4868    2.2021 C.2       1 <0>        -0.0203
     26 N4          3.1826    4.5274    2.1128 N.2       1 <0>        -0.4837
     27 C21         1.9847    4.0918    1.8321 C.2       1 <0>         0.1886
     28 H1         -2.3599    1.9858    0.7918 H         1 <0>         0.1307
     29 H2         -0.4699    3.4833    1.2849 H         1 <0>         0.1326
     30 H3          2.1269    0.0988    1.5673 H         1 <0>         0.1319
     31 H4          0.2318   -1.3905    1.0690 H         1 <0>         0.1348
     32 H5         -2.1778   -1.6686    1.0802 H         1 <0>         0.0899
     33 H6         -3.2590   -0.2595    0.9627 H         1 <0>         0.0482
     34 H7         -3.7973    0.6435   -1.2663 H         1 <0>         0.0416
     35 H8         -2.0859    1.1336   -1.2371 H         1 <0>         0.0936
     36 H9         -3.0656    1.0395   -3.5647 H         1 <0>         0.0979
     37 H10        -1.6648   -0.0416   -3.3422 H         1 <0>         0.0818
     38 H11        -4.1237   -2.9714   -2.9485 H         1 <0>         0.0991
     39 H12        -2.3630   -2.6883   -2.9356 H         1 <0>         0.0797
     40 H13        -3.1417   -2.8681   -0.6223 H         1 <0>         0.0927
     41 H14        -4.4007   -1.6437   -0.9149 H         1 <0>         0.0420
     42 H15        -2.6095    0.7662   -5.4331 H         1 <0>         0.1402
     43 H16        -3.0197    2.9209   -6.5447 H         1 <0>         0.1424
     44 H17        -7.2217    2.4414   -5.9622 H         1 <0>         0.1426
     45 H18        -6.8321    0.2793   -4.8577 H         1 <0>         0.1404
     46 H19         3.7110    1.3507    1.9741 H         1 <0>         0.1785
     47 H20         5.0805    3.5435    2.4199 H         1 <0>         0.1760
     48 H21         1.1063    4.7054    1.6971 H         1 <0>         0.2085
@<TRIPOS>BOND
     1    1    6 ar
     2    1    2 ar
     3    1   28 1
     4    2    3 ar
     5    2   29 1
     6    3    4 ar
     7    3   23 1
     8    4    5 ar
     9    4   30 1
    10    5    6 ar
    11    5   31 1
    12    6    7 1
    13    7    8 1
    14    7   32 1
    15    7   33 1
    16    8   13 1
    17    8    9 1
    18    9   10 1
    19    9   34 1
    20    9   35 1
    21   10   11 1
    22   10   36 1
    23   10   37 1
    24   11   12 1
    25   11   14 am
    26   12   13 1
    27   12   38 1
    28   12   39 1
    29   13   40 1
    30   13   41 1
    31   14   15 2
    32   14   16 1
    33   16   21 ar
    34   16   17 ar
    35   17   18 ar
    36   17   42 1
    37   18   19 ar
    38   18   43 1
    39   19   20 ar
    40   19   22 1
    41   20   21 ar
    42   20   44 1
    43   21   45 1
    44   23   27 1
    45   23   24 1
    46   24   25 2
    47   24   46 1
    48   25   26 1
    49   25   47 1
    50   26   27 2
    51   27   48 1
@<TRIPOS>MOLECULE
ZINC40423330
   49    52     0     0     0
SMALL
USER_CHARGES

@<TRIPOS>ATOM
      1 C1         -1.3751    1.5750    0.9587 C.ar      1 <0>        -0.0888
      2 C2         -0.3152    2.4155    1.2381 C.ar      1 <0>        -0.0982
      3 C3          0.9491    1.8863    1.4582 C.ar      1 <0>         0.0743
      4 C4          1.1443    0.5133    1.3968 C.ar      1 <0>        -0.1068
      5 C5          0.0806   -0.3223    1.1170 C.ar      1 <0>        -0.0692
      6 C6         -1.1777    0.2077    0.8981 C.ar      1 <0>        -0.0412
      7 C7         -2.3362   -0.7066    0.5930 C.3       1 <0>         0.0811
      8 N1         -2.4351   -0.9036   -0.8594 N.3       1 <0>        -0.5319
      9 C8         -2.7830    0.3517   -1.5385 C.3       1 <0>         0.0335
     10 C9         -2.6989    0.1485   -3.0550 C.3       1 <0>         0.1029
     11 N2         -3.5330   -1.0071   -3.4185 N.am      1 <0>        -0.6109
     12 C10        -3.3359   -2.2661   -2.6840 C.3       1 <0>         0.1167
     13 C11        -3.3949   -1.9678   -1.1821 C.3       1 <0>         0.0413
     14 C12        -4.4533   -0.9150   -4.3989 C.2       1 <0>         0.5631
     15 O1         -5.0854   -1.8979   -4.7335 O.2       1 <0>        -0.5205
     16 C13        -4.6938    0.3810   -5.0671 C.ar      1 <0>        -0.1263
     17 C14        -3.6193    1.1313   -5.5487 C.ar      1 <0>        -0.0818
     18 C15        -3.8500    2.3396   -6.1718 C.ar      1 <0>        -0.1144
     19 C16        -5.1445    2.8096   -6.3199 C.ar      1 <0>        -0.0152
     20 C17        -6.2145    2.0697   -5.8442 C.ar      1 <0>        -0.1103
     21 C18        -5.9967    0.8572   -5.2245 C.ar      1 <0>        -0.0551
     22 Cl1        -5.4270    4.3322   -7.1044 Cl        1 <0>        -0.0551
     23 N3          2.0272    2.7371    1.7417 N.pl3     1 <0>        -0.3464
     24 C19         1.9830    4.1039    1.8393 C.2       1 <0>         0.0210
     25 C20         3.2333    4.5152    2.1236 C.2       1 <0>         0.0122
     26 N4          4.0231    3.4338    2.1987 N.pl3     1 <0>        -0.4711
     27 C21         3.3114    2.3623    1.9772 C.cat     1 <0>         0.2833
     28 H1         -2.3599    1.9858    0.7918 H         1 <0>         0.1444
     29 H2         -0.4699    3.4833    1.2849 H         1 <0>         0.1415
     30 H3          2.1269    0.0988    1.5673 H         1 <0>         0.1396
     31 H4          0.2318   -1.3905    1.0690 H         1 <0>         0.1494
     32 H5         -2.1778   -1.6686    1.0802 H         1 <0>         0.0978
     33 H6         -3.2590   -0.2595    0.9627 H         1 <0>         0.0565
     34 H7         -3.7973    0.6435   -1.2663 H         1 <0>         0.0455
     35 H8         -2.0859    1.1336   -1.2371 H         1 <0>         0.0879
     36 H9         -3.0656    1.0395   -3.5647 H         1 <0>         0.0998
     37 H10        -1.6648   -0.0416   -3.3422 H         1 <0>         0.0801
     38 H11        -4.1237   -2.9714   -2.9485 H         1 <0>         0.1021
     39 H12        -2.3630   -2.6883   -2.9356 H         1 <0>         0.0801
     40 H13        -3.1417   -2.8681   -0.6223 H         1 <0>         0.0955
     41 H14        -4.4007   -1.6437   -0.9149 H         1 <0>         0.0461
     42 H15        -2.6095    0.7662   -5.4331 H         1 <0>         0.1387
     43 H16        -3.0197    2.9209   -6.5447 H         1 <0>         0.1420
     44 H17        -7.2217    2.4414   -5.9622 H         1 <0>         0.1442
     45 H18        -6.8321    0.2793   -4.8577 H         1 <0>         0.1413
     46 H19         1.1125    4.7305    1.7124 H         1 <0>         0.2240
     47 H20         3.5461    5.5391    2.2660 H         1 <0>         0.2284
     48 H21         3.6820    1.3479    1.9782 H         1 <0>         0.2613
     49 H22         4.9737    3.4458    2.3912 H         1 <0>         0.4680
@<TRIPOS>BOND
     1    1    6 ar
     2    1    2 ar
     3    1   28 1
     4    2    3 ar
     5    2   29 1
     6    3    4 ar
     7    3   23 1
     8    4    5 ar
     9    4   30 1
    10    5    6 ar
    11    5   31 1
    12    6    7 1
    13    7    8 1
    14    7   32 1
    15    7   33 1
    16    8   13 1
    17    8    9 1
    18    9   10 1
    19    9   34 1
    20    9   35 1
    21   10   11 1
    22   10   36 1
    23   10   37 1
    24   11   12 1
    25   11   14 am
    26   12   13 1
    27   12   38 1
    28   12   39 1
    29   13   40 1
    30   13   41 1
    31   14   15 2
    32   14   16 1
    33   16   21 ar
    34   16   17 ar
    35   17   18 ar
    36   17   42 1
    37   18   19 ar
    38   18   43 1
    39   19   20 ar
    40   19   22 1
    41   20   21 ar
    42   20   44 1
    43   21   45 1
    44   23   27 1
    45   23   24 1
    46   24   25 2
    47   24   46 1
    48   25   26 1
    49   25   47 1
    50   26   27 2
    51   26   49 1
    52   27   48 1
@<TRIPOS>MOLECULE
ZINC40423330
   49    52     0     0     0
SMALL
USER_CHARGES

@<TRIPOS>ATOM
      1 C1         -1.2957    1.6304    0.9386 C.ar      1 <0>        -0.0641
      2 C2         -0.2293    2.4669    1.2046 C.ar      1 <0>        -0.1362
      3 C3          1.0326    1.9320    1.4247 C.ar      1 <0>         0.1868
      4 C4          1.2188    0.5572    1.3767 C.ar      1 <0>        -0.1344
      5 C5          0.1486   -0.2744    1.1102 C.ar      1 <0>        -0.0585
      6 C6         -1.1073    0.2613    0.8914 C.ar      1 <0>        -0.1786
      7 C7         -2.2728   -0.6487    0.6009 C.3       1 <0>         0.0463
      8 N1         -2.3795   -0.8602   -0.8489 N.4       1 <0>        -0.3837
      9 C8         -2.6956    0.4145   -1.5057 C.3       1 <0>        -0.0277
     10 C9         -2.6941    0.2189   -3.0254 C.3       1 <0>         0.0750
     11 N2         -3.6159   -0.8791   -3.3552 N.am      1 <0>        -0.6292
     12 C10        -3.4739   -2.1470   -2.6229 C.3       1 <0>         0.0895
     13 C11        -3.4386   -1.8398   -1.1222 C.3       1 <0>        -0.0198
     14 C12        -4.5639   -0.7276   -4.3012 C.2       1 <0>         0.5752
     15 O1         -5.2711   -1.6672   -4.6089 O.2       1 <0>        -0.4969
     16 C13        -4.7436    0.5809   -4.9643 C.ar      1 <0>        -0.1414
     17 C14        -3.6396    1.2636   -5.4782 C.ar      1 <0>        -0.0868
     18 C15        -3.8136    2.4839   -6.0963 C.ar      1 <0>        -0.1110
     19 C16        -5.0805    3.0327   -6.2074 C.ar      1 <0>        -0.0086
     20 C17        -6.1796    2.3601   -5.6995 C.ar      1 <0>        -0.1074
     21 C18        -6.0189    1.1364   -5.0844 C.ar      1 <0>        -0.0507
     22 Cl1        -5.2915    4.5700   -6.9859 Cl        1 <0>        -0.0435
     23 N3          2.1173    2.7789    1.6945 N.pl3     1 <0>        -0.4278
     24 C19         3.4132    2.3951    1.9250 C.2       1 <0>        -0.0573
     25 C20         4.1211    3.5206    2.1383 C.2       1 <0>        -0.0051
     26 N4          3.2857    4.5655    2.0418 N.2       1 <0>        -0.4716
     27 C21         2.0838    4.1346    1.7709 C.2       1 <0>         0.1953
     28 H1         -2.2786    2.0457    0.7717 H         1 <0>         0.1427
     29 H2         -0.3770    3.5362    1.2409 H         1 <0>         0.1458
     30 H3          2.1995    0.1383    1.5472 H         1 <0>         0.1443
     31 H4          0.2928   -1.3440    1.0728 H         1 <0>         0.1425
     32 H5         -2.1184   -1.6066    1.0974 H         1 <0>         0.1416
     33 H6         -3.1911   -0.1920    0.9700 H         1 <0>         0.1385
     34 H7         -3.6799    0.7548   -1.1840 H         1 <0>         0.1363
     35 H8         -1.9469    1.1587   -1.2343 H         1 <0>         0.1444
     36 H9         -3.0268    1.1353   -3.5129 H         1 <0>         0.1387
     37 H10        -1.6884   -0.0338   -3.3612 H         1 <0>         0.0998
     38 H11        -4.3221   -2.7948   -2.8443 H         1 <0>         0.1385
     39 H12        -2.5470   -2.6386   -2.9180 H         1 <0>         0.0977
     40 H13        -3.2374   -2.7567   -0.5681 H         1 <0>         0.1472
     41 H14        -4.4004   -1.4312   -0.8121 H         1 <0>         0.1358
     42 H15        -2.6512    0.8370   -5.3915 H         1 <0>         0.1389
     43 H16        -2.9603    3.0130   -6.4943 H         1 <0>         0.1464
     44 H17        -7.1650    2.7930   -5.7888 H         1 <0>         0.1480
     45 H18        -6.8771    0.6109   -4.6925 H         1 <0>         0.1434
     46 H19         3.7933    1.3843    1.9339 H         1 <0>         0.1833
     47 H20         5.1787    3.5728    2.3509 H         1 <0>         0.1823
     48 H21         1.2087    4.7524    1.6334 H         1 <0>         0.2132
     49 H22        -1.5011   -1.2090   -1.2022 H         1 <0>         0.4232
@<TRIPOS>BOND
     1    1    6 ar
     2    1    2 ar
     3    1   28 1
     4    2    3 ar
     5    2   29 1
     6    3    4 ar
     7    3   23 1
     8    4    5 ar
     9    4   30 1
    10    5    6 ar
    11    5   31 1
    12    6    7 1
    13    7    8 1
    14    7   32 1
    15    7   33 1
    16    8   13 1
    17    8    9 1
    18    8   49 1
    19    9   10 1
    20    9   34 1
    21    9   35 1
    22   10   11 1
    23   10   36 1
    24   10   37 1
    25   11   12 1
    26   11   14 am
    27   12   13 1
    28   12   38 1
    29   12   39 1
    30   13   40 1
    31   13   41 1
    32   14   15 2
    33   14   16 1
    34   16   21 ar
    35   16   17 ar
    36   17   18 ar
    37   17   42 1
    38   18   19 ar
    39   18   43 1
    40   19   20 ar
    41   19   22 1
    42   20   21 ar
    43   20   44 1
    44   21   45 1
    45   23   27 1
    46   23   24 1
    47   24   25 2
    48   24   46 1
    49   25   26 1
    50   25   47 1
    51   26   27 2
    52   27   48 1
@<TRIPOS>MOLECULE
ZINC40423330
   50    53     0     0     0
SMALL
USER_CHARGES

@<TRIPOS>ATOM
      1 C1         -1.2957    1.6304    0.9386 C.ar      1 <0>        -0.0669
      2 C2         -0.2293    2.4669    1.2046 C.ar      1 <0>        -0.1006
      3 C3          1.0326    1.9320    1.4247 C.ar      1 <0>         0.1250
      4 C4          1.2188    0.5572    1.3767 C.ar      1 <0>        -0.1089
      5 C5          0.1486   -0.2744    1.1102 C.ar      1 <0>        -0.0609
      6 C6         -1.1073    0.2613    0.8914 C.ar      1 <0>        -0.1338
      7 C7         -2.2728   -0.6487    0.6009 C.3       1 <0>         0.0361
      8 N1         -2.3795   -0.8602   -0.8489 N.4       1 <0>        -0.3838
      9 C8         -2.6956    0.4145   -1.5057 C.3       1 <0>        -0.0291
     10 C9         -2.6941    0.2189   -3.0254 C.3       1 <0>         0.0758
     11 N2         -3.6159   -0.8791   -3.3552 N.am      1 <0>        -0.6311
     12 C10        -3.4739   -2.1470   -2.6229 C.3       1 <0>         0.0890
     13 C11        -3.4386   -1.8398   -1.1222 C.3       1 <0>        -0.0203
     14 C12        -4.5639   -0.7276   -4.3012 C.2       1 <0>         0.5747
     15 O1         -5.2711   -1.6672   -4.6089 O.2       1 <0>        -0.4902
     16 C13        -4.7436    0.5809   -4.9643 C.ar      1 <0>        -0.1432
     17 C14        -3.6396    1.2636   -5.4782 C.ar      1 <0>        -0.0887
     18 C15        -3.8136    2.4839   -6.0963 C.ar      1 <0>        -0.1119
     19 C16        -5.0805    3.0327   -6.2074 C.ar      1 <0>        -0.0082
     20 C17        -6.1796    2.3601   -5.6995 C.ar      1 <0>        -0.1059
     21 C18        -6.0189    1.1364   -5.0844 C.ar      1 <0>        -0.0495
     22 Cl1        -5.2915    4.5700   -6.9859 Cl        1 <0>        -0.0402
     23 N3          2.1173    2.7789    1.6945 N.pl3     1 <0>        -0.3681
     24 C19         2.0822    4.1469    1.7780 C.2       1 <0>         0.0219
     25 C20         3.3363    4.5531    2.0526 C.2       1 <0>         0.0231
     26 N4          4.1196    3.4675    2.1355 N.pl3     1 <0>        -0.4637
     27 C21         3.4002    2.3983    1.9283 C.cat     1 <0>         0.2954
     28 H1         -2.2786    2.0457    0.7717 H         1 <0>         0.1564
     29 H2         -0.3770    3.5362    1.2409 H         1 <0>         0.1548
     30 H3          2.1995    0.1383    1.5472 H         1 <0>         0.1521
     31 H4          0.2928   -1.3440    1.0728 H         1 <0>         0.1570
     32 H5         -2.1184   -1.6066    1.0974 H         1 <0>         0.1495
     33 H6         -3.1911   -0.1920    0.9700 H         1 <0>         0.1463
     34 H7         -3.6799    0.7548   -1.1840 H         1 <0>         0.1396
     35 H8         -1.9469    1.1587   -1.2343 H         1 <0>         0.1390
     36 H9         -3.0268    1.1353   -3.5129 H         1 <0>         0.1407
     37 H10        -1.6884   -0.0338   -3.3612 H         1 <0>         0.0988
     38 H11        -4.3221   -2.7948   -2.8443 H         1 <0>         0.1416
     39 H12        -2.5470   -2.6386   -2.9180 H         1 <0>         0.0987
     40 H13        -3.2374   -2.7567   -0.5681 H         1 <0>         0.1501
     41 H14        -4.4004   -1.4312   -0.8121 H         1 <0>         0.1389
     42 H15        -2.6512    0.8370   -5.3915 H         1 <0>         0.1374
     43 H16        -2.9603    3.0130   -6.4943 H         1 <0>         0.1460
     44 H17        -7.1650    2.7930   -5.7888 H         1 <0>         0.1496
     45 H18        -6.8771    0.6109   -4.6925 H         1 <0>         0.1444
     46 H19         1.2151    4.7776    1.6484 H         1 <0>         0.2282
     47 H20         3.6563    5.5764    2.1829 H         1 <0>         0.2338
     48 H21         3.7644    1.3817    1.9382 H         1 <0>         0.2649
     49 H22         5.0711    3.4754    2.3236 H         1 <0>         0.4731
     50 H23        -1.5011   -1.2090   -1.2022 H         1 <0>         0.4234
@<TRIPOS>BOND
     1    1    6 ar
     2    1    2 ar
     3    1   28 1
     4    2    3 ar
     5    2   29 1
     6    3    4 ar
     7    3   23 1
     8    4    5 ar
     9    4   30 1
    10    5    6 ar
    11    5   31 1
    12    6    7 1
    13    7    8 1
    14    7   32 1
    15    7   33 1
    16    8   13 1
    17    8    9 1
    18    8   50 1
    19    9   10 1
    20    9   34 1
    21    9   35 1
    22   10   11 1
    23   10   36 1
    24   10   37 1
    25   11   12 1
    26   11   14 am
    27   12   13 1
    28   12   38 1
    29   12   39 1
    30   13   40 1
    31   13   41 1
    32   14   15 2
    33   14   16 1
    34   16   21 ar
    35   16   17 ar
    36   17   18 ar
    37   17   42 1
    38   18   19 ar
    39   18   43 1
    40   19   20 ar
    41   19   22 1
    42   20   21 ar
    43   20   44 1
    44   21   45 1
    45   23   27 1
    46   23   24 1
    47   24   25 2
    48   24   46 1
    49   25   26 1
    50   25   47 1
    51   26   27 2
    52   26   49 1
    53   27   48 1
