@<TRIPOS>MOLECULE
ZINC33333445
   42    44     0     0     0
SMALL
USER_CHARGES

@<TRIPOS>ATOM
      1 C1         -1.6629    2.7213    5.0296 C.3       1 <0>         0.0216
      2 O1         -2.9150    2.9913    4.3960 O.3       1 <0>        -0.2978
      3 C2         -3.6119    1.9244    3.9287 C.ar      1 <0>         0.1390
      4 C3         -3.1000    0.6414    4.0836 C.ar      1 <0>        -0.1802
      5 C4         -3.8009   -0.4449    3.6128 C.ar      1 <0>        -0.0620
      6 C5         -5.0364   -0.2582    2.9741 C.ar      1 <0>        -0.1032
      7 C6         -5.5513    1.0381    2.8188 C.ar      1 <0>        -0.1490
      8 C7         -4.8424    2.1193    3.2994 C.ar      1 <0>         0.1042
      9 O2         -5.3406    3.3765    3.1558 O.3       1 <0>        -0.2985
     10 C8         -6.6051    3.5026    2.5022 C.3       1 <0>         0.0145
     11 C9         -5.7844   -1.4100    2.4718 C.2       1 <0>         0.1456
     12 C10        -6.5101   -1.3054    1.2982 C.2       1 <0>        -0.2649
     13 C11        -6.2539   -0.4065    0.1629 C.2       1 <0>         0.0456
     14 N1         -7.1695   -0.6306   -0.7291 N.2       1 <0>        -0.1639
     15 N2         -8.0565   -1.6219   -0.3109 N.am      1 <0>        -0.3973
     16 C12        -7.7047   -2.0744    0.9098 C.2       1 <0>         0.5419
     17 O3         -8.2629   -2.9409    1.5600 O.2       1 <0>        -0.4716
     18 C13        -9.1510   -2.0844   -1.0532 C.ar      1 <0>         0.1671
     19 C14        -9.9747   -3.0747   -0.5345 C.ar      1 <0>        -0.1302
     20 C15       -11.0532   -3.5284   -1.2681 C.ar      1 <0>        -0.0817
     21 C16       -11.3134   -2.9971   -2.5191 C.ar      1 <0>        -0.0473
     22 C17       -10.4940   -2.0101   -3.0384 C.ar      1 <0>        -0.0855
     23 C18        -9.4173   -1.5491   -2.3066 C.ar      1 <0>        -0.1157
     24 Cl1       -12.6695   -3.5701   -3.4390 Cl        1 <0>        -0.0622
     25 C19        -5.1321    0.5940    0.0551 C.3       1 <0>         0.5521
     26 F1         -5.6421    1.8862    0.2207 F         1 <0>        -0.1598
     27 F2         -4.1811    0.3372    1.0485 F         1 <0>        -0.1448
     28 F3         -4.5316    0.4876   -1.2040 F         1 <0>        -0.1580
     29 H1         -1.2112    3.6582    5.3557 H         1 <0>         0.1057
     30 H2         -1.8243    2.0759    5.8930 H         1 <0>         0.0599
     31 H3         -0.9982    2.2239    4.3233 H         1 <0>         0.0603
     32 H4         -2.1491    0.4968    4.5747 H         1 <0>         0.1464
     33 H5         -3.4004   -1.4405    3.7345 H         1 <0>         0.1415
     34 H6         -6.5016    1.1882    2.3281 H         1 <0>         0.1398
     35 H7         -6.8857    4.5547    2.4537 H         1 <0>         0.1058
     36 H8         -6.5339    3.0986    1.4923 H         1 <0>         0.0651
     37 H9         -7.3601    2.9506    3.0620 H         1 <0>         0.0548
     38 H10        -5.7704   -2.3423    3.0168 H         1 <0>         0.1649
     39 H11        -9.7719   -3.4899    0.4417 H         1 <0>         0.1628
     40 H12       -11.6940   -4.2989   -0.8652 H         1 <0>         0.1448
     41 H13       -10.6991   -1.5971   -4.0150 H         1 <0>         0.1440
     42 H14        -8.7808   -0.7757   -2.7104 H         1 <0>         0.1460
@<TRIPOS>BOND
     1    1    2 1
     2    1   29 1
     3    1   30 1
     4    1   31 1
     5    2    3 1
     6    3    8 ar
     7    3    4 ar
     8    4    5 ar
     9    4   32 1
    10    5    6 ar
    11    5   33 1
    12    6    7 ar
    13    6   11 1
    14    7    8 ar
    15    7   34 1
    16    8    9 1
    17    9   10 1
    18   10   35 1
    19   10   36 1
    20   10   37 1
    21   11   12 2
    22   11   38 1
    23   12   16 1
    24   12   13 1
    25   13   14 2
    26   13   25 1
    27   14   15 1
    28   15   16 am
    29   15   18 1
    30   16   17 2
    31   18   23 ar
    32   18   19 ar
    33   19   20 ar
    34   19   39 1
    35   20   21 ar
    36   20   40 1
    37   21   22 ar
    38   21   24 1
    39   22   23 ar
    40   22   41 1
    41   23   42 1
    42   25   26 1
    43   25   27 1
    44   25   28 1
