@<TRIPOS>MOLECULE
ZINC01540245
   78    79     0     0     0
SMALL
USER_CHARGES
N-(2,6-diisopropylphenoxy)sulfonyl-2-(2,4,6-triisopropylphenyl)-acetamide
@<TRIPOS>ATOM
      1 C1          4.5265    6.6415    0.7170 C.3       1 <0>        -0.1600
      2 C2          3.8501    7.4195   -0.4136 C.3       1 <0>        -0.0700
      3 C3          2.9184    8.4772    0.1815 C.3       1 <0>        -0.1477
      4 C4          4.9006    8.0934   -1.2582 C.ar      1 <0>        -0.0662
      5 C5          5.8523    8.8998   -0.6646 C.ar      1 <0>        -0.1072
      6 C6          6.8131    9.5227   -1.4396 C.ar      1 <0>        -0.0888
      7 C7          6.8271    9.3364   -2.8095 C.ar      1 <0>        -0.1050
      8 C8          5.8807    8.5267   -3.4074 C.ar      1 <0>        -0.0384
      9 C9          4.9159    7.9003   -2.6319 C.ar      1 <0>         0.0532
     10 O1          3.9839    7.1033   -3.2176 O.3       1 <0>        -0.6583
     11 S1          4.4592    5.6803   -3.4740 S.o2      1 <0>         2.7417
     12 O2          5.8459    5.7630   -3.7730 O.2       1 <0>        -0.9519
     13 O3          3.5213    5.0933   -4.3656 O.2       1 <0>        -0.9144
     14 N1          4.3319    4.8563   -2.0432 N.am      1 <0>        -1.0715
     15 C10         3.1207    4.4781   -1.5889 C.2       1 <0>         0.5300
     16 O4          2.1329    4.6655   -2.2672 O.2       1 <0>        -0.4564
     17 C11         2.9937    3.8223   -0.2380 C.3       1 <0>        -0.1162
     18 C12         1.5859    3.3166   -0.0554 C.ar      1 <0>        -0.0811
     19 C13         1.2696    2.0146   -0.3954 C.ar      1 <0>        -0.0533
     20 C14        -0.0215    1.5504   -0.2270 C.ar      1 <0>        -0.1152
     21 C15        -0.9978    2.3900    0.2758 C.ar      1 <0>        -0.0627
     22 C16        -0.6805    3.6908    0.6199 C.ar      1 <0>        -0.1120
     23 C17         0.6108    4.1547    0.4524 C.ar      1 <0>        -0.0483
     24 C18         0.9558    5.5738    0.8239 C.3       1 <0>        -0.0663
     25 C19         0.0106    6.5347    0.0999 C.3       1 <0>        -0.1484
     26 C20         0.8080    5.7555    2.3359 C.3       1 <0>        -0.1455
     27 C21        -2.4068    1.8859    0.4536 C.3       1 <0>        -0.0576
     28 C22        -2.8036    1.9899    1.9275 C.3       1 <0>        -0.1434
     29 C23        -3.3613    2.7309   -0.3924 C.3       1 <0>        -0.1448
     30 C24         2.3326    1.1010   -0.9490 C.3       1 <0>        -0.0645
     31 C25         2.5953   -0.0350    0.0417 C.3       1 <0>        -0.1434
     32 C26         1.8593    0.5165   -2.2814 C.3       1 <0>        -0.1473
     33 C27         5.8962    8.3245   -4.9006 C.3       1 <0>        -0.0597
     34 C28         5.7227    9.6743   -5.5999 C.3       1 <0>        -0.1462
     35 C29         7.2303    7.7021   -5.3172 C.3       1 <0>        -0.1516
     36 H1          5.0172    7.3395    1.3954 H         1 <0>         0.0729
     37 H2          3.7768    6.0697    1.2638 H         1 <0>         0.0692
     38 H3          5.2675    5.9612    0.2972 H         1 <0>         0.0588
     39 H4          3.2722    6.7328   -1.0320 H         1 <0>         0.0713
     40 H5          2.5015    9.0866   -0.6203 H         1 <0>         0.0611
     41 H6          2.1097    7.9859    0.7226 H         1 <0>         0.0705
     42 H7          3.4803    9.1125    0.8662 H         1 <0>         0.0634
     43 H8          5.8435    9.0469    0.4053 H         1 <0>         0.1389
     44 H9          7.5538   10.1560   -0.9741 H         1 <0>         0.1369
     45 H10         7.5782    9.8245   -3.4128 H         1 <0>         0.1392
     46 H11         5.1290    4.6459   -1.5321 H         1 <0>         0.4340
     47 H12         3.2227    4.5489    0.5416 H         1 <0>         0.1196
     48 H13         3.6911    2.9872   -0.1726 H         1 <0>         0.1146
     49 H14        -0.2686    0.5331   -0.4926 H         1 <0>         0.1209
     50 H15        -1.4422    4.3454    1.0169 H         1 <0>         0.1212
     51 H16         1.9841    5.7863    0.5312 H         1 <0>         0.0765
     52 H17         0.1760    6.4658   -0.9753 H         1 <0>         0.0611
     53 H18        -1.0218    6.2683    0.3264 H         1 <0>         0.0584
     54 H19         0.2041    7.5544    0.4327 H         1 <0>         0.0592
     55 H20         1.4814    5.0710    2.8516 H         1 <0>         0.0562
     56 H21         1.0575    6.7820    2.6046 H         1 <0>         0.0593
     57 H22        -0.2203    5.5431    2.6285 H         1 <0>         0.0593
     58 H23        -2.4632    0.8451    0.1347 H         1 <0>         0.0767
     59 H24        -3.8227    1.6253    2.0561 H         1 <0>         0.0580
     60 H25        -2.1235    1.3879    2.5302 H         1 <0>         0.0556
     61 H26        -2.7472    3.0307    2.2464 H         1 <0>         0.0562
     62 H27        -3.0786    2.6568   -1.4425 H         1 <0>         0.0566
     63 H28        -4.3804    2.3662   -0.2639 H         1 <0>         0.0581
     64 H29        -3.3049    3.7717   -0.0736 H         1 <0>         0.0563
     65 H30         3.2515    1.6659   -1.1059 H         1 <0>         0.0742
     66 H31         1.6764   -0.5999    0.1987 H         1 <0>         0.0587
     67 H32         3.3641   -0.6958   -0.3587 H         1 <0>         0.0593
     68 H33         2.9324    0.3814    0.9909 H         1 <0>         0.0562
     69 H34         1.6722    1.3258   -2.9871 H         1 <0>         0.0593
     70 H35         2.6282   -0.1443   -2.6818 H         1 <0>         0.0588
     71 H36         0.9405   -0.0484   -2.1244 H         1 <0>         0.0590
     72 H37         5.0805    7.6601   -5.1858 H         1 <0>         0.0596
     73 H38         6.5384   10.3387   -5.3147 H         1 <0>         0.0630
     74 H39         5.7339    9.5281   -6.6800 H         1 <0>         0.0658
     75 H40         4.7723   10.1178   -5.3031 H         1 <0>         0.0582
     76 H41         7.3539    6.7405   -4.8191 H         1 <0>         0.0888
     77 H42         7.2415    7.5558   -6.3973 H         1 <0>         0.0595
     78 H43         8.0460    8.3665   -5.0321 H         1 <0>         0.0576
@<TRIPOS>BOND
     1    1    2 1
     2    1   36 1
     3    1   37 1
     4    1   38 1
     5    2    3 1
     6    2    4 1
     7    2   39 1
     8    3   40 1
     9    3   41 1
    10    3   42 1
    11    4    9 ar
    12    4    5 ar
    13    5    6 ar
    14    5   43 1
    15    6    7 ar
    16    6   44 1
    17    7    8 ar
    18    7   45 1
    19    8    9 ar
    20    8   33 1
    21    9   10 1
    22   10   11 1
    23   11   12 2
    24   11   13 2
    25   11   14 1
    26   14   15 am
    27   14   46 1
    28   15   16 2
    29   15   17 1
    30   17   18 1
    31   17   47 1
    32   17   48 1
    33   18   23 ar
    34   18   19 ar
    35   19   20 ar
    36   19   30 1
    37   20   21 ar
    38   20   49 1
    39   21   22 ar
    40   21   27 1
    41   22   23 ar
    42   22   50 1
    43   23   24 1
    44   24   25 1
    45   24   26 1
    46   24   51 1
    47   25   52 1
    48   25   53 1
    49   25   54 1
    50   26   55 1
    51   26   56 1
    52   26   57 1
    53   27   28 1
    54   27   29 1
    55   27   58 1
    56   28   59 1
    57   28   60 1
    58   28   61 1
    59   29   62 1
    60   29   63 1
    61   29   64 1
    62   30   31 1
    63   30   32 1
    64   30   65 1
    65   31   66 1
    66   31   67 1
    67   31   68 1
    68   32   69 1
    69   32   70 1
    70   32   71 1
    71   33   34 1
    72   33   35 1
    73   33   72 1
    74   34   73 1
    75   34   74 1
    76   34   75 1
    77   35   76 1
    78   35   77 1
    79   35   78 1
@<TRIPOS>MOLECULE
ZINC01657402
   29    31     0     0     0
SMALL
USER_CHARGES
1-benzylindoline-2,3-dione
@<TRIPOS>ATOM
      1 C1          1.1563    3.1654    0.0076 C.ar      1 <0>        -0.1084
      2 C2          1.1750    1.7832    0.0004 C.ar      1 <0>        -0.1220
      3 C3         -0.0126    1.0758    0.0080 C.ar      1 <0>        -0.0993
      4 C4         -1.2190    1.7506    0.0173 C.ar      1 <0>        -0.1229
      5 C5         -1.2377    3.1328    0.0299 C.ar      1 <0>        -0.0961
      6 C6         -0.0501    3.8402    0.0223 C.ar      1 <0>        -0.1206
      7 C7         -2.5137    0.9795    0.0193 C.3       1 <0>         0.1525
      8 N1         -2.9267    0.7221    1.4011 N.am      1 <0>        -0.5414
      9 C8         -2.5634   -0.4072    2.1312 C.ar      1 <0>         0.1968
     10 C9         -1.7729   -1.4999    1.7994 C.ar      1 <0>        -0.1511
     11 C10        -1.5539   -2.5055    2.7221 C.ar      1 <0>        -0.0416
     12 C11        -2.1122   -2.4375    3.9878 C.ar      1 <0>        -0.1561
     13 C12        -2.8964   -1.3582    4.3406 C.ar      1 <0>        -0.0040
     14 C13        -3.1234   -0.3378    3.4172 C.ar      1 <0>        -0.2403
     15 C14        -3.8922    0.9193    3.4746 C.2       1 <0>         0.3902
     16 O1         -4.5326    1.3533    4.4096 O.2       1 <0>        -0.3689
     17 C15        -3.7089    1.5432    2.1230 C.2       1 <0>         0.4920
     18 O2         -4.1810    2.5962    1.7492 O.2       1 <0>        -0.4438
     19 H1          2.0841    3.7181    0.0014 H         1 <0>         0.1249
     20 H2          2.1175    1.2560   -0.0115 H         1 <0>         0.1256
     21 H3          0.0021   -0.0041    0.0020 H         1 <0>         0.1225
     22 H4         -2.1802    3.6600    0.0410 H         1 <0>         0.1266
     23 H5         -0.0647    4.9201    0.0276 H         1 <0>         0.1257
     24 H6         -3.2837    1.5610   -0.4877 H         1 <0>         0.1050
     25 H7         -2.3729    0.0317   -0.5003 H         1 <0>         0.1024
     26 H8         -1.3315   -1.5663    0.8159 H         1 <0>         0.1342
     27 H9         -0.9412   -3.3533    2.4532 H         1 <0>         0.1398
     28 H10        -1.9339   -3.2302    4.6993 H         1 <0>         0.1391
     29 H11        -3.3321   -1.3037    5.3273 H         1 <0>         0.1393
@<TRIPOS>BOND
     1    1    6 ar
     2    1    2 ar
     3    1   19 1
     4    2    3 ar
     5    2   20 1
     6    3    4 ar
     7    3   21 1
     8    4    5 ar
     9    4    7 1
    10    5    6 ar
    11    5   22 1
    12    6   23 1
    13    7    8 1
    14    7   24 1
    15    7   25 1
    16    8   17 am
    17    8    9 1
    18    9   14 ar
    19    9   10 ar
    20   10   11 ar
    21   10   26 1
    22   11   12 ar
    23   11   27 1
    24   12   13 ar
    25   12   28 1
    26   13   14 ar
    27   13   29 1
    28   14   15 1
    29   15   16 2
    30   15   17 1
    31   17   18 2
@<TRIPOS>MOLECULE
ZINC01657403
   26    28     0     0     0
SMALL
USER_CHARGES

@<TRIPOS>ATOM
      1 C1         -0.0171    1.3779    0.0103 C.ar      1 <0>        -0.1064
      2 C2          0.7537    1.3699   -1.1379 C.ar      1 <0>        -0.1056
      3 C3          1.9604    0.6985   -1.1566 C.ar      1 <0>        -0.1012
      4 C4          2.3996    0.0310   -0.0207 C.ar      1 <0>         0.1141
      5 C5          1.6232    0.0409    1.1307 C.ar      1 <0>        -0.1084
      6 C6          0.4174    0.7141    1.1429 C.ar      1 <0>        -0.1071
      7 N1          3.6223   -0.6510   -0.0366 N.am      1 <0>        -0.5023
      8 C7          3.7501   -2.0371    0.0496 C.ar      1 <0>         0.1920
      9 C8          2.7984   -3.0416    0.1653 C.ar      1 <0>        -0.1438
     10 C9          3.1898   -4.3657    0.2344 C.ar      1 <0>        -0.0423
     11 C10         4.5306   -4.7097    0.1901 C.ar      1 <0>        -0.1522
     12 C11         5.4932   -3.7271    0.0758 C.ar      1 <0>        -0.0047
     13 C12         5.1090   -2.3885    0.0044 C.ar      1 <0>        -0.2353
     14 C13         5.8663   -1.1285   -0.1181 C.2       1 <0>         0.3944
     15 O1          7.0701   -0.9925   -0.1882 O.2       1 <0>        -0.3649
     16 C14         4.8216   -0.0531   -0.1425 C.2       1 <0>         0.4914
     17 O2          5.0223    1.1395   -0.2380 O.2       1 <0>        -0.4337
     18 H1         -0.9583    1.9074    0.0237 H         1 <0>         0.1317
     19 H2          0.4114    1.8890   -2.0210 H         1 <0>         0.1338
     20 H3          2.5618    0.6924   -2.0537 H         1 <0>         0.1274
     21 H4          1.9619   -0.4776    2.0155 H         1 <0>         0.1297
     22 H5         -0.1867    0.7225    2.0382 H         1 <0>         0.1339
     23 H6          1.7493   -2.7877    0.2017 H         1 <0>         0.1361
     24 H7          2.4422   -5.1399    0.3243 H         1 <0>         0.1412
     25 H8          4.8233   -5.7478    0.2454 H         1 <0>         0.1407
     26 H9          6.5392   -3.9937    0.0418 H         1 <0>         0.1414
@<TRIPOS>BOND
     1    1    6 ar
     2    1    2 ar
     3    1   18 1
     4    2    3 ar
     5    2   19 1
     6    3    4 ar
     7    3   20 1
     8    4    5 ar
     9    4    7 1
    10    5    6 ar
    11    5   21 1
    12    6   22 1
    13    7   16 am
    14    7    8 1
    15    8   13 ar
    16    8    9 ar
    17    9   10 ar
    18    9   23 1
    19   10   11 ar
    20   10   24 1
    21   11   12 ar
    22   11   25 1
    23   12   13 ar
    24   12   26 1
    25   13   14 1
    26   14   15 2
    27   14   16 1
    28   16   17 2
@<TRIPOS>MOLECULE
ZINC34803574
   62    63     0     0     0
SMALL
USER_CHARGES

@<TRIPOS>ATOM
      1 C1         -0.0187    1.5258    0.0104 C.3       1 <0>        -0.1545
      2 C2          0.0021   -0.0041    0.0020 C.3       1 <0>        -0.1261
      3 C3          0.7182   -0.4975   -1.2568 C.3       1 <0>        -0.1216
      4 C4          0.7390   -2.0273   -1.2652 C.3       1 <0>        -0.1210
      5 C5          1.4551   -2.5207   -2.5240 C.3       1 <0>        -0.1207
      6 C6          1.4758   -4.0506   -2.5324 C.3       1 <0>        -0.1208
      7 C7          2.1920   -4.5440   -3.7912 C.3       1 <0>        -0.1145
      8 C8          2.2127   -6.0738   -3.7996 C.3       1 <0>        -0.0069
      9 C9          2.9017   -6.5485   -5.0107 C.1       1 <0>        -0.1877
     10 C10         3.4512   -6.9272   -5.9766 C.1       1 <0>        -0.1879
     11 C11         4.1402   -7.4019   -7.1877 C.3       1 <0>        -0.0068
     12 C12         4.1610   -8.9317   -7.1961 C.3       1 <0>        -0.1149
     13 C13         4.8771   -9.4251   -8.4549 C.3       1 <0>        -0.1208
     14 C14         4.8979  -10.9550   -8.4633 C.3       1 <0>        -0.1208
     15 C15         5.6140  -11.4484   -9.7221 C.3       1 <0>        -0.1197
     16 C16         5.6347  -12.9782   -9.7305 C.3       1 <0>        -0.1156
     17 C17         6.3509  -13.4716  -10.9894 C.3       1 <0>        -0.1403
     18 C18         6.3713  -14.9785  -10.9976 C.2       1 <0>         0.4494
     19 O1          5.8634  -15.5966  -10.0869 O.2       1 <0>        -0.4055
     20 C19         7.0088  -15.7006  -12.1129 C.2       1 <0>         0.1966
     21 N1          7.5895  -15.1339  -13.1400 N.2       1 <0>        -0.4081
     22 C20         8.0612  -16.0913  -13.9615 C.ar      1 <0>         0.2203
     23 C21         7.7316  -17.3260  -13.3702 C.ar      1 <0>        -0.0344
     24 O2          7.0847  -17.0414  -12.2226 O.3       1 <0>        -0.1794
     25 C22         8.1002  -18.5052  -14.0073 C.ar      1 <0>        -0.0413
     26 C23         8.7820  -18.4152  -15.2073 C.ar      1 <0>        -0.1389
     27 C24         9.0758  -17.1650  -15.7357 C.ar      1 <0>         0.1340
     28 N2          8.7195  -16.0609  -15.1194 N.ar      1 <0>        -0.4302
     29 H1          1.0039    1.9031    0.0027 H         1 <0>         0.0533
     30 H2         -0.5459    1.8868   -0.8726 H         1 <0>         0.0533
     31 H3         -0.5289    1.8773    0.9072 H         1 <0>         0.0534
     32 H4          0.5293   -0.3651    0.8851 H         1 <0>         0.0603
     33 H5         -1.0205   -0.3814    0.0098 H         1 <0>         0.0603
     34 H6          0.1910   -0.1364   -2.1398 H         1 <0>         0.0607
     35 H7          1.7408   -0.1202   -1.2645 H         1 <0>         0.0607
     36 H8          1.2661   -2.3884   -0.3821 H         1 <0>         0.0611
     37 H9         -0.2836   -2.4046   -1.2575 H         1 <0>         0.0611
     38 H10         0.9279   -2.1597   -3.4071 H         1 <0>         0.0614
     39 H11         2.4777   -2.1435   -2.5317 H         1 <0>         0.0614
     40 H12         2.0030   -4.4117   -1.6494 H         1 <0>         0.0639
     41 H13         0.4533   -4.4279   -2.5247 H         1 <0>         0.0639
     42 H14         1.6648   -4.1829   -4.6743 H         1 <0>         0.0649
     43 H15         3.2146   -4.1667   -3.7990 H         1 <0>         0.0649
     44 H16         2.7399   -6.4349   -2.9166 H         1 <0>         0.0844
     45 H17         1.1901   -6.4511   -3.7919 H         1 <0>         0.0844
     46 H18         3.6130   -7.0408   -8.0708 H         1 <0>         0.0845
     47 H19         5.1628   -7.0246   -7.1954 H         1 <0>         0.0845
     48 H20         4.6882   -9.2928   -6.3131 H         1 <0>         0.0651
     49 H21         3.1384   -9.3090   -7.1884 H         1 <0>         0.0651
     50 H22         4.3499   -9.0640   -9.3380 H         1 <0>         0.0649
     51 H23         5.8997   -9.0478   -8.4627 H         1 <0>         0.0649
     52 H24         5.4250  -11.3160   -7.5803 H         1 <0>         0.0635
     53 H25         3.8753  -11.3322   -8.4556 H         1 <0>         0.0635
     54 H26         5.0868  -11.0873  -10.6052 H         1 <0>         0.0667
     55 H27         6.6366  -11.0711   -9.7299 H         1 <0>         0.0667
     56 H28         6.1619  -13.3393   -8.8475 H         1 <0>         0.0730
     57 H29         4.6122  -13.3555   -9.7228 H         1 <0>         0.0730
     58 H30         5.8237  -13.1106  -11.8724 H         1 <0>         0.1163
     59 H31         7.3735  -13.0944  -10.9971 H         1 <0>         0.1163
     60 H32         7.8608  -19.4662  -13.5765 H         1 <0>         0.1539
     61 H33         9.0842  -19.3110  -15.7296 H         1 <0>         0.1622
     62 H34         9.6086  -17.0990  -16.6728 H         1 <0>         0.1804
@<TRIPOS>BOND
     1    1    2 1
     2    1   29 1
     3    1   30 1
     4    1   31 1
     5    2    3 1
     6    2   32 1
     7    2   33 1
     8    3    4 1
     9    3   34 1
    10    3   35 1
    11    4    5 1
    12    4   36 1
    13    4   37 1
    14    5    6 1
    15    5   38 1
    16    5   39 1
    17    6    7 1
    18    6   40 1
    19    6   41 1
    20    7    8 1
    21    7   42 1
    22    7   43 1
    23    8    9 1
    24    8   44 1
    25    8   45 1
    26    9   10 3
    27   10   11 1
    28   11   12 1
    29   11   46 1
    30   11   47 1
    31   12   13 1
    32   12   48 1
    33   12   49 1
    34   13   14 1
    35   13   50 1
    36   13   51 1
    37   14   15 1
    38   14   52 1
    39   14   53 1
    40   15   16 1
    41   15   54 1
    42   15   55 1
    43   16   17 1
    44   16   56 1
    45   16   57 1
    46   17   18 1
    47   17   58 1
    48   17   59 1
    49   18   19 2
    50   18   20 1
    51   20   24 1
    52   20   21 2
    53   21   22 1
    54   22   28 ar
    55   22   23 ar
    56   23   24 1
    57   23   25 ar
    58   25   26 ar
    59   25   60 1
    60   26   27 ar
    61   26   61 1
    62   27   28 ar
    63   27   62 1
@<TRIPOS>MOLECULE
ZINC13611906
   40    42     0     0     0
SMALL
USER_CHARGES
1-oxazolo[4,5-b]pyridin-2-yl-6-phenyl-hexan-1-one
@<TRIPOS>ATOM
      1 C1         12.9435    3.6324   -0.1080 C.ar      1 <0>        -0.1261
      2 C2         12.2489    3.7492   -1.2975 C.ar      1 <0>        -0.1183
      3 C3         10.8841    3.9684   -1.2823 C.ar      1 <0>        -0.1188
      4 C4         10.2140    4.0712   -0.0776 C.ar      1 <0>        -0.0822
      5 C5         10.9095    3.9601    1.1119 C.ar      1 <0>        -0.1188
      6 C6         12.2734    3.7357    1.0967 C.ar      1 <0>        -0.1183
      7 C7          8.7262    4.3106   -0.0610 C.3       1 <0>        -0.0821
      8 C8          7.9935    2.9675   -0.0613 C.3       1 <0>        -0.1136
      9 C9          6.4830    3.2106   -0.0445 C.3       1 <0>        -0.1201
     10 C10         5.7503    1.8674   -0.0448 C.3       1 <0>        -0.1170
     11 C11         4.2398    2.1105   -0.0280 C.3       1 <0>        -0.1291
     12 C12         3.5181    0.7875   -0.0283 C.2       1 <0>         0.4484
     13 O1          4.1494   -0.2473   -0.0407 O.2       1 <0>        -0.4041
     14 C13         2.0450    0.7518   -0.0134 C.2       1 <0>         0.1963
     15 N1          1.2685    1.8055   -0.0004 N.2       1 <0>        -0.4079
     16 C14        -0.0170    1.4038    0.0098 C.ar      1 <0>         0.2203
     17 C15         0.0021   -0.0041    0.0020 C.ar      1 <0>        -0.0341
     18 O2          1.2990   -0.3703   -0.0123 O.3       1 <0>        -0.1790
     19 C16        -1.2008   -0.7007    0.0098 C.ar      1 <0>        -0.0413
     20 C17        -2.3778    0.0258    0.0249 C.ar      1 <0>        -0.1387
     21 C18        -2.3256    1.4135    0.0319 C.ar      1 <0>         0.1341
     22 N2         -1.1792    2.0550    0.0292 N.ar      1 <0>        -0.4301
     23 H1         14.0097    3.4608   -0.1199 H         1 <0>         0.1206
     24 H2         12.7725    3.6689   -2.2387 H         1 <0>         0.1212
     25 H3         10.3415    4.0597   -2.2116 H         1 <0>         0.1207
     26 H4         10.3866    4.0448    2.0531 H         1 <0>         0.1207
     27 H5         12.8162    3.6448    2.0260 H         1 <0>         0.1212
     28 H6          8.4401    4.8808   -0.9448 H         1 <0>         0.0727
     29 H7          8.4583    4.8705    0.8350 H         1 <0>         0.0728
     30 H8          8.2797    2.3973    0.8225 H         1 <0>         0.0652
     31 H9          8.2615    2.4077   -0.9574 H         1 <0>         0.0651
     32 H10         6.1969    3.7807   -0.9283 H         1 <0>         0.0676
     33 H11         6.2151    3.7704    0.8516 H         1 <0>         0.0679
     34 H12         6.0365    1.2972    0.8390 H         1 <0>         0.0742
     35 H13         6.0183    1.3076   -0.9408 H         1 <0>         0.0738
     36 H14         3.9774    2.6336   -0.8388 H         1 <0>         0.1035
     37 H15         3.9719    2.6703    0.8681 H         1 <0>         0.1166
     38 H16        -1.2161   -1.7805    0.0045 H         1 <0>         0.1540
     39 H17        -3.3306   -0.4826    0.0309 H         1 <0>         0.1623
     40 H18        -3.2467    1.9771    0.0437 H         1 <0>         0.1805
@<TRIPOS>BOND
     1    1    6 ar
     2    1    2 ar
     3    1   23 1
     4    2    3 ar
     5    2   24 1
     6    3    4 ar
     7    3   25 1
     8    4    5 ar
     9    4    7 1
    10    5    6 ar
    11    5   26 1
    12    6   27 1
    13    7    8 1
    14    7   28 1
    15    7   29 1
    16    8    9 1
    17    8   30 1
    18    8   31 1
    19    9   10 1
    20    9   32 1
    21    9   33 1
    22   10   11 1
    23   10   34 1
    24   10   35 1
    25   11   12 1
    26   11   36 1
    27   11   37 1
    28   12   13 2
    29   12   14 1
    30   14   18 1
    31   14   15 2
    32   15   16 1
    33   16   22 ar
    34   16   17 ar
    35   17   18 1
    36   17   19 ar
    37   19   20 ar
    38   19   38 1
    39   20   21 ar
    40   20   39 1
    41   21   22 ar
    42   21   40 1
@<TRIPOS>MOLECULE
ZINC03949004
   47    49     0     0     0
SMALL
USER_CHARGES
7-phenyl-1-[5-(2-pyridyl)oxazol-2-yl]-heptan-1-one
@<TRIPOS>ATOM
      1 C1         16.2362    9.3508   -0.0966 C.ar      1 <0>        -0.1264
      2 C2         15.8809    8.7580    1.1006 C.ar      1 <0>        -0.1182
      3 C3         15.1481    7.5859    1.1008 C.ar      1 <0>        -0.1191
      4 C4         14.7709    7.0063   -0.0962 C.ar      1 <0>        -0.0815
      5 C5         15.1310    7.5961   -1.2934 C.ar      1 <0>        -0.1191
      6 C6         15.8594    8.7710   -1.2936 C.ar      1 <0>        -0.1182
      7 C7         13.9723    5.7283   -0.0959 C.3       1 <0>        -0.0827
      8 C8         12.4788    6.0601   -0.0804 C.3       1 <0>        -0.1132
      9 C9         11.6680    4.7626   -0.0802 C.3       1 <0>        -0.1206
     10 C10        10.1745    5.0944   -0.0647 C.3       1 <0>        -0.1198
     11 C11         9.3638    3.7969   -0.0645 C.3       1 <0>        -0.1162
     12 C12         7.8703    4.1287   -0.0490 C.3       1 <0>        -0.1287
     13 C13         7.0717    2.8507   -0.0488 C.2       1 <0>         0.4496
     14 O1          7.6414    1.7794   -0.0599 O.2       1 <0>        -0.4203
     15 C14         5.6076    2.9018   -0.0351 C.2       1 <0>         0.1101
     16 N1          4.8813    4.0000   -0.0219 N.2       1 <0>        -0.4181
     17 C15         3.5948    3.6676   -0.0177 C.2       1 <0>         0.0189
     18 C16         3.5211    2.2906   -0.0189 C.2       1 <0>         0.0180
     19 O2          4.7884    1.8333   -0.0335 O.3       1 <0>        -0.1604
     20 C17         2.2904    1.4744   -0.0120 C.ar      1 <0>         0.1894
     21 C18         2.3828    0.0814   -0.0203 C.ar      1 <0>        -0.1443
     22 C19         1.2202   -0.6691   -0.0132 C.ar      1 <0>        -0.0695
     23 C20         0.0021   -0.0041    0.0020 C.ar      1 <0>        -0.1588
     24 C21        -0.0167    1.3796    0.0096 C.ar      1 <0>         0.1126
     25 N2          1.1034    2.0715    0.0026 N.ar      1 <0>        -0.4629
     26 H1         16.8084   10.2667   -0.0967 H         1 <0>         0.1206
     27 H2         16.1756    9.2107    2.0358 H         1 <0>         0.1212
     28 H3         14.8705    7.1227    2.0362 H         1 <0>         0.1205
     29 H4         14.8401    7.1410   -2.2286 H         1 <0>         0.1205
     30 H5         16.1372    9.2340   -2.2289 H         1 <0>         0.1212
     31 H6         14.2236    5.1430    0.7886 H         1 <0>         0.0720
     32 H7         14.2074    5.1529   -0.9913 H         1 <0>         0.0720
     33 H8         12.2274    6.6455   -0.9649 H         1 <0>         0.0636
     34 H9         12.2437    6.6356    0.8149 H         1 <0>         0.0637
     35 H10        11.9194    4.1773    0.8043 H         1 <0>         0.0640
     36 H11        11.9031    4.1872   -0.9756 H         1 <0>         0.0638
     37 H12         9.9232    5.6798   -0.9492 H         1 <0>         0.0658
     38 H13         9.9395    5.6699    0.8307 H         1 <0>         0.0661
     39 H14         9.6151    3.2116    0.8200 H         1 <0>         0.0727
     40 H15         9.5988    3.2215   -0.9598 H         1 <0>         0.0723
     41 H16         7.6397    4.6657   -0.8605 H         1 <0>         0.1005
     42 H17         7.6352    4.7042    0.8464 H         1 <0>         0.1128
     43 H18         2.7589    4.3515   -0.0115 H         1 <0>         0.2054
     44 H19         3.3477   -0.4035   -0.0326 H         1 <0>         0.1420
     45 H20         1.2599   -1.7483   -0.0198 H         1 <0>         0.1446
     46 H21        -0.9229   -0.5615    0.0082 H         1 <0>         0.1447
     47 H22        -0.9634    1.8992    0.0169 H         1 <0>         0.1693
@<TRIPOS>BOND
     1    1    6 ar
     2    1    2 ar
     3    1   26 1
     4    2    3 ar
     5    2   27 1
     6    3    4 ar
     7    3   28 1
     8    4    5 ar
     9    4    7 1
    10    5    6 ar
    11    5   29 1
    12    6   30 1
    13    7    8 1
    14    7   31 1
    15    7   32 1
    16    8    9 1
    17    8   33 1
    18    8   34 1
    19    9   10 1
    20    9   35 1
    21    9   36 1
    22   10   11 1
    23   10   37 1
    24   10   38 1
    25   11   12 1
    26   11   39 1
    27   11   40 1
    28   12   13 1
    29   12   41 1
    30   12   42 1
    31   13   14 2
    32   13   15 1
    33   15   19 1
    34   15   16 2
    35   16   17 1
    36   17   18 2
    37   17   43 1
    38   18   19 1
    39   18   20 1
    40   20   25 ar
    41   20   21 ar
    42   21   22 ar
    43   21   44 1
    44   22   23 ar
    45   22   45 1
    46   23   24 ar
    47   23   46 1
    48   24   25 ar
    49   24   47 1
@<TRIPOS>MOLECULE
ZINC01602735
   32    33     0     0     0
SMALL
USER_CHARGES
1,4-diphenylbutane-2,3-dione
@<TRIPOS>ATOM
      1 C1         -2.0785    2.5007   -3.4529 C.ar      1 <0>        -0.1164
      2 C2         -1.0663    3.2585   -2.8942 C.ar      1 <0>        -0.1174
      3 C3         -0.3980    2.8008   -1.7740 C.ar      1 <0>        -0.1070
      4 C4         -0.7416    1.5850   -1.2129 C.ar      1 <0>        -0.0857
      5 C5         -1.7499    0.8246   -1.7750 C.ar      1 <0>        -0.1076
      6 C6         -2.4217    1.2848   -2.8921 C.ar      1 <0>        -0.1171
      7 C7         -0.0127    1.0858    0.0080 C.3       1 <0>        -0.1123
      8 C8         -0.7181    1.5718    1.2479 C.2       1 <0>         0.3212
      9 O1         -1.7105    2.2534    1.1502 O.2       1 <0>        -0.3914
     10 C9         -0.1926    1.2124    2.5911 C.2       1 <0>         0.3211
     11 O2          0.7999    0.5308    2.6888 O.2       1 <0>        -0.3915
     12 C10        -0.8979    1.6984    3.8310 C.3       1 <0>        -0.1123
     13 C11        -0.1691    1.1992    5.0518 C.ar      1 <0>        -0.0857
     14 C12        -0.5164   -0.0139    5.6163 C.ar      1 <0>        -0.1071
     15 C13         0.1554   -0.4741    6.7334 C.ar      1 <0>        -0.1173
     16 C14         1.1679    0.2835    7.2919 C.ar      1 <0>        -0.1164
     17 C15         1.5114    1.4993    6.7308 C.ar      1 <0>        -0.1171
     18 C16         0.8431    1.9570    5.6106 C.ar      1 <0>        -0.1076
     19 H1         -2.6009    2.8585   -4.3278 H         1 <0>         0.1235
     20 H2         -0.7979    4.2083   -3.3326 H         1 <0>         0.1242
     21 H3          0.3927    3.3928   -1.3375 H         1 <0>         0.1212
     22 H4         -2.0153   -0.1273   -1.3392 H         1 <0>         0.1209
     23 H5         -3.2122    0.6925   -3.3288 H         1 <0>         0.1242
     24 H6          0.0009    0.0859    0.0025 H         1 <0>         0.1036
     25 H7          1.0099    1.4631    0.0003 H         1 <0>         0.1162
     26 H8         -0.9114    2.6983    3.8365 H         1 <0>         0.1037
     27 H9         -1.9205    1.3211    3.8387 H         1 <0>         0.1162
     28 H10        -1.3101   -0.6039    5.1824 H         1 <0>         0.1212
     29 H11        -0.1132   -1.4237    7.1720 H         1 <0>         0.1242
     30 H12         1.6902   -0.0743    8.1668 H         1 <0>         0.1235
     31 H13         2.3021    2.0914    7.1673 H         1 <0>         0.1242
     32 H14         1.1114    2.9069    5.1723 H         1 <0>         0.1208
@<TRIPOS>BOND
     1    1    6 ar
     2    1    2 ar
     3    1   19 1
     4    2    3 ar
     5    2   20 1
     6    3    4 ar
     7    3   21 1
     8    4    5 ar
     9    4    7 1
    10    5    6 ar
    11    5   22 1
    12    6   23 1
    13    7    8 1
    14    7   24 1
    15    7   25 1
    16    8    9 2
    17    8   10 1
    18   10   11 2
    19   10   12 1
    20   12   13 1
    21   12   26 1
    22   12   27 1
    23   13   18 ar
    24   13   14 ar
    25   14   15 ar
    26   14   28 1
    27   15   16 ar
    28   15   29 1
    29   16   17 ar
    30   16   30 1
    31   17   18 ar
    32   17   31 1
    33   18   32 1
@<TRIPOS>MOLECULE
ZINC04265681
   32    33     0     0     0
SMALL
USER_CHARGES

@<TRIPOS>ATOM
      1 C1         -0.0167    1.3781    0.0096 C.ar      1 <0>        -0.1031
      2 C2          1.1709    2.0855    0.0021 C.ar      1 <0>        -0.1175
      3 C3          2.3773    1.4107   -0.0130 C.ar      1 <0>        -0.0922
      4 C4          2.3960    0.0285   -0.0201 C.ar      1 <0>        -0.0986
      5 C5          1.2084   -0.6789   -0.0117 C.ar      1 <0>        -0.1016
      6 C6          0.0021   -0.0041    0.0020 C.ar      1 <0>        -0.1145
      7 C7          3.7112   -0.7071   -0.0376 C.3       1 <0>        -0.0555
      8 H1          4.5290    0.0085    0.0470 H         1 <0>         0.1460
      9 C8          3.8429   -1.4700   -1.3305 C.2       1 <0>         0.3284
     10 O1          4.4337   -0.9801   -2.2633 O.2       1 <0>        -0.3531
     11 C9          3.2458   -2.8252   -1.4580 C.2       1 <0>         0.3285
     12 O2          2.6550   -3.3150   -0.5253 O.2       1 <0>        -0.3530
     13 C10         3.3776   -3.5880   -2.7510 C.3       1 <0>        -0.0556
     14 H2          3.3008   -4.6569   -2.5517 H         1 <0>         0.1460
     15 C11         2.2776   -3.1726   -3.6937 C.ar      1 <0>        -0.0987
     16 C12         2.2355   -1.8791   -4.1794 C.ar      1 <0>        -0.1016
     17 C13         1.2266   -1.4980   -5.0441 C.ar      1 <0>        -0.1145
     18 C14         0.2600   -2.4105   -5.4234 C.ar      1 <0>        -0.1031
     19 C15         0.3027   -3.7043   -4.9385 C.ar      1 <0>        -0.1175
     20 C16         1.3141   -4.0866   -4.0771 C.ar      1 <0>        -0.0921
     21 Br1         5.1228   -3.1973   -3.5675 Br        1 <0>        -0.0868
     22 Br2         3.7800   -1.9625    1.4739 Br        1 <0>        -0.0868
     23 H3         -0.9591    1.9053    0.0259 H         1 <0>         0.1278
     24 H4          1.1563    3.1654    0.0076 H         1 <0>         0.1299
     25 H5          3.3051    1.9634   -0.0196 H         1 <0>         0.1289
     26 H6          1.2231   -1.7588   -0.0179 H         1 <0>         0.1334
     27 H7         -0.9258   -0.5567    0.0082 H         1 <0>         0.1283
     28 H8          2.9907   -1.1661   -3.8830 H         1 <0>         0.1335
     29 H9          1.1933   -0.4872   -5.4230 H         1 <0>         0.1283
     30 H10        -0.5286   -2.1126   -6.0985 H         1 <0>         0.1278
     31 H11        -0.4527   -4.4172   -5.2345 H         1 <0>         0.1299
     32 H12         1.3495   -5.0984   -3.7011 H         1 <0>         0.1289
@<TRIPOS>BOND
     1    1    6 ar
     2    1    2 ar
     3    1   23 1
     4    2    3 ar
     5    2   24 1
     6    3    4 ar
     7    3   25 1
     8    4    5 ar
     9    4    7 1
    10    5    6 ar
    11    5   26 1
    12    6   27 1
    13    7    8 1
    14    7    9 1
    15    7   22 1
    16    9   10 2
    17    9   11 1
    18   11   12 2
    19   11   13 1
    20   13   14 1
    21   13   15 1
    22   13   21 1
    23   15   20 ar
    24   15   16 ar
    25   16   17 ar
    26   16   28 1
    27   17   18 ar
    28   17   29 1
    29   18   19 ar
    30   18   30 1
    31   19   20 ar
    32   19   31 1
    33   20   32 1
@<TRIPOS>MOLECULE
ZINC04265684
   32    33     0     0     0
SMALL
USER_CHARGES
1,4-dibromo-1,4-diphenyl-butane-2,3-dione
@<TRIPOS>ATOM
      1 C1         -2.0114    2.4634    3.5230 C.ar      1 <0>        -0.1013
      2 C2         -1.9597    1.1107    3.2425 C.ar      1 <0>        -0.1177
      3 C3         -1.3126    0.6649    2.1052 C.ar      1 <0>        -0.0870
      4 C4         -0.7181    1.5718    1.2479 C.ar      1 <0>        -0.1039
      5 C5         -0.7657    2.9241    1.5308 C.ar      1 <0>        -0.0955
      6 C6         -1.4165    3.3702    2.6659 C.ar      1 <0>        -0.1158
      7 C7         -0.0127    1.0858    0.0080 C.3       1 <0>        -0.0401
      8 H1          0.0009    0.0859    0.0025 H         1 <0>         0.1282
      9 C8         -0.7416    1.5850   -1.2129 C.2       1 <0>         0.3347
     10 O1         -0.3828    2.6022   -1.7566 O.2       1 <0>        -0.3616
     11 C9         -1.9020    0.8257   -1.7480 C.2       1 <0>         0.3347
     12 O2         -2.2608   -0.1914   -1.2042 O.2       1 <0>        -0.3616
     13 C10        -2.6309    1.3249   -2.9689 C.3       1 <0>        -0.0401
     14 H2         -1.9787    1.7524   -3.5949 H         1 <0>         0.1282
     15 C11        -3.6681    2.3372   -2.5558 C.ar      1 <0>        -0.1039
     16 C12        -4.7411    1.9484   -1.7758 C.ar      1 <0>        -0.0955
     17 C13        -5.6902    2.8779   -1.3933 C.ar      1 <0>        -0.1158
     18 C14        -5.5713    4.1941   -1.7987 C.ar      1 <0>        -0.1013
     19 C15        -4.5008    4.5818   -2.5827 C.ar      1 <0>        -0.1177
     20 C16        -3.5495    3.6533   -2.9617 C.ar      1 <0>        -0.0871
     21 Br1        -3.5109   -0.1848   -3.8697 Br        1 <0>        -0.0874
     22 Br2         1.8317    1.7663   -0.0059 Br        1 <0>        -0.0874
     23 H3         -2.5170    2.8117    4.4115 H         1 <0>         0.1282
     24 H4         -2.4245    0.4023    3.9121 H         1 <0>         0.1304
     25 H5         -1.2719   -0.3918    1.8863 H         1 <0>         0.1306
     26 H6         -0.2973    3.6322    0.8634 H         1 <0>         0.1290
     27 H7         -1.4572    4.4270    2.8848 H         1 <0>         0.1292
     28 H8         -4.8361    0.9193   -1.4625 H         1 <0>         0.1290
     29 H9         -6.5263    2.5750   -0.7805 H         1 <0>         0.1292
     30 H10        -6.3146    4.9195   -1.5027 H         1 <0>         0.1282
     31 H11        -4.4080    5.6101   -2.8995 H         1 <0>         0.1304
     32 H12        -2.7133    3.9562   -3.5745 H         1 <0>         0.1306
@<TRIPOS>BOND
     1    1    6 ar
     2    1    2 ar
     3    1   23 1
     4    2    3 ar
     5    2   24 1
     6    3    4 ar
     7    3   25 1
     8    4    5 ar
     9    4    7 1
    10    5    6 ar
    11    5   26 1
    12    6   27 1
    13    7    8 1
    14    7    9 1
    15    7   22 1
    16    9   10 2
    17    9   11 1
    18   11   12 2
    19   11   13 1
    20   13   14 1
    21   13   15 1
    22   13   21 1
    23   15   20 ar
    24   15   16 ar
    25   16   17 ar
    26   16   28 1
    27   17   18 ar
    28   17   29 1
    29   18   19 ar
    30   18   30 1
    31   19   20 ar
    32   19   31 1
    33   20   32 1
@<TRIPOS>MOLECULE
ZINC04265685
   32    33     0     0     0
SMALL
USER_CHARGES
1,4-dibromo-1,4-diphenyl-butane-2,3-dione
@<TRIPOS>ATOM
      1 C1          0.0399   -2.7685   -0.0133 C.ar      1 <0>        -0.1020
      2 C2         -0.4861   -2.0784   -1.0895 C.ar      1 <0>        -0.1173
      3 C3         -0.5048   -0.6962   -1.0819 C.ar      1 <0>        -0.0919
      4 C4          0.0021   -0.0041    0.0020 C.ar      1 <0>        -0.1028
      5 C5          0.5328   -0.6940    1.0759 C.ar      1 <0>        -0.1003
      6 C6          0.5476   -2.0763    1.0702 C.ar      1 <0>        -0.1140
      7 C7         -0.0184    1.5028    0.0103 C.3       1 <0>        -0.0430
      8 H1         -0.5021    1.8340   -0.7998 H         1 <0>         0.1291
      9 C8          1.3954    2.0244   -0.0004 C.2       1 <0>         0.3438
     10 O1          1.9205    2.3246   -1.0459 O.2       1 <0>        -0.3717
     11 C9          2.1438    2.1695    1.2757 C.2       1 <0>         0.3179
     12 O2          1.6187    1.8693    2.3212 O.2       1 <0>        -0.3420
     13 C10         3.5576    2.6911    1.2650 C.3       1 <0>        -0.0397
     14 H2          3.6537    3.3789    0.5455 H         1 <0>         0.1252
     15 C11         4.5107    1.5536    1.0031 C.ar      1 <0>        -0.1023
     16 C12         4.6371    0.5315    1.9252 C.ar      1 <0>        -0.0959
     17 C13         5.5082   -0.5141    1.6828 C.ar      1 <0>        -0.1157
     18 C14         6.2599   -0.5328    0.5229 C.ar      1 <0>        -0.1022
     19 C15         6.1371    0.4917   -0.3970 C.ar      1 <0>        -0.1178
     20 C16         5.2628    1.5351   -0.1567 C.ar      1 <0>        -0.0887
     21 Br1         3.9696    3.5034    3.0073 Br        1 <0>        -0.0878
     22 Br2        -0.9386    2.1368    1.6278 Br        1 <0>        -0.0792
     23 H3          0.0539   -3.8484   -0.0190 H         1 <0>         0.1284
     24 H4         -0.8827   -2.6192   -1.9360 H         1 <0>         0.1303
     25 H5         -0.9157   -0.1571   -1.9227 H         1 <0>         0.1287
     26 H6          0.9328   -0.1532    1.9208 H         1 <0>         0.1350
     27 H7          0.9582   -2.6154    1.9111 H         1 <0>         0.1293
     28 H8          4.0528    0.5482    2.8333 H         1 <0>         0.1299
     29 H9          5.6040   -1.3148    2.4013 H         1 <0>         0.1292
     30 H10         6.9430   -1.3481    0.3351 H         1 <0>         0.1279
     31 H11         6.7244    0.4771   -1.3032 H         1 <0>         0.1299
     32 H12         5.1670    2.3358   -0.8752 H         1 <0>         0.1296
@<TRIPOS>BOND
     1    1    6 ar
     2    1    2 ar
     3    1   23 1
     4    2    3 ar
     5    2   24 1
     6    3    4 ar
     7    3   25 1
     8    4    5 ar
     9    4    7 1
    10    5    6 ar
    11    5   26 1
    12    6   27 1
    13    7    8 1
    14    7    9 1
    15    7   22 1
    16    9   10 2
    17    9   11 1
    18   11   12 2
    19   11   13 1
    20   13   14 1
    21   13   15 1
    22   13   21 1
    23   15   20 ar
    24   15   16 ar
    25   16   17 ar
    26   16   28 1
    27   17   18 ar
    28   17   29 1
    29   18   19 ar
    30   18   30 1
    31   19   20 ar
    32   19   31 1
    33   20   32 1
@<TRIPOS>MOLECULE
ZINC03844702
   32    33     0     0     0
SMALL
USER_CHARGES
1-bromo-1,4-diphenyl-butane-2,3-dione
@<TRIPOS>ATOM
      1 C1         -0.0167    1.3781    0.0096 C.ar      1 <0>        -0.1154
      2 C2          1.1709    2.0855    0.0021 C.ar      1 <0>        -0.1170
      3 C3          2.3773    1.4107   -0.0141 C.ar      1 <0>        -0.1050
      4 C4          2.3960    0.0285   -0.0212 C.ar      1 <0>        -0.0845
      5 C5          1.2084   -0.6789   -0.0136 C.ar      1 <0>        -0.1055
      6 C6          0.0021   -0.0041    0.0020 C.ar      1 <0>        -0.1174
      7 C7          3.7112   -0.7071   -0.0378 C.3       1 <0>        -0.1073
      8 C8          4.1359   -0.9447   -1.4640 C.2       1 <0>         0.3130
      9 O1          3.4422   -0.5566   -2.3734 O.2       1 <0>        -0.3617
     10 C9          5.4087   -1.6567   -1.7517 C.2       1 <0>         0.3339
     11 O2          6.1025   -2.0448   -0.8423 O.2       1 <0>        -0.3799
     12 C10         5.8335   -1.8943   -3.1779 C.3       1 <0>        -0.0466
     13 H1          6.8277   -1.9939   -3.2174 H         1 <0>         0.1257
     14 C11         5.1818   -3.1515   -3.6934 C.ar      1 <0>        -0.1010
     15 C12         3.8073   -3.2128   -3.8268 C.ar      1 <0>        -0.1021
     16 C13         3.2098   -4.3646   -4.3037 C.ar      1 <0>        -0.1156
     17 C14         3.9862   -5.4582   -4.6386 C.ar      1 <0>        -0.1036
     18 C15         5.3603   -5.3987   -4.5002 C.ar      1 <0>        -0.1177
     19 C16         5.9581   -4.2454   -4.0274 C.ar      1 <0>        -0.0934
     20 Br1         5.2831   -0.3682   -4.2885 Br        1 <0>        -0.0832
     21 H2         -0.9592    1.9054    0.0170 H         1 <0>         0.1230
     22 H3          1.1563    3.1654    0.0081 H         1 <0>         0.1238
     23 H4          3.3051    1.9634   -0.0204 H         1 <0>         0.1210
     24 H5          1.2231   -1.7588   -0.0196 H         1 <0>         0.1209
     25 H6         -0.9258   -0.5567    0.0079 H         1 <0>         0.1237
     26 H7          4.4052   -0.1597    0.4299 H         1 <0>         0.1032
     27 H8          3.5987   -1.6640    0.4720 H         1 <0>         0.1161
     28 H9          3.2004   -2.3597   -3.5616 H         1 <0>         0.1370
     29 H10         2.1363   -4.4109   -4.4121 H         1 <0>         0.1291
     30 H11         3.5192   -6.3589   -5.0087 H         1 <0>         0.1281
     31 H12         5.9669   -6.2531   -4.7618 H         1 <0>         0.1300
     32 H13         7.0317   -4.1990   -3.9193 H         1 <0>         0.1283
@<TRIPOS>BOND
     1    1    6 ar
     2    1    2 ar
     3    1   21 1
     4    2    3 ar
     5    2   22 1
     6    3    4 ar
     7    3   23 1
     8    4    5 ar
     9    4    7 1
    10    5    6 ar
    11    5   24 1
    12    6   25 1
    13    7    8 1
    14    7   26 1
    15    7   27 1
    16    8    9 2
    17    8   10 1
    18   10   11 2
    19   10   12 1
    20   12   13 1
    21   12   14 1
    22   12   20 1
    23   14   19 ar
    24   14   15 ar
    25   15   16 ar
    26   15   28 1
    27   16   17 ar
    28   16   29 1
    29   17   18 ar
    30   17   30 1
    31   18   19 ar
    32   18   31 1
    33   19   32 1
@<TRIPOS>MOLECULE
ZINC03844703
   32    33     0     0     0
SMALL
USER_CHARGES
1-bromo-1,4-diphenyl-butane-2,3-dione
@<TRIPOS>ATOM
      1 C1         -1.4714    4.8118    6.8459 C.ar      1 <0>        -0.1149
      2 C2         -0.7064    3.6754    6.6608 C.ar      1 <0>        -0.1170
      3 C3          0.2618    3.6470    5.6746 C.ar      1 <0>        -0.1059
      4 C4          0.4652    4.7552    4.8737 C.ar      1 <0>        -0.0872
      5 C5         -0.2959    5.8936    5.0625 C.ar      1 <0>        -0.1059
      6 C6         -1.2679    5.9200    6.0450 C.ar      1 <0>        -0.1172
      7 C7          1.5210    4.7244    3.7987 C.3       1 <0>        -0.1075
      8 C8          0.9154    4.2205    2.5141 C.2       1 <0>         0.3307
      9 O1         -0.2533    3.9176    2.4754 O.2       1 <0>        -0.3828
     10 C9          1.7561    4.0963    1.2946 C.2       1 <0>         0.3248
     11 O2          2.9248    4.3992    1.3333 O.2       1 <0>        -0.3693
     12 C10         1.1505    3.5924    0.0099 C.3       1 <0>        -0.0434
     13 H1          0.2061    3.9134   -0.0618 H         1 <0>         0.1265
     14 C11         1.1709    2.0855    0.0021 C.ar      1 <0>        -0.1019
     15 C12        -0.0167    1.3781    0.0096 C.ar      1 <0>        -0.0874
     16 C13         0.0021   -0.0041    0.0020 C.ar      1 <0>        -0.1181
     17 C14         1.2084   -0.6789   -0.0136 C.ar      1 <0>        -0.1029
     18 C15         2.3961    0.0285   -0.0212 C.ar      1 <0>        -0.1167
     19 C16         2.3773    1.4107   -0.0136 C.ar      1 <0>        -0.0979
     20 Br1         2.1904    4.2698   -1.5148 Br        1 <0>        -0.0937
     21 H2         -2.2283    4.8338    7.6160 H         1 <0>         0.1238
     22 H3         -0.8654    2.8096    7.2866 H         1 <0>         0.1244
     23 H4          0.8594    2.7592    5.5299 H         1 <0>         0.1209
     24 H5         -0.1339    6.7609    4.4397 H         1 <0>         0.1220
     25 H6         -1.8658    6.8077    6.1894 H         1 <0>         0.1247
     26 H7          2.2637    4.1159    4.0783 H         1 <0>         0.1054
     27 H8          1.9131    5.7299    3.6457 H         1 <0>         0.1193
     28 H9         -0.9592    1.9054    0.0170 H         1 <0>         0.1300
     29 H10        -0.9258   -0.5567    0.0079 H         1 <0>         0.1300
     30 H11         1.2231   -1.7588   -0.0196 H         1 <0>         0.1281
     31 H12         3.3386   -0.4987   -0.0327 H         1 <0>         0.1294
     32 H13         3.3052    1.9634   -0.0192 H         1 <0>         0.1295
@<TRIPOS>BOND
     1    1    6 ar
     2    1    2 ar
     3    1   21 1
     4    2    3 ar
     5    2   22 1
     6    3    4 ar
     7    3   23 1
     8    4    5 ar
     9    4    7 1
    10    5    6 ar
    11    5   24 1
    12    6   25 1
    13    7    8 1
    14    7   26 1
    15    7   27 1
    16    8    9 2
    17    8   10 1
    18   10   11 2
    19   10   12 1
    20   12   13 1
    21   12   14 1
    22   12   20 1
    23   14   19 ar
    24   14   15 ar
    25   15   16 ar
    26   15   28 1
    27   16   17 ar
    28   16   29 1
    29   17   18 ar
    30   17   30 1
    31   18   19 ar
    32   18   31 1
    33   19   32 1
@<TRIPOS>MOLECULE
ZINC01602517
   24    23     0     0     0
SMALL
USER_CHARGES
octane-4,5-dione
@<TRIPOS>ATOM
      1 C1         -3.8141    1.6763    0.0292 C.3       1 <0>        -0.1543
      2 C2         -2.4788    0.9294    0.0189 C.3       1 <0>        -0.1198
      3 C3         -1.3295    1.9394    0.0189 C.3       1 <0>        -0.1557
      4 C4         -0.0143    1.2037    0.0087 C.2       1 <0>         0.3180
      5 O1          0.0021   -0.0041    0.0020 O.2       1 <0>        -0.4032
      6 C5          1.2627    1.9643    0.0006 C.2       1 <0>         0.3180
      7 O2          1.2464    3.1721    0.0072 O.2       1 <0>        -0.4032
      8 C6          2.5779    1.2287   -0.0160 C.3       1 <0>        -0.1558
      9 C7          3.7272    2.2387   -0.0215 C.3       1 <0>        -0.1198
     10 C8          5.0624    1.4918   -0.0383 C.3       1 <0>        -0.1543
     11 H1         -3.8845    2.3070   -0.8570 H         1 <0>         0.0568
     12 H2         -4.6329    0.9568    0.0292 H         1 <0>         0.0602
     13 H3         -3.8761    2.2973    0.9229 H         1 <0>         0.0565
     14 H4         -2.4168    0.3085   -0.8748 H         1 <0>         0.0698
     15 H5         -2.4083    0.2988    0.9051 H         1 <0>         0.0695
     16 H6         -1.3864    2.5091    0.8388 H         1 <0>         0.0955
     17 H7         -1.3999    2.5700   -0.8673 H         1 <0>         0.1067
     18 H8          2.6465    0.6502    0.7968 H         1 <0>         0.0955
     19 H9          2.6356    0.6077   -0.9099 H         1 <0>         0.1066
     20 H10         3.6524    2.8692   -0.9074 H         1 <0>         0.0698
     21 H11         3.6694    2.8597    0.8724 H         1 <0>         0.0695
     22 H12         5.8811    2.2113   -0.0422 H         1 <0>         0.0602
     23 H13         5.1371    0.8612    0.8477 H         1 <0>         0.0565
     24 H14         5.1201    0.8707   -0.9322 H         1 <0>         0.0569
@<TRIPOS>BOND
     1    1    2 1
     2    1   11 1
     3    1   12 1
     4    1   13 1
     5    2    3 1
     6    2   14 1
     7    2   15 1
     8    3    4 1
     9    3   16 1
    10    3   17 1
    11    4    5 2
    12    4    6 1
    13    6    7 2
    14    6    8 1
    15    8    9 1
    16    8   18 1
    17    8   19 1
    18    9   10 1
    19    9   20 1
    20    9   21 1
    21   10   22 1
    22   10   23 1
    23   10   24 1
@<TRIPOS>MOLECULE
ZINC05510194
   30    29     0     0     0
SMALL
USER_CHARGES
decane-5,6-dione
@<TRIPOS>ATOM
      1 C1         -4.9634    0.6664    0.0292 C.3       1 <0>        -0.1540
      2 C2         -3.8141    1.6763    0.0292 C.3       1 <0>        -0.1256
      3 C3         -2.4788    0.9294    0.0189 C.3       1 <0>        -0.1158
      4 C4         -1.3295    1.9394    0.0189 C.3       1 <0>        -0.1557
      5 C5         -0.0143    1.2037    0.0087 C.2       1 <0>         0.3182
      6 O1          0.0021   -0.0041    0.0020 O.2       1 <0>        -0.4029
      7 C6          1.2627    1.9643    0.0006 C.2       1 <0>         0.3182
      8 O2          1.2464    3.1721    0.0072 O.2       1 <0>        -0.4029
      9 C7          2.5779    1.2287   -0.0160 C.3       1 <0>        -0.1557
     10 C8          3.7272    2.2387   -0.0215 C.3       1 <0>        -0.1158
     11 C9          5.0624    1.4918   -0.0383 C.3       1 <0>        -0.1256
     12 C10         6.2116    2.5017   -0.0438 C.3       1 <0>        -0.1540
     13 H1         -4.9014    0.0454   -0.8645 H         1 <0>         0.0550
     14 H2         -4.8929    0.0357    0.9155 H         1 <0>         0.0549
     15 H3         -5.9146    1.1985    0.0366 H         1 <0>         0.0560
     16 H4         -3.8761    2.2973    0.9229 H         1 <0>         0.0636
     17 H5         -3.8845    2.3070   -0.8570 H         1 <0>         0.0639
     18 H6         -2.4168    0.3085   -0.8748 H         1 <0>         0.0703
     19 H7         -2.4083    0.2988    0.9051 H         1 <0>         0.0700
     20 H8         -1.3864    2.5091    0.8388 H         1 <0>         0.0955
     21 H9         -1.3999    2.5700   -0.8673 H         1 <0>         0.1066
     22 H10         2.6465    0.6502    0.7968 H         1 <0>         0.0955
     23 H11         2.6356    0.6077   -0.9099 H         1 <0>         0.1066
     24 H12         3.6524    2.8692   -0.9074 H         1 <0>         0.0703
     25 H13         3.6694    2.8597    0.8724 H         1 <0>         0.0700
     26 H14         5.1371    0.8612    0.8477 H         1 <0>         0.0636
     27 H15         5.1201    0.8707   -0.9322 H         1 <0>         0.0639
     28 H16         6.1539    3.1228    0.8501 H         1 <0>         0.0549
     29 H17         7.1629    1.9696   -0.0558 H         1 <0>         0.0559
     30 H18         6.1369    3.1323   -0.9298 H         1 <0>         0.0550
@<TRIPOS>BOND
     1    1    2 1
     2    1   13 1
     3    1   14 1
     4    1   15 1
     5    2    3 1
     6    2   16 1
     7    2   17 1
     8    3    4 1
     9    3   18 1
    10    3   19 1
    11    4    5 1
    12    4   20 1
    13    4   21 1
    14    5    6 2
    15    5    7 1
    16    7    8 2
    17    7    9 1
    18    9   10 1
    19    9   22 1
    20    9   23 1
    21   10   11 1
    22   10   24 1
    23   10   25 1
    24   11   12 1
    25   11   26 1
    26   11   27 1
    27   12   28 1
    28   12   29 1
    29   12   30 1
@<TRIPOS>MOLECULE
ZINC01587825
   22    22     0     0     0
SMALL
USER_CHARGES

@<TRIPOS>ATOM
      1 C1          0.0353    1.5230   -0.0287 C.3       1 <0>        -0.1475
      2 C2          0.0298   -0.0069   -0.0185 C.3       1 <0>        -0.1660
      3 C3          0.7551   -0.5037    1.2056 C.2       1 <0>         0.3328
      4 O1          1.2276    0.2848    1.9891 O.2       1 <0>        -0.4041
      5 C4          0.8891   -1.9665    1.4492 C.2       1 <0>         0.3603
      6 O2          0.3343   -2.7575    0.7144 O.2       1 <0>        -0.4075
      7 C5          1.6956   -2.4542    2.5830 C.ar      1 <0>        -0.1814
      8 C6          2.2224   -1.5500    3.5117 C.ar      1 <0>        -0.0736
      9 C7          2.9755   -2.0138    4.5690 C.ar      1 <0>        -0.1386
     10 C8          3.2114   -3.3705    4.7130 C.ar      1 <0>        -0.0790
     11 C9          2.6936   -4.2717    3.7983 C.ar      1 <0>        -0.1385
     12 C10         1.9333   -3.8242    2.7391 C.ar      1 <0>        -0.0559
     13 H1          1.0641    1.8826   -0.0451 H         1 <0>         0.0625
     14 H2         -0.4893    1.8823   -0.9141 H         1 <0>         0.0679
     15 H3         -0.4651    1.8941    0.8656 H         1 <0>         0.0625
     16 H4         -0.9990   -0.3665   -0.0021 H         1 <0>         0.1089
     17 H5          0.5302   -0.3781   -0.9129 H         1 <0>         0.1077
     18 H6          2.0398   -0.4914    3.4003 H         1 <0>         0.1628
     19 H7          3.3828   -1.3171    5.2867 H         1 <0>         0.1314
     20 H8          3.8028   -3.7277    5.5431 H         1 <0>         0.1292
     21 H9          2.8821   -5.3284    3.9175 H         1 <0>         0.1315
     22 H10         1.5260   -4.5287    2.0291 H         1 <0>         0.1345
@<TRIPOS>BOND
     1    1    2 1
     2    1   13 1
     3    1   14 1
     4    1   15 1
     5    2    3 1
     6    2   16 1
     7    2   17 1
     8    3    4 2
     9    3    5 1
    10    5    6 2
    11    5    7 1
    12    7   12 ar
    13    7    8 ar
    14    8    9 ar
    15    8   18 1
    16    9   10 ar
    17    9   19 1
    18   10   11 ar
    19   10   20 1
    20   11   12 ar
    21   11   21 1
    22   12   22 1
@<TRIPOS>MOLECULE
ZINC34596664
   25    25     0     0     0
SMALL
USER_CHARGES

@<TRIPOS>ATOM
      1 C1          0.0473    1.5312    0.0381 C.3       1 <0>        -0.1541
      2 C2          0.0625    0.0013    0.0298 C.3       1 <0>        -0.1183
      3 C3          0.7502   -0.4949   -1.2437 C.3       1 <0>        -0.1632
      4 C4          0.7652   -2.0018   -1.2519 C.2       1 <0>         0.3337
      5 O1          0.2762   -2.6157   -0.3338 O.2       1 <0>        -0.4041
      6 C5          1.3828   -2.7340   -2.3920 C.2       1 <0>         0.3603
      7 O2          1.7890   -2.1215   -3.3580 O.2       1 <0>        -0.4073
      8 C6          1.5008   -4.2030   -2.3475 C.ar      1 <0>        -0.1813
      9 C7          0.9124   -4.9244   -1.3029 C.ar      1 <0>        -0.0735
     10 C8          1.0273   -6.2976   -1.2684 C.ar      1 <0>        -0.1386
     11 C9          1.7230   -6.9631   -2.2635 C.ar      1 <0>        -0.0790
     12 C10         2.3081   -6.2563   -3.3005 C.ar      1 <0>        -0.1385
     13 C11         2.1969   -4.8833   -3.3526 C.ar      1 <0>        -0.0558
     14 H1          1.0708    1.9049    0.0087 H         1 <0>         0.0567
     15 H2         -0.4972    1.8939   -0.8337 H         1 <0>         0.0568
     16 H3         -0.4426    1.8848    0.9454 H         1 <0>         0.0598
     17 H4          0.6070   -0.3614    0.9016 H         1 <0>         0.0699
     18 H5         -0.9610   -0.3724    0.0592 H         1 <0>         0.0699
     19 H6          0.2057   -0.1322   -2.1156 H         1 <0>         0.1093
     20 H7          1.7737   -0.1212   -1.2732 H         1 <0>         0.1081
     21 H8          0.3700   -4.4067   -0.5256 H         1 <0>         0.1629
     22 H9          0.5737   -6.8559   -0.4628 H         1 <0>         0.1313
     23 H10         1.8101   -8.0390   -2.2305 H         1 <0>         0.1292
     24 H11         2.8491   -6.7826   -4.0729 H         1 <0>         0.1315
     25 H12         2.6496   -4.3339   -4.1647 H         1 <0>         0.1344
@<TRIPOS>BOND
     1    1    2 1
     2    1   14 1
     3    1   15 1
     4    1   16 1
     5    2    3 1
     6    2   17 1
     7    2   18 1
     8    3    4 1
     9    3   19 1
    10    3   20 1
    11    4    5 2
    12    4    6 1
    13    6    7 2
    14    6    8 1
    15    8   13 ar
    16    8    9 ar
    17    9   10 ar
    18    9   21 1
    19   10   11 ar
    20   10   22 1
    21   11   12 ar
    22   11   23 1
    23   12   13 ar
    24   12   24 1
    25   13   25 1
@<TRIPOS>MOLECULE
ZINC36448414
   28    28     0     0     0
SMALL
USER_CHARGES

@<TRIPOS>ATOM
      1 C1         -0.0076    1.5187    0.1134 C.3       1 <0>        -0.1542
      2 C2          0.0101   -0.0107    0.0730 C.3       1 <0>        -0.1253
      3 C3         -1.4263   -0.5376    0.0791 C.3       1 <0>        -0.1143
      4 C4         -1.4086   -2.0670    0.0387 C.3       1 <0>        -0.1631
      5 C5         -2.8234   -2.5860    0.0447 C.2       1 <0>         0.3339
      6 O1         -3.7504   -1.8124    0.0779 O.2       1 <0>        -0.4039
      7 C6         -3.0786   -4.0526    0.0097 C.2       1 <0>         0.3603
      8 O2         -2.1526   -4.8268   -0.1190 O.2       1 <0>        -0.4073
      9 C7         -4.4560   -4.5644    0.1314 C.ar      1 <0>        -0.1813
     10 C8         -5.5376   -3.6769    0.1413 C.ar      1 <0>        -0.0735
     11 C9         -6.8223   -4.1632    0.2554 C.ar      1 <0>        -0.1386
     12 C10        -7.0439   -5.5259    0.3606 C.ar      1 <0>        -0.0790
     13 C11        -5.9789   -6.4106    0.3516 C.ar      1 <0>        -0.1386
     14 C12        -4.6886   -5.9404    0.2318 C.ar      1 <0>        -0.0559
     15 H1          1.0157    1.8941    0.1091 H         1 <0>         0.0557
     16 H2         -0.5379    1.8991   -0.7596 H         1 <0>         0.0549
     17 H3         -0.5132    1.8524    1.0196 H         1 <0>         0.0548
     18 H4          0.5157   -0.3443   -0.8332 H         1 <0>         0.0639
     19 H5          0.5404   -0.3911    0.9460 H         1 <0>         0.0638
     20 H6         -1.9319   -0.2039    0.9853 H         1 <0>         0.0704
     21 H7         -1.9566   -0.1572   -0.7939 H         1 <0>         0.0704
     22 H8         -0.9031   -2.4007   -0.8675 H         1 <0>         0.1093
     23 H9         -0.8783   -2.4474    0.9117 H         1 <0>         0.1081
     24 H10        -5.3663   -2.6137    0.0601 H         1 <0>         0.1629
     25 H11        -7.6583   -3.4795    0.2632 H         1 <0>         0.1313
     26 H12        -8.0528   -5.9007    0.4505 H         1 <0>         0.1291
     27 H13        -6.1598   -7.4721    0.4340 H         1 <0>         0.1315
     28 H14        -3.8592   -6.6320    0.2200 H         1 <0>         0.1344
@<TRIPOS>BOND
     1    1    2 1
     2    1   15 1
     3    1   16 1
     4    1   17 1
     5    2    3 1
     6    2   18 1
     7    2   19 1
     8    3    4 1
     9    3   20 1
    10    3   21 1
    11    4    5 1
    12    4   22 1
    13    4   23 1
    14    5    6 2
    15    5    7 1
    16    7    8 2
    17    7    9 1
    18    9   14 ar
    19    9   10 ar
    20   10   11 ar
    21   10   24 1
    22   11   12 ar
    23   11   25 1
    24   12   13 ar
    25   12   26 1
    26   13   14 ar
    27   13   27 1
    28   14   28 1
@<TRIPOS>MOLECULE
ZINC05307767
   31    31     0     0     0
SMALL
USER_CHARGES

@<TRIPOS>ATOM
      1 C1          0.0813    1.5341    0.0528 C.3       1 <0>        -0.1544
      2 C2          0.0965    0.0042    0.0444 C.3       1 <0>        -0.1257
      3 C3          0.7842   -0.4920   -1.2291 C.3       1 <0>        -0.1211
      4 C4          0.7994   -2.0219   -1.2374 C.3       1 <0>        -0.1141
      5 C5          1.4870   -2.5181   -2.5109 C.3       1 <0>        -0.1628
      6 C6          1.5020   -4.0251   -2.5192 C.2       1 <0>         0.3339
      7 O1          1.0131   -4.6389   -1.6010 O.2       1 <0>        -0.4038
      8 C7          2.1197   -4.7572   -3.6592 C.2       1 <0>         0.3603
      9 O2          2.5259   -4.1447   -4.6252 O.2       1 <0>        -0.4072
     10 C8          2.2377   -6.2263   -3.6147 C.ar      1 <0>        -0.1812
     11 C9          1.6493   -6.9477   -2.5702 C.ar      1 <0>        -0.0735
     12 C10         1.7642   -8.3209   -2.5356 C.ar      1 <0>        -0.1385
     13 C11         2.4599   -8.9863   -3.5307 C.ar      1 <0>        -0.0791
     14 C12         3.0450   -8.2796   -4.5677 C.ar      1 <0>        -0.1385
     15 C13         2.9338   -6.9066   -4.6198 C.ar      1 <0>        -0.0560
     16 H1          1.1048    1.9078    0.0233 H         1 <0>         0.0539
     17 H2         -0.4632    1.8968   -0.8191 H         1 <0>         0.0539
     18 H3         -0.4086    1.8876    0.9600 H         1 <0>         0.0543
     19 H4          0.6410   -0.3585    0.9163 H         1 <0>         0.0619
     20 H5         -0.9270   -0.3695    0.0739 H         1 <0>         0.0619
     21 H6          0.2397   -0.1293   -2.1009 H         1 <0>         0.0643
     22 H7          1.8077   -0.1183   -1.2586 H         1 <0>         0.0642
     23 H8          1.3439   -2.3846   -0.3656 H         1 <0>         0.0704
     24 H9         -0.2241   -2.3956   -1.2080 H         1 <0>         0.0705
     25 H10         0.9426   -2.1555   -3.3828 H         1 <0>         0.1092
     26 H11         2.5106   -2.1444   -2.5404 H         1 <0>         0.1080
     27 H12         1.1069   -6.4300   -1.7929 H         1 <0>         0.1629
     28 H13         1.3106   -8.8792   -1.7300 H         1 <0>         0.1313
     29 H14         2.5470  -10.0623   -3.4977 H         1 <0>         0.1291
     30 H15         3.5860   -8.8058   -5.3402 H         1 <0>         0.1315
     31 H16         3.3865   -6.3571   -5.4319 H         1 <0>         0.1344
@<TRIPOS>BOND
     1    1    2 1
     2    1   16 1
     3    1   17 1
     4    1   18 1
     5    2    3 1
     6    2   19 1
     7    2   20 1
     8    3    4 1
     9    3   21 1
    10    3   22 1
    11    4    5 1
    12    4   23 1
    13    4   24 1
    14    5    6 1
    15    5   25 1
    16    5   26 1
    17    6    7 2
    18    6    8 1
    19    8    9 2
    20    8   10 1
    21   10   15 ar
    22   10   11 ar
    23   11   12 ar
    24   11   27 1
    25   12   13 ar
    26   12   28 1
    27   13   14 ar
    28   13   29 1
    29   14   15 ar
    30   14   30 1
    31   15   31 1
@<TRIPOS>MOLECULE
ZINC05705162
   38    41     0     0     0
SMALL
USER_CHARGES
1,2-bis(2-naphthyl)ethane-1,2-dione
@<TRIPOS>ATOM
      1 C1         -2.0952    4.6404   -4.8367 C.ar      1 <0>        -0.0973
      2 C2         -2.8078    4.4378   -3.6565 C.ar      1 <0>        -0.1188
      3 C3         -2.3489    4.9219   -2.4701 C.ar      1 <0>        -0.0924
      4 C4         -1.1434    5.6468   -2.4335 C.ar      1 <0>        -0.0710
      5 C5         -0.6457    6.1640   -1.2293 C.ar      1 <0>        -0.0185
      6 C6          0.5476    6.8754   -1.2336 C.ar      1 <0>        -0.1705
      7 C7          1.2542    7.0767   -2.4358 C.ar      1 <0>        -0.0786
      8 C8          0.7857    6.5823   -3.6082 C.ar      1 <0>        -0.1085
      9 C9         -0.4213    5.8573   -3.6363 C.ar      1 <0>        -0.0233
     10 C10        -0.9248    5.3373   -4.8392 C.ar      1 <0>        -0.1150
     11 C11         1.0780    7.4224    0.0273 C.2       1 <0>         0.3762
     12 O1          0.4264    7.3362    1.0481 O.2       1 <0>        -0.4153
     13 C12         2.4147    8.0816    0.0499 C.2       1 <0>         0.3769
     14 O2          3.4243    7.4088    0.0038 O.2       1 <0>        -0.4105
     15 C13         2.5108    9.5496    0.1281 C.ar      1 <0>        -0.1672
     16 C14         3.7715   10.1737    0.0479 C.ar      1 <0>        -0.0675
     17 C15         3.8838   11.5234    0.1125 C.ar      1 <0>        -0.1115
     18 C16         2.7339   12.3205    0.2726 C.ar      1 <0>        -0.0234
     19 C17         2.8283   13.7192    0.3482 C.ar      1 <0>        -0.1149
     20 C18         1.6992   14.4653    0.5033 C.ar      1 <0>        -0.0978
     21 C19         0.4461   13.8619    0.5896 C.ar      1 <0>        -0.1184
     22 C20         0.3146   12.5089    0.5208 C.ar      1 <0>        -0.0937
     23 C21         1.4586   11.7055    0.3603 C.ar      1 <0>        -0.0687
     24 C22         1.3583   10.3091    0.2863 C.ar      1 <0>        -0.0332
     25 H1         -2.4791    4.2425   -5.7645 H         1 <0>         0.1283
     26 H2         -3.7353    3.8852   -3.6829 H         1 <0>         0.1287
     27 H3         -2.9091    4.7541   -1.5621 H         1 <0>         0.1329
     28 H4         -1.1856    6.0113   -0.3064 H         1 <0>         0.1441
     29 H5          2.1807    7.6316   -2.4233 H         1 <0>         0.1283
     30 H6          1.3386    6.7449   -4.5215 H         1 <0>         0.1368
     31 H7         -0.3865    5.4895   -5.7630 H         1 <0>         0.1325
     32 H8          4.6589    9.5698   -0.0705 H         1 <0>         0.1379
     33 H9          4.8567   11.9875    0.0453 H         1 <0>         0.1372
     34 H10         3.7922   14.2018    0.2829 H         1 <0>         0.1325
     35 H11         1.7764   15.5410    0.5606 H         1 <0>         0.1282
     36 H12        -0.4332   14.4766    0.7131 H         1 <0>         0.1285
     37 H13        -0.6627   12.0544    0.5894 H         1 <0>         0.1319
     38 H14         0.3936    9.8281    0.3520 H         1 <0>         0.1352
@<TRIPOS>BOND
     1    1   10 ar
     2    1    2 ar
     3    1   25 1
     4    2    3 ar
     5    2   26 1
     6    3    4 ar
     7    3   27 1
     8    4    9 ar
     9    4    5 ar
    10    5    6 ar
    11    5   28 1
    12    6    7 ar
    13    6   11 1
    14    7    8 ar
    15    7   29 1
    16    8    9 ar
    17    8   30 1
    18    9   10 ar
    19   10   31 1
    20   11   12 2
    21   11   13 1
    22   13   14 2
    23   13   15 1
    24   15   24 ar
    25   15   16 ar
    26   16   17 ar
    27   16   32 1
    28   17   18 ar
    29   17   33 1
    30   18   23 ar
    31   18   19 ar
    32   19   20 ar
    33   19   34 1
    34   20   21 ar
    35   20   35 1
    36   21   22 ar
    37   21   36 1
    38   22   23 ar
    39   22   37 1
    40   23   24 ar
    41   24   38 1
@<TRIPOS>MOLECULE
ZINC01672966
   26    27     0     0     0
SMALL
USER_CHARGES
1,2-diphenylethane-1,2-dione
@<TRIPOS>ATOM
      1 C1          1.6146   -1.2472    3.6201 C.ar      1 <0>        -0.0783
      2 C2          2.8063   -0.5425    3.6076 C.ar      1 <0>        -0.1296
      3 C3          3.4876   -0.3543    2.4240 C.ar      1 <0>        -0.0651
      4 C4          2.9718   -0.8776    1.2335 C.ar      1 <0>        -0.1721
      5 C5          1.7671   -1.5885    1.2545 C.ar      1 <0>        -0.0527
      6 C6          1.0977   -1.7681    2.4462 C.ar      1 <0>        -0.1314
      7 C7          3.6938   -0.6805   -0.0367 C.2       1 <0>         0.3775
      8 O1          3.2958   -1.2164   -1.0505 O.2       1 <0>        -0.4140
      9 C8          4.9132    0.1773   -0.0760 C.2       1 <0>         0.3768
     10 O2          4.8068    1.3857   -0.0349 O.2       1 <0>        -0.4129
     11 C9          6.2481   -0.4425   -0.1649 C.ar      1 <0>        -0.1730
     12 C10         6.3714   -1.8282   -0.3125 C.ar      1 <0>        -0.0654
     13 C11         7.6229   -2.3996   -0.4001 C.ar      1 <0>        -0.1297
     14 C12         8.7560   -1.6072   -0.3308 C.ar      1 <0>        -0.0783
     15 C13         8.6424   -0.2358   -0.1794 C.ar      1 <0>        -0.1315
     16 C14         7.3979    0.3513   -0.0961 C.ar      1 <0>        -0.0531
     17 H1          1.0833   -1.3874    4.5498 H         1 <0>         0.1322
     18 H2          3.2032   -0.1392    4.5274 H         1 <0>         0.1338
     19 H3          4.4172    0.1953    2.4158 H         1 <0>         0.1280
     20 H4          1.3624   -1.9952    0.3395 H         1 <0>         0.1376
     21 H5          0.1674   -2.3164    2.4640 H         1 <0>         0.1344
     22 H6          5.4884   -2.4481   -0.3623 H         1 <0>         0.1292
     23 H7          7.7197   -3.4687   -0.5186 H         1 <0>         0.1338
     24 H8          9.7338   -2.0613   -0.3954 H         1 <0>         0.1321
     25 H9          9.5310    0.3758   -0.1268 H         1 <0>         0.1344
     26 H10         7.3108    1.4213    0.0224 H         1 <0>         0.1376
@<TRIPOS>BOND
     1    1    6 ar
     2    1    2 ar
     3    1   17 1
     4    2    3 ar
     5    2   18 1
     6    3    4 ar
     7    3   19 1
     8    4    5 ar
     9    4    7 1
    10    5    6 ar
    11    5   20 1
    12    6   21 1
    13    7    8 2
    14    7    9 1
    15    9   10 2
    16    9   11 1
    17   11   16 ar
    18   11   12 ar
    19   12   13 ar
    20   12   22 1
    21   13   14 ar
    22   13   23 1
    23   14   15 ar
    24   14   24 1
    25   15   16 ar
    26   15   25 1
    27   16   26 1
@<TRIPOS>MOLECULE
ZINC00132534
   21    22     0     0     0
SMALL
USER_CHARGES

@<TRIPOS>ATOM
      1 C1         -0.0163    1.3513    0.0095 C.2       1 <0>        -0.1404
      2 C2          1.1833    2.0380    0.0017 C.2       1 <0>        -0.2258
      3 C3          2.3426    1.3358   -0.0131 C.2       1 <0>        -0.0669
      4 S1          1.7535   -0.3495   -0.0166 S.3       1 <0>         0.0404
      5 C4          0.0021   -0.0041    0.0020 C.2       1 <0>        -0.2369
      6 C5          3.7608    1.8454   -0.0244 C.3       1 <0>         0.1946
      7 C6          4.3305    1.7760    1.3691 C.2       1 <0>         0.3954
      8 O1          5.1320    0.9095    1.6549 O.2       1 <0>        -0.4390
      9 C7          3.9324    2.7187    2.3425 C.2       1 <0>        -0.2440
     10 C8          4.3368    2.8341    3.6693 C.2       1 <0>        -0.1027
     11 C9          3.7688    3.8631    4.3763 C.2       1 <0>        -0.1831
     12 C10         2.8766    4.6777    3.7563 C.2       1 <0>        -0.2586
     13 S2          2.7868    4.0761    2.1903 S.3       1 <0>         0.2282
     14 O2          4.5496    1.0396   -0.9022 O.3       1 <0>        -0.8458
     15 H1         -0.9542    1.8866    0.0258 H         1 <0>         0.1167
     16 H2          1.1967    3.1179    0.0070 H         1 <0>         0.1229
     17 H3         -0.8275   -0.6955    0.0065 H         1 <0>         0.1704
     18 H4          3.7727    2.8788   -0.3707 H         1 <0>         0.0242
     19 H5          5.0513    2.1569    4.1135 H         1 <0>         0.1423
     20 H6          4.0275    4.0231    5.4126 H         1 <0>         0.1274
     21 H7          2.3487    5.5224    4.1734 H         1 <0>         0.1806
@<TRIPOS>BOND
     1    1    5 2
     2    1    2 1
     3    1   15 1
     4    2    3 2
     5    2   16 1
     6    3    4 1
     7    3    6 1
     8    4    5 1
     9    5   17 1
    10    6    7 1
    11    6   14 1
    12    6   18 1
    13    7    8 2
    14    7    9 1
    15    9   13 1
    16    9   10 2
    17   10   11 1
    18   10   19 1
    19   11   12 2
    20   11   20 1
    21   12   13 1
    22   12   21 1
@<TRIPOS>MOLECULE
ZINC00132537
   22    23     0     0     0
SMALL
USER_CHARGES
(2S)-2-hydroxy-1,2-bis(2-thienyl)ethanone
@<TRIPOS>ATOM
      1 C1         -0.2847    6.5720   -3.2524 C.2       1 <0>        -0.1607
      2 C2         -0.3485    6.1423   -1.9401 C.2       1 <0>        -0.1278
      3 C3         -1.5618    6.0063   -1.3513 C.2       1 <0>        -0.2024
      4 S1         -2.6664    6.5056   -2.6620 S.3       1 <0>         0.0671
      5 C4         -1.4367    6.8548   -3.9082 C.2       1 <0>        -0.1599
      6 C5         -1.8922    5.5567    0.0486 C.3       1 <0>         0.1760
      7 H1         -1.1120    5.7341    0.6485 H         1 <0>         0.1273
      8 C6         -2.1966    4.0808    0.0435 C.2       1 <0>         0.4144
      9 O1         -3.3493    3.6985    0.0519 O.2       1 <0>        -0.4303
     10 C7         -1.1414    3.1421    0.0289 C.2       1 <0>        -0.2834
     11 C8         -1.2038    1.7522    0.0172 C.2       1 <0>        -0.0494
     12 C9         -0.0126    1.0758    0.0080 C.2       1 <0>        -0.1871
     13 C10         1.1521    1.7797    0.0006 C.2       1 <0>        -0.1685
     14 S2          0.6194    3.4294    0.0139 S.3       1 <0>         0.1678
     15 O2         -3.0317    6.2764    0.5236 O.3       1 <0>        -0.5267
     16 H2          0.6691    6.6850   -3.7463 H         1 <0>         0.1401
     17 H3          0.5547    5.9157   -1.3931 H         1 <0>         0.1374
     18 H4         -1.5749    7.2017   -4.9216 H         1 <0>         0.1908
     19 H5         -2.1491    1.2299    0.0192 H         1 <0>         0.1494
     20 H6          0.0021   -0.0041    0.0020 H         1 <0>         0.1441
     21 H7          2.1638    1.4019   -0.0110 H         1 <0>         0.1947
     22 H8         -3.8272    6.1510   -0.0116 H         1 <0>         0.3870
@<TRIPOS>BOND
     1    1    5 2
     2    1    2 1
     3    1   16 1
     4    2    3 2
     5    2   17 1
     6    3    4 1
     7    3    6 1
     8    4    5 1
     9    5   18 1
    10    6    7 1
    11    6    8 1
    12    6   15 1
    13    8    9 2
    14    8   10 1
    15   10   14 1
    16   10   11 2
    17   11   12 1
    18   11   19 1
    19   12   13 2
    20   12   20 1
    21   13   14 1
    22   13   21 1
    23   15   22 1
@<TRIPOS>MOLECULE
ZINC00000076
   28    29     0     0     0
SMALL
USER_CHARGES

@<TRIPOS>ATOM
      1 C1         -0.6561    0.1979    0.6253 C.ar      1 <0>        -0.1115
      2 C2          0.2575    1.2235    0.4695 C.ar      1 <0>        -0.1157
      3 C3          1.5964    0.9342    0.2837 C.ar      1 <0>        -0.1028
      4 C4          2.0218   -0.3808    0.2543 C.ar      1 <0>        -0.1199
      5 C5          1.1083   -1.4064    0.4110 C.ar      1 <0>        -0.1068
      6 C6         -0.2308   -1.1171    0.5954 C.ar      1 <0>        -0.1139
      7 C7          3.4813   -0.6962    0.0508 C.3       1 <0>         0.1114
      8 H1          3.9886    0.1781   -0.3570 H         1 <0>         0.1344
      9 C8          4.1039   -1.0675    1.3720 C.2       1 <0>         0.3775
     10 O1          4.2655   -2.2343    1.6595 O.2       1 <0>        -0.4397
     11 C9          4.5159   -0.0138    2.3133 C.ar      1 <0>        -0.1698
     12 C10         4.4393    1.3317    1.9396 C.ar      1 <0>        -0.0740
     13 C11         4.8268    2.3130    2.8273 C.ar      1 <0>        -0.1307
     14 C12         5.2905    1.9694    4.0853 C.ar      1 <0>        -0.0846
     15 C13         5.3697    0.6401    4.4624 C.ar      1 <0>        -0.1309
     16 C14         4.9806   -0.3526    3.5881 C.ar      1 <0>        -0.0591
     17 O2          3.6098   -1.7895   -0.8603 O.3       1 <0>        -0.5341
     18 H2         -1.7015    0.4240    0.7749 H         1 <0>         0.1262
     19 H3         -0.0748    2.2509    0.4925 H         1 <0>         0.1277
     20 H4          2.3101    1.7355    0.1613 H         1 <0>         0.1262
     21 H5          1.4406   -2.4337    0.3877 H         1 <0>         0.1227
     22 H6         -0.9445   -1.9184    0.7174 H         1 <0>         0.1271
     23 H7          4.0780    1.6013    0.9582 H         1 <0>         0.1300
     24 H8          4.7686    3.3525    2.5402 H         1 <0>         0.1318
     25 H9          5.5925    2.7427    4.7762 H         1 <0>         0.1297
     26 H10         5.7329    0.3799    5.4456 H         1 <0>         0.1313
     27 H11         5.0387   -1.3893    3.8854 H         1 <0>         0.1337
     28 H12         3.1810   -2.6031   -0.5614 H         1 <0>         0.3834
@<TRIPOS>BOND
     1    1    6 ar
     2    1    2 ar
     3    1   18 1
     4    2    3 ar
     5    2   19 1
     6    3    4 ar
     7    3   20 1
     8    4    5 ar
     9    4    7 1
    10    5    6 ar
    11    5   21 1
    12    6   22 1
    13    7    8 1
    14    7    9 1
    15    7   17 1
    16    9   10 2
    17    9   11 1
    18   11   16 ar
    19   11   12 ar
    20   12   13 ar
    21   12   23 1
    22   13   14 ar
    23   13   24 1
    24   14   15 ar
    25   14   25 1
    26   15   16 ar
    27   15   26 1
    28   16   27 1
    29   17   28 1
@<TRIPOS>MOLECULE
ZINC00236100
   28    29     0     0     0
SMALL
USER_CHARGES

@<TRIPOS>ATOM
      1 C1          0.1045    1.6190   -0.1047 C.ar      1 <0>        -0.1116
      2 C2          1.3341    2.2490   -0.0611 C.ar      1 <0>        -0.1156
      3 C3          2.4949    1.4986   -0.0414 C.ar      1 <0>        -0.1034
      4 C4          2.4260    0.1182   -0.0648 C.ar      1 <0>        -0.1199
      5 C5          1.1963   -0.5119   -0.1076 C.ar      1 <0>        -0.1065
      6 C6          0.0356    0.2386   -0.1287 C.ar      1 <0>        -0.1139
      7 C7          3.6915   -0.6999   -0.0443 C.3       1 <0>         0.1114
      8 H1          4.5116   -0.0910    0.3361 H         1 <0>         0.1347
      9 C8          4.0144   -1.1607   -1.4423 C.2       1 <0>         0.3775
     10 O1          3.7295   -2.2866   -1.7906 O.2       1 <0>        -0.4395
     11 C9          4.6757   -0.2441   -2.3849 C.ar      1 <0>        -0.1696
     12 C10         5.1234    1.0078   -1.9509 C.ar      1 <0>        -0.0745
     13 C11         5.7424    1.8607   -2.8400 C.ar      1 <0>        -0.1306
     14 C12         5.9212    1.4808   -4.1588 C.ar      1 <0>        -0.0846
     15 C13         5.4806    0.2438   -4.5961 C.ar      1 <0>        -0.1308
     16 C14         4.8648   -0.6227   -3.7178 C.ar      1 <0>        -0.0592
     17 O2          3.5100   -1.8369    0.8020 O.3       1 <0>        -0.5341
     18 H2         -0.8025    2.2052   -0.1156 H         1 <0>         0.1262
     19 H3          1.3880    3.3275   -0.0428 H         1 <0>         0.1277
     20 H4          3.4556    1.9909   -0.0080 H         1 <0>         0.1262
     21 H5          1.1425   -1.5903   -0.1263 H         1 <0>         0.1227
     22 H6         -0.9251   -0.2537   -0.1625 H         1 <0>         0.1272
     23 H7          4.9843    1.3058   -0.9222 H         1 <0>         0.1301
     24 H8          6.0884    2.8279   -2.5065 H         1 <0>         0.1319
     25 H9          6.4068    2.1533   -4.8505 H         1 <0>         0.1297
     26 H10         5.6234   -0.0454   -5.6268 H         1 <0>         0.1313
     27 H11         4.5255   -1.5895   -4.0595 H         1 <0>         0.1337
     28 H12         2.7947   -2.4248    0.5229 H         1 <0>         0.3834
@<TRIPOS>BOND
     1    1    6 ar
     2    1    2 ar
     3    1   18 1
     4    2    3 ar
     5    2   19 1
     6    3    4 ar
     7    3   20 1
     8    4    5 ar
     9    4    7 1
    10    5    6 ar
    11    5   21 1
    12    6   22 1
    13    7    8 1
    14    7    9 1
    15    7   17 1
    16    9   10 2
    17    9   11 1
    18   11   16 ar
    19   11   12 ar
    20   12   13 ar
    21   12   23 1
    22   13   14 ar
    23   13   24 1
    24   14   15 ar
    25   14   25 1
    26   15   16 ar
    27   15   26 1
    28   16   27 1
    29   17   28 1
@<TRIPOS>MOLECULE
ZINC01566855
   34    35     0     0     0
SMALL
USER_CHARGES
1,2-bis(4-methoxyphenyl)ethane-1,2-dione
@<TRIPOS>ATOM
      1 C1          0.7369    3.5776   -5.9486 C.3       1 <0>         0.0220
      2 O1          0.6577    4.3389   -4.7419 O.3       1 <0>        -0.3086
      3 C2          0.4933    3.6471   -3.5870 C.ar      1 <0>         0.1722
      4 C3          0.4088    4.3284   -2.3765 C.ar      1 <0>        -0.1650
      5 C4          0.2432    3.6363   -1.2106 C.ar      1 <0>        -0.0096
      6 C5          0.1581    2.2381   -1.2349 C.ar      1 <0>        -0.2153
      7 C6          0.2487    1.5567   -2.4556 C.ar      1 <0>        -0.0196
      8 C7          0.4094    2.2584   -3.6165 C.ar      1 <0>        -0.2213
      9 C8         -0.0198    1.4876    0.0180 C.2       1 <0>         0.3799
     10 O2         -0.1902    2.0822    1.0629 O.2       1 <0>        -0.4195
     11 C9          0.0032   -0.0030    0.0037 C.2       1 <0>         0.3801
     12 O3          1.0586   -0.5929   -0.1090 O.2       1 <0>        -0.4216
     13 C10        -1.2529   -0.7593    0.1261 C.ar      1 <0>        -0.2155
     14 C11        -1.2255   -2.1569    0.2195 C.ar      1 <0>        -0.0075
     15 C12        -2.3942   -2.8541    0.3374 C.ar      1 <0>        -0.2234
     16 C13        -3.6111   -2.1792    0.3545 C.ar      1 <0>         0.1721
     17 C14        -3.6439   -0.7915    0.2571 C.ar      1 <0>        -0.1627
     18 C15        -2.4806   -0.0847    0.1437 C.ar      1 <0>        -0.0221
     19 O4         -4.7691   -2.8765    0.4668 O.3       1 <0>        -0.3088
     20 C16        -4.6635   -4.2983    0.5627 C.3       1 <0>         0.0221
     21 H1          1.5851    2.8952   -5.8927 H         1 <0>         0.0610
     22 H2         -0.1817    3.0054   -6.0782 H         1 <0>         0.0609
     23 H3          0.8678    4.2513   -6.7954 H         1 <0>         0.1059
     24 H4          0.4745    5.4063   -2.3589 H         1 <0>         0.1427
     25 H5          0.1777    4.1660   -0.2717 H         1 <0>         0.1453
     26 H6          0.1881    0.4786   -2.4791 H         1 <0>         0.1314
     27 H7          0.4752    1.7342   -4.5585 H         1 <0>         0.1388
     28 H8         -0.2819   -2.6819    0.2018 H         1 <0>         0.1405
     29 H9         -2.3740   -3.9312    0.4136 H         1 <0>         0.1393
     30 H10        -4.5909   -0.2724    0.2708 H         1 <0>         0.1423
     31 H11        -2.5071    0.9924    0.0682 H         1 <0>         0.1363
     32 H12        -4.0771   -4.5606    1.4433 H         1 <0>         0.0612
     33 H13        -5.6600   -4.7317    0.6475 H         1 <0>         0.1060
     34 H14        -4.1729   -4.6872   -0.3296 H         1 <0>         0.0609
@<TRIPOS>BOND
     1    1    2 1
     2    1   21 1
     3    1   22 1
     4    1   23 1
     5    2    3 1
     6    3    8 ar
     7    3    4 ar
     8    4    5 ar
     9    4   24 1
    10    5    6 ar
    11    5   25 1
    12    6    7 ar
    13    6    9 1
    14    7    8 ar
    15    7   26 1
    16    8   27 1
    17    9   10 2
    18    9   11 1
    19   11   12 2
    20   11   13 1
    21   13   18 ar
    22   13   14 ar
    23   14   15 ar
    24   14   28 1
    25   15   16 ar
    26   15   29 1
    27   16   17 ar
    28   16   19 1
    29   17   18 ar
    30   17   30 1
    31   18   31 1
    32   19   20 1
    33   20   32 1
    34   20   33 1
    35   20   34 1
@<TRIPOS>MOLECULE
ZINC02384868
   34    35     0     0     0
SMALL
USER_CHARGES
1-(2-chlorophenyl)-2-(3,4-dimethoxyphenyl)-ethane-1,2-dione
@<TRIPOS>ATOM
      1 C1          8.8067   -1.1758   -0.5437 C.3       1 <0>         0.0210
      2 O1          8.7605    0.2439   -0.3876 O.3       1 <0>        -0.2975
      3 C2          7.5322    0.8151   -0.3060 C.ar      1 <0>         0.1464
      4 C3          6.3929    0.0216   -0.3747 C.ar      1 <0>        -0.1873
      5 C4          5.1448    0.5944   -0.2862 C.ar      1 <0>        -0.0527
      6 C5          5.0202    1.9821   -0.1387 C.ar      1 <0>        -0.1752
      7 C6          6.1689    2.7810   -0.0696 C.ar      1 <0>        -0.1078
      8 C7          7.4165    2.1978   -0.1528 C.ar      1 <0>         0.0880
      9 O2          8.5337    2.9702   -0.0861 O.3       1 <0>        -0.3024
     10 C8          8.3411    4.3775    0.0704 C.3       1 <0>         0.0222
     11 C9          3.6871    2.5978   -0.0507 C.2       1 <0>         0.3825
     12 O3          3.5781    3.8065   -0.0094 O.2       1 <0>        -0.4158
     13 C10         2.4698    1.7378   -0.0121 C.2       1 <0>         0.3698
     14 O4          2.0732    1.2013   -1.0262 O.2       1 <0>        -0.3916
     15 C11         1.7481    1.5390    1.2572 C.ar      1 <0>        -0.1643
     16 C12         2.2635    2.0611    2.4489 C.ar      1 <0>        -0.0540
     17 C13         1.5826    1.8714    3.6316 C.ar      1 <0>        -0.1255
     18 C14         0.3905    1.1660    3.6442 C.ar      1 <0>        -0.0666
     19 C15        -0.1297    0.6505    2.4706 C.ar      1 <0>        -0.1237
     20 C16         0.5425    0.8270    1.2775 C.ar      1 <0>         0.0189
     21 Cl1        -0.1084    0.1745   -0.1936 Cl        1 <0>        -0.0301
     22 H1          8.3187   -1.6510    0.3073 H         1 <0>         0.0603
     23 H2          8.2912   -1.4574   -1.4619 H         1 <0>         0.0605
     24 H3          9.8454   -1.5021   -0.5955 H         1 <0>         0.1063
     25 H4          6.4876   -1.0477   -0.4928 H         1 <0>         0.1472
     26 H5          4.2614   -0.0250   -0.3354 H         1 <0>         0.1355
     27 H6          6.0781    3.8506    0.0489 H         1 <0>         0.1507
     28 H7          9.3103    4.8747    0.1095 H         1 <0>         0.1055
     29 H8          7.7691    4.7621   -0.7740 H         1 <0>         0.0582
     30 H9          7.7969    4.5690    0.9953 H         1 <0>         0.0577
     31 H10         3.1926    2.6117    2.4415 H         1 <0>         0.1371
     32 H11         1.9794    2.2742    4.5517 H         1 <0>         0.1405
     33 H12        -0.1379    1.0211    4.5749 H         1 <0>         0.1420
     34 H13        -1.0618    0.1053    2.4882 H         1 <0>         0.1444
@<TRIPOS>BOND
     1    1    2 1
     2    1   22 1
     3    1   23 1
     4    1   24 1
     5    2    3 1
     6    3    8 ar
     7    3    4 ar
     8    4    5 ar
     9    4   25 1
    10    5    6 ar
    11    5   26 1
    12    6    7 ar
    13    6   11 1
    14    7    8 ar
    15    7   27 1
    16    8    9 1
    17    9   10 1
    18   10   28 1
    19   10   29 1
    20   10   30 1
    21   11   12 2
    22   11   13 1
    23   13   14 2
    24   13   15 1
    25   15   20 ar
    26   15   16 ar
    27   16   17 ar
    28   16   31 1
    29   17   18 ar
    30   17   32 1
    31   18   19 ar
    32   18   33 1
    33   19   20 ar
    34   19   34 1
    35   20   21 1
@<TRIPOS>MOLECULE
ZINC03132327
   31    32     0     0     0
SMALL
USER_CHARGES
1-(4-methyl-3-nitro-phenyl)-2-phenyl-ethane-1,2-dione
@<TRIPOS>ATOM
      1 C1         10.0580   -2.3500   -0.5219 C.3       1 <0>        -0.1423
      2 C2          8.7261   -1.6596   -0.3790 C.ar      1 <0>         0.0234
      3 C3          7.5602   -2.3434   -0.6795 C.ar      1 <0>        -0.1292
      4 C4          6.3378   -1.7205   -0.5462 C.ar      1 <0>        -0.0128
      5 C5          6.2779   -0.3900   -0.1175 C.ar      1 <0>        -0.1767
      6 C6          7.4602    0.2938    0.1842 C.ar      1 <0>         0.0133
      7 C7          8.6748   -0.3450    0.0517 C.ar      1 <0>        -0.0603
      8 N1          9.9272    0.3768    0.3704 N.pl3     1 <0>         0.0298
      9 O1          9.8948    1.5656    0.6335 O.2       1 <0>        -0.1559
     10 O2         10.9900   -0.2181    0.3694 O.3       1 <0>        -0.1474
     11 C8          4.9749    0.2858    0.0214 C.2       1 <0>         0.3780
     12 O3          4.9300    1.4639    0.3098 O.2       1 <0>        -0.3979
     13 C9          3.7120   -0.4783   -0.1925 C.2       1 <0>         0.3802
     14 O4          3.3564   -0.7600   -1.3183 O.2       1 <0>        -0.4089
     15 C10         2.8955   -0.8914    0.9635 C.ar      1 <0>        -0.1745
     16 C11         1.6569   -1.5104    0.7642 C.ar      1 <0>        -0.0503
     17 C12         0.8991   -1.8933    1.8503 C.ar      1 <0>        -0.1304
     18 C13         1.3609   -1.6667    3.1356 C.ar      1 <0>        -0.0752
     19 C14         2.5857   -1.0546    3.3412 C.ar      1 <0>        -0.1286
     20 C15         3.3552   -0.6659    2.2654 C.ar      1 <0>        -0.0663
     21 H1         10.3754   -2.7318    0.4485 H         1 <0>         0.0985
     22 H2          9.9646   -3.1776   -1.2251 H         1 <0>         0.0813
     23 H3         10.7974   -1.6400   -0.8925 H         1 <0>         0.1045
     24 H4          7.6083   -3.3689   -1.0146 H         1 <0>         0.1596
     25 H5          5.4290   -2.2565   -0.7767 H         1 <0>         0.1500
     26 H6          7.4217    1.3195    0.5203 H         1 <0>         0.1678
     27 H7          1.2951   -1.6875   -0.2379 H         1 <0>         0.1389
     28 H8         -0.0575   -2.3709    1.6981 H         1 <0>         0.1358
     29 H9          0.7607   -1.9649    3.9825 H         1 <0>         0.1335
     30 H10         2.9391   -0.8813    4.3468 H         1 <0>         0.1348
     31 H11         4.3102   -0.1883    2.4273 H         1 <0>         0.1272
@<TRIPOS>BOND
     1    1    2 1
     2    1   21 1
     3    1   22 1
     4    1   23 1
     5    2    7 ar
     6    2    3 ar
     7    3    4 ar
     8    3   24 1
     9    4    5 ar
    10    4   25 1
    11    5    6 ar
    12    5   11 1
    13    6    7 ar
    14    6   26 1
    15    7    8 1
    16    8    9 2
    17    8   10 1
    18   11   12 2
    19   11   13 1
    20   13   14 2
    21   13   15 1
    22   15   20 ar
    23   15   16 ar
    24   16   17 ar
    25   16   27 1
    26   17   18 ar
    27   17   28 1
    28   18   19 ar
    29   18   29 1
    30   19   20 ar
    31   19   30 1
    32   20   31 1
@<TRIPOS>MOLECULE
ZINC01555402
   26    27     0     0     0
SMALL
USER_CHARGES
1,2-bis(4-chlorophenyl)ethane-1,2-dione
@<TRIPOS>ATOM
      1 C1         -0.4874   -0.9398    1.2786 C.ar      1 <0>        -0.0383
      2 C2         -0.9680   -0.4445    2.4711 C.ar      1 <0>        -0.1214
      3 C3         -0.2462   -0.6235    3.6409 C.ar      1 <0>         0.0021
      4 C4          0.9630   -1.3010    3.6204 C.ar      1 <0>        -0.1198
      5 C5          1.4558   -1.8017    2.4353 C.ar      1 <0>        -0.0518
      6 C6          0.7326   -1.6249    1.2503 C.ar      1 <0>        -0.1693
      7 C7          1.2534   -2.1571   -0.0213 C.2       1 <0>         0.3780
      8 O1          0.5806   -2.0878   -1.0292 O.2       1 <0>        -0.4071
      9 C8          2.6071   -2.7810   -0.0698 C.2       1 <0>         0.3772
     10 O2          3.5990   -2.0818   -0.0420 O.2       1 <0>        -0.4059
     11 C9          2.7406   -4.2463   -0.1516 C.ar      1 <0>        -0.1703
     12 C10         1.6024   -5.0496   -0.2842 C.ar      1 <0>        -0.0519
     13 C11         1.7353   -6.4185   -0.3659 C.ar      1 <0>        -0.1199
     14 C12         2.9916   -7.0011   -0.3055 C.ar      1 <0>         0.0021
     15 C13         4.1230   -6.2120   -0.1685 C.ar      1 <0>        -0.1216
     16 C14         4.0058   -4.8414   -0.0913 C.ar      1 <0>        -0.0387
     17 Cl1         3.1490   -8.7273   -0.4025 Cl        1 <0>        -0.0517
     18 Cl2        -0.8595    0.0040    5.1389 Cl        1 <0>        -0.0517
     19 H1         -1.0509   -0.8000    0.3680 H         1 <0>         0.1487
     20 H2         -1.9071    0.0883    2.4937 H         1 <0>         0.1464
     21 H3          1.5200   -1.4367    4.5357 H         1 <0>         0.1458
     22 H4          2.3979   -2.3297    2.4208 H         1 <0>         0.1386
     23 H5          0.6226   -4.5973   -0.3269 H         1 <0>         0.1398
     24 H6          0.8581   -7.0395   -0.4727 H         1 <0>         0.1458
     25 H7          5.0988   -6.6727   -0.1224 H         1 <0>         0.1463
     26 H8          4.8881   -4.2278    0.0151 H         1 <0>         0.1487
@<TRIPOS>BOND
     1    1    6 ar
     2    1    2 ar
     3    1   19 1
     4    2    3 ar
     5    2   20 1
     6    3    4 ar
     7    3   18 1
     8    4    5 ar
     9    4   21 1
    10    5    6 ar
    11    5   22 1
    12    6    7 1
    13    7    8 2
    14    7    9 1
    15    9   10 2
    16    9   11 1
    17   11   16 ar
    18   11   12 ar
    19   12   13 ar
    20   12   23 1
    21   13   14 ar
    22   13   24 1
    23   14   15 ar
    24   14   17 1
    25   15   16 ar
    26   15   25 1
    27   16   26 1
@<TRIPOS>MOLECULE
ZINC02170331
   26    27     0     0     0
SMALL
USER_CHARGES
1-(4-chlorophenyl)-2-phenyl-ethane-1,2-dione
@<TRIPOS>ATOM
      1 C1          2.9918   -7.0016   -0.3055 C.ar      1 <0>        -0.0774
      2 C2          4.1220   -6.2137   -0.1687 C.ar      1 <0>        -0.1313
      3 C3          4.0053   -4.8423   -0.0914 C.ar      1 <0>        -0.0524
      4 C4          2.7408   -4.2471   -0.1517 C.ar      1 <0>        -0.1739
      5 C5          1.6032   -5.0504   -0.2842 C.ar      1 <0>        -0.0655
      6 C6          1.7368   -6.4200   -0.3659 C.ar      1 <0>        -0.1295
      7 C7          2.6072   -2.7810   -0.0698 C.2       1 <0>         0.3767
      8 O1          3.5990   -2.0819   -0.0420 O.2       1 <0>        -0.4109
      9 C8          1.2534   -2.1571   -0.0213 C.2       1 <0>         0.3780
     10 O2          0.5806   -2.0878   -1.0292 O.2       1 <0>        -0.4090
     11 C9          0.7326   -1.6249    1.2503 C.ar      1 <0>        -0.1683
     12 C10        -0.4873   -0.9398    1.2786 C.ar      1 <0>        -0.0391
     13 C11        -0.9679   -0.4445    2.4711 C.ar      1 <0>        -0.1216
     14 C12        -0.2462   -0.6234    3.6409 C.ar      1 <0>         0.0014
     15 C13         0.9630   -1.3009    3.6204 C.ar      1 <0>        -0.1200
     16 C14         1.4559   -1.8017    2.4353 C.ar      1 <0>        -0.0516
     17 Cl1        -0.8595    0.0040    5.1389 Cl        1 <0>        -0.0524
     18 H1          3.0896   -8.0754   -0.3658 H         1 <0>         0.1324
     19 H2          5.0975   -6.6747   -0.1227 H         1 <0>         0.1346
     20 H3          4.8879   -4.2290    0.0157 H         1 <0>         0.1380
     21 H4          0.6232   -4.5984   -0.3269 H         1 <0>         0.1293
     22 H5          0.8599   -7.0413   -0.4727 H         1 <0>         0.1340
     23 H6         -1.0509   -0.8000    0.3680 H         1 <0>         0.1484
     24 H7         -1.9071    0.0883    2.4937 H         1 <0>         0.1461
     25 H8          1.5201   -1.4366    4.5357 H         1 <0>         0.1455
     26 H9          2.3979   -2.3297    2.4208 H         1 <0>         0.1386
@<TRIPOS>BOND
     1    1    6 ar
     2    1    2 ar
     3    1   18 1
     4    2    3 ar
     5    2   19 1
     6    3    4 ar
     7    3   20 1
     8    4    5 ar
     9    4    7 1
    10    5    6 ar
    11    5   21 1
    12    6   22 1
    13    7    8 2
    14    7    9 1
    15    9   10 2
    16    9   11 1
    17   11   16 ar
    18   11   12 ar
    19   12   13 ar
    20   12   23 1
    21   13   14 ar
    22   13   24 1
    23   14   15 ar
    24   14   17 1
    25   15   16 ar
    26   15   25 1
    27   16   26 1
@<TRIPOS>MOLECULE
ZINC02559787
   29    30     0     0     0
SMALL
USER_CHARGES
1-[4-(bromomethyl)phenyl]-2-phenyl-ethane-1,2-dione
@<TRIPOS>ATOM
      1 C1          1.6146   -1.2472    3.6201 C.ar      1 <0>        -0.0778
      2 C2          2.8063   -0.5425    3.6076 C.ar      1 <0>        -0.1294
      3 C3          3.4876   -0.3543    2.4240 C.ar      1 <0>        -0.0649
      4 C4          2.9717   -0.8776    1.2335 C.ar      1 <0>        -0.1726
      5 C5          1.7671   -1.5885    1.2545 C.ar      1 <0>        -0.0524
      6 C6          1.0977   -1.7681    2.4462 C.ar      1 <0>        -0.1314
      7 C7          3.6938   -0.6805   -0.0367 C.2       1 <0>         0.3776
      8 O1          3.2958   -1.2164   -1.0505 O.2       1 <0>        -0.4135
      9 C8          4.9132    0.1773   -0.0760 C.2       1 <0>         0.3763
     10 O2          4.8068    1.3857   -0.0349 O.2       1 <0>        -0.4102
     11 C9          6.2481   -0.4425   -0.1649 C.ar      1 <0>        -0.1653
     12 C10         6.3714   -1.8282   -0.3125 C.ar      1 <0>        -0.0614
     13 C11         7.6229   -2.3996   -0.4006 C.ar      1 <0>        -0.1121
     14 C12         8.7560   -1.6072   -0.3312 C.ar      1 <0>        -0.0561
     15 C13         8.6424   -0.2358   -0.1794 C.ar      1 <0>        -0.1139
     16 C14         7.3979    0.3513   -0.0961 C.ar      1 <0>        -0.0491
     17 C15        10.1204   -2.2407   -0.4220 C.3       1 <0>        -0.0487
     18 Br1        10.7426   -2.7178    1.3809 Br        1 <0>        -0.1390
     19 H1          1.0833   -1.3874    4.5498 H         1 <0>         0.1323
     20 H2          3.2031   -0.1389    4.5274 H         1 <0>         0.1339
     21 H3          4.4168    0.1959    2.4157 H         1 <0>         0.1280
     22 H4          1.3624   -1.9952    0.3395 H         1 <0>         0.1377
     23 H5          0.1674   -2.3164    2.4640 H         1 <0>         0.1344
     24 H6          5.4884   -2.4481   -0.3620 H         1 <0>         0.1332
     25 H7          7.7197   -3.4686   -0.5194 H         1 <0>         0.1365
     26 H8          9.5310    0.3757   -0.1264 H         1 <0>         0.1370
     27 H9          7.3108    1.4214    0.0217 H         1 <0>         0.1416
     28 H10        10.0636   -3.1393   -1.0363 H         1 <0>         0.1145
     29 H11        10.8190   -1.5359   -0.8728 H         1 <0>         0.1146
@<TRIPOS>BOND
     1    1    6 ar
     2    1    2 ar
     3    1   19 1
     4    2    3 ar
     5    2   20 1
     6    3    4 ar
     7    3   21 1
     8    4    5 ar
     9    4    7 1
    10    5    6 ar
    11    5   22 1
    12    6   23 1
    13    7    8 2
    14    7    9 1
    15    9   10 2
    16    9   11 1
    17   11   16 ar
    18   11   12 ar
    19   12   13 ar
    20   12   24 1
    21   13   14 ar
    22   13   25 1
    23   14   15 ar
    24   14   17 1
    25   15   16 ar
    26   15   26 1
    27   16   27 1
    28   17   18 1
    29   17   28 1
    30   17   29 1
@<TRIPOS>MOLECULE
ZINC02510245
   29    30     0     0     0
SMALL
USER_CHARGES
1-(4-chlorophenyl)-2-(p-tolyl)ethane-1,2-dione
@<TRIPOS>ATOM
      1 C1          3.1281   -8.5002   -0.3866 C.3       1 <0>        -0.1246
      2 C2          2.9917   -7.0017   -0.3040 C.ar      1 <0>        -0.0420
      3 C3          4.1219   -6.2137   -0.1681 C.ar      1 <0>        -0.1338
      4 C4          4.0053   -4.8423   -0.0914 C.ar      1 <0>        -0.0467
      5 C5          2.7408   -4.2471   -0.1517 C.ar      1 <0>        -0.1809
      6 C6          1.6032   -5.0504   -0.2841 C.ar      1 <0>        -0.0599
      7 C7          1.7367   -6.4201   -0.3648 C.ar      1 <0>        -0.1319
      8 C8          2.6072   -2.7810   -0.0698 C.2       1 <0>         0.3773
      9 O1          3.5990   -2.0819   -0.0420 O.2       1 <0>        -0.4126
     10 C9          1.2534   -2.1571   -0.0213 C.2       1 <0>         0.3779
     11 O2          0.5806   -2.0878   -1.0292 O.2       1 <0>        -0.4094
     12 C10         0.7326   -1.6249    1.2503 C.ar      1 <0>        -0.1681
     13 C11        -0.4873   -0.9398    1.2786 C.ar      1 <0>        -0.0392
     14 C12        -0.9679   -0.4445    2.4711 C.ar      1 <0>        -0.1217
     15 C13        -0.2462   -0.6234    3.6409 C.ar      1 <0>         0.0013
     16 C14         0.9630   -1.3009    3.6204 C.ar      1 <0>        -0.1200
     17 C15         1.4559   -1.8017    2.4353 C.ar      1 <0>        -0.0515
     18 Cl1        -0.8592    0.0045    5.1388 Cl        1 <0>        -0.0526
     19 H1          3.0824   -8.9250    0.6161 H         1 <0>         0.0793
     20 H2          2.3166   -8.9062   -0.9906 H         1 <0>         0.0728
     21 H3          4.0840   -8.7533   -0.8452 H         1 <0>         0.0729
     22 H4          5.0975   -6.6748   -0.1218 H         1 <0>         0.1341
     23 H5          4.8880   -4.2289    0.0146 H         1 <0>         0.1382
     24 H6          0.6233   -4.5984   -0.3272 H         1 <0>         0.1294
     25 H7          0.8598   -7.0414   -0.4712 H         1 <0>         0.1335
     26 H8         -1.0509   -0.8000    0.3680 H         1 <0>         0.1483
     27 H9         -1.9071    0.0883    2.4937 H         1 <0>         0.1460
     28 H10         1.5199   -1.4369    4.5357 H         1 <0>         0.1454
     29 H11         2.3979   -2.3297    2.4208 H         1 <0>         0.1387
@<TRIPOS>BOND
     1    1    2 1
     2    1   19 1
     3    1   20 1
     4    1   21 1
     5    2    7 ar
     6    2    3 ar
     7    3    4 ar
     8    3   22 1
     9    4    5 ar
    10    4   23 1
    11    5    6 ar
    12    5    8 1
    13    6    7 ar
    14    6   24 1
    15    7   25 1
    16    8    9 2
    17    8   10 1
    18   10   11 2
    19   10   12 1
    20   12   17 ar
    21   12   13 ar
    22   13   14 ar
    23   13   26 1
    24   14   15 ar
    25   14   27 1
    26   15   16 ar
    27   15   18 1
    28   16   17 ar
    29   16   28 1
    30   17   29 1
@<TRIPOS>MOLECULE
ZINC01683675
   19    19     0     0     0
SMALL
USER_CHARGES
1-phenylpropane-1,2-dione
@<TRIPOS>ATOM
      1 C1         -1.2423   -2.2696    0.2277 C.3       1 <0>        -0.1866
      2 C2         -1.2712   -0.7666    0.1225 C.2       1 <0>         0.3322
      3 O1         -2.3272   -0.1804    0.1359 O.2       1 <0>        -0.4084
      4 C3          0.0021   -0.0041    0.0020 C.2       1 <0>         0.3599
      5 O2          1.0561   -0.5961   -0.1067 O.2       1 <0>        -0.4068
      6 C4         -0.0175    1.4701    0.0147 C.ar      1 <0>        -0.1818
      7 C5         -1.2361    2.1574    0.0007 C.ar      1 <0>        -0.0737
      8 C6         -1.2461    3.5357    0.0181 C.ar      1 <0>        -0.1385
      9 C7         -0.0542    4.2401    0.0382 C.ar      1 <0>        -0.0788
     10 C8          1.1560    3.5673    0.0464 C.ar      1 <0>        -0.1385
     11 C9          1.1826    2.1892    0.0351 C.ar      1 <0>        -0.0556
     12 H1         -0.7229   -2.5370    1.0393 H         1 <0>         0.0905
     13 H2         -2.2614   -2.6479    0.3076 H         1 <0>         0.0932
     14 H3         -0.7685   -2.6870   -0.6608 H         1 <0>         0.1036
     15 H4         -2.1666    1.6094   -0.0195 H         1 <0>         0.1626
     16 H5         -2.1859    4.0677    0.0114 H         1 <0>         0.1315
     17 H6         -0.0685    5.3199    0.0471 H         1 <0>         0.1293
     18 H7          2.0814    4.1238    0.0621 H         1 <0>         0.1316
     19 H8          2.1273    1.6659    0.0415 H         1 <0>         0.1346
@<TRIPOS>BOND
     1    1    2 1
     2    1   12 1
     3    1   13 1
     4    1   14 1
     5    2    3 2
     6    2    4 1
     7    4    5 2
     8    4    6 1
     9    6   11 ar
    10    6    7 ar
    11    7    8 ar
    12    7   15 1
    13    8    9 ar
    14    8   16 1
    15    9   10 ar
    16    9   17 1
    17   10   11 ar
    18   10   18 1
    19   11   19 1
@<TRIPOS>MOLECULE
ZINC02504724
   26    27     0     0     0
SMALL
USER_CHARGES
1,2-bis(4-fluorophenyl)ethane-1,2-dione
@<TRIPOS>ATOM
      1 C1         -0.4874   -0.9389    1.2777 C.ar      1 <0>        -0.0212
      2 C2         -0.9681   -0.4434    2.4692 C.ar      1 <0>        -0.1652
      3 C3         -0.2458   -0.6227    3.6406 C.ar      1 <0>         0.1429
      4 C4          0.9644   -1.3016    3.6197 C.ar      1 <0>        -0.1635
      5 C5          1.4563   -1.8021    2.4349 C.ar      1 <0>        -0.0346
      6 C6          0.7326   -1.6247    1.2497 C.ar      1 <0>        -0.1854
      7 C7          1.2530   -2.1569   -0.0213 C.2       1 <0>         0.3793
      8 O1          0.5801   -2.0872   -1.0293 O.2       1 <0>        -0.4098
      9 C8          2.6063   -2.7814   -0.0698 C.2       1 <0>         0.3785
     10 O2          3.5986   -2.0826   -0.0420 O.2       1 <0>        -0.4085
     11 C9          2.7390   -4.2460   -0.1516 C.ar      1 <0>        -0.1865
     12 C10         1.5999   -5.0487   -0.2842 C.ar      1 <0>        -0.0347
     13 C11         1.7314   -6.4171   -0.3663 C.ar      1 <0>        -0.1635
     14 C12         2.9888   -7.0013   -0.3054 C.ar      1 <0>         0.1429
     15 C13         4.1216   -6.2115   -0.1683 C.ar      1 <0>        -0.1654
     16 C14         4.0045   -4.8416   -0.0912 C.ar      1 <0>        -0.0215
     17 F1          3.1105   -8.3447   -0.3805 F         1 <0>        -0.1279
     18 F2         -0.7227   -0.1338    4.8062 F         1 <0>        -0.1278
     19 H1         -1.0506   -0.7990    0.3668 H         1 <0>         0.1494
     20 H2         -1.9070    0.0899    2.4914 H         1 <0>         0.1485
     21 H3          1.5215   -1.4381    4.5348 H         1 <0>         0.1479
     22 H4          2.3980   -2.3306    2.4200 H         1 <0>         0.1395
     23 H5          0.6204   -4.5956   -0.3269 H         1 <0>         0.1407
     24 H6          0.8538   -7.0372   -0.4738 H         1 <0>         0.1479
     25 H7          5.0973   -6.6723   -0.1222 H         1 <0>         0.1484
     26 H8          4.8869   -4.2281    0.0152 H         1 <0>         0.1495
@<TRIPOS>BOND
     1    1    6 ar
     2    1    2 ar
     3    1   19 1
     4    2    3 ar
     5    2   20 1
     6    3    4 ar
     7    3   18 1
     8    4    5 ar
     9    4   21 1
    10    5    6 ar
    11    5   22 1
    12    6    7 1
    13    7    8 2
    14    7    9 1
    15    9   10 2
    16    9   11 1
    17   11   16 ar
    18   11   12 ar
    19   12   13 ar
    20   12   23 1
    21   13   14 ar
    22   13   24 1
    23   14   15 ar
    24   14   17 1
    25   15   16 ar
    26   15   25 1
    27   16   26 1
@<TRIPOS>MOLECULE
ZINC01671392
   30    31     0     0     0
SMALL
USER_CHARGES
1-(4-methoxyphenyl)-2-phenyl-ethane-1,2-dione
@<TRIPOS>ATOM
      1 C1          9.3917   -4.3870    0.1084 C.3       1 <0>         0.0220
      2 O1          9.5395   -2.9686    0.1985 O.3       1 <0>        -0.3085
      3 C2          8.4052   -2.2268    0.1474 C.ar      1 <0>         0.1728
      4 C3          8.4795   -0.8396    0.2298 C.ar      1 <0>        -0.1628
      5 C4          7.3402   -0.0880    0.1784 C.ar      1 <0>        -0.0223
      6 C5          6.0951   -0.7160    0.0424 C.ar      1 <0>        -0.2163
      7 C6          6.0254   -2.1132   -0.0348 C.ar      1 <0>        -0.0070
      8 C7          7.1710   -2.8554    0.0122 C.ar      1 <0>        -0.2235
      9 C8          4.8647    0.0886   -0.0131 C.2       1 <0>         0.3807
     10 O2          3.7815   -0.4595   -0.0388 O.2       1 <0>        -0.4201
     11 C9          4.9479    1.5773   -0.0377 C.2       1 <0>         0.3771
     12 O3          5.2125    2.1872    0.9778 O.2       1 <0>        -0.4149
     13 C10         4.7086    2.3083   -1.2956 C.ar      1 <0>        -0.1717
     14 C11         4.6752    3.7067   -1.3006 C.ar      1 <0>        -0.0531
     15 C12         4.4505    4.3830   -2.4807 C.ar      1 <0>        -0.1316
     16 C13         4.2582    3.6817   -3.6588 C.ar      1 <0>        -0.0789
     17 C14         4.2899    2.2976   -3.6621 C.ar      1 <0>        -0.1301
     18 C15         4.5134    1.6069   -2.4901 C.ar      1 <0>        -0.0648
     19 H1          8.7729   -4.7410    0.9330 H         1 <0>         0.0612
     20 H2          8.9165   -4.6434   -0.8385 H         1 <0>         0.0612
     21 H3         10.3729   -4.8587    0.1620 H         1 <0>         0.1061
     22 H4          9.4397   -0.3565    0.3350 H         1 <0>         0.1425
     23 H5          7.3989    0.9885    0.2421 H         1 <0>         0.1365
     24 H6          5.0677   -2.6023   -0.1353 H         1 <0>         0.1408
     25 H7          7.1187   -3.9323   -0.0513 H         1 <0>         0.1397
     26 H8          4.8246    4.2552   -0.3823 H         1 <0>         0.1375
     27 H9          4.4240    5.4627   -2.4862 H         1 <0>         0.1340
     28 H10         4.0781    4.2170   -4.5794 H         1 <0>         0.1317
     29 H11         4.1387    1.7576   -4.5851 H         1 <0>         0.1333
     30 H12         4.5375    0.5272   -2.4942 H         1 <0>         0.1284
@<TRIPOS>BOND
     1    1    2 1
     2    1   19 1
     3    1   20 1
     4    1   21 1
     5    2    3 1
     6    3    8 ar
     7    3    4 ar
     8    4    5 ar
     9    4   22 1
    10    5    6 ar
    11    5   23 1
    12    6    7 ar
    13    6    9 1
    14    7    8 ar
    15    7   24 1
    16    8   25 1
    17    9   10 2
    18    9   11 1
    19   11   12 2
    20   11   13 1
    21   13   18 ar
    22   13   14 ar
    23   14   15 ar
    24   14   26 1
    25   15   16 ar
    26   15   27 1
    27   16   17 ar
    28   16   28 1
    29   17   18 ar
    30   17   29 1
    31   18   30 1
@<TRIPOS>MOLECULE
ZINC02555760
   28    29     0     0     0
SMALL
USER_CHARGES
1-(4-nitrophenyl)-2-phenyl-ethane-1,2-dione
@<TRIPOS>ATOM
      1 C1          1.6149   -1.2480    3.6194 C.ar      1 <0>        -0.0749
      2 C2          2.8065   -0.5433    3.6069 C.ar      1 <0>        -0.1286
      3 C3          3.4879   -0.3551    2.4234 C.ar      1 <0>        -0.0667
      4 C4          2.9719   -0.8780    1.2328 C.ar      1 <0>        -0.1749
      5 C5          1.7672   -1.5889    1.2538 C.ar      1 <0>        -0.0499
      6 C6          1.0980   -1.7690    2.4454 C.ar      1 <0>        -0.1300
      7 C7          3.6938   -0.6805   -0.0375 C.2       1 <0>         0.3783
      8 O1          3.2957   -1.2160   -1.0513 O.2       1 <0>        -0.4071
      9 C8          4.9132    0.1773   -0.0767 C.2       1 <0>         0.3733
     10 O2          4.8068    1.3857   -0.0351 O.2       1 <0>        -0.3916
     11 C9          6.2480   -0.4425   -0.1659 C.ar      1 <0>        -0.1211
     12 C10         6.3713   -1.8281   -0.3141 C.ar      1 <0>        -0.0652
     13 C11         7.6228   -2.3995   -0.4021 C.ar      1 <0>        -0.0619
     14 C12         8.7560   -1.6071   -0.3331 C.ar      1 <0>        -0.0108
     15 C13         8.6423   -0.2357   -0.1812 C.ar      1 <0>        -0.0635
     16 C14         7.3979    0.3514   -0.0970 C.ar      1 <0>        -0.0534
     17 N1         10.0960   -2.2293   -0.4227 N.pl3     1 <0>         0.0198
     18 O3         11.0950   -1.5352   -0.3627 O.2       1 <0>        -0.1458
     19 O4         10.1997   -3.4355   -0.5564 O.3       1 <0>        -0.1460
     20 H1          1.0835   -1.3882    4.5491 H         1 <0>         0.1337
     21 H2          3.2034   -0.1399    4.5268 H         1 <0>         0.1349
     22 H3          4.4172    0.1951    2.4152 H         1 <0>         0.1271
     23 H4          1.3624   -1.9953    0.3387 H         1 <0>         0.1390
     24 H5          0.1679   -2.3175    2.4633 H         1 <0>         0.1360
     25 H6          5.4884   -2.4480   -0.3632 H         1 <0>         0.1546
     26 H7          7.7196   -3.4686   -0.5210 H         1 <0>         0.1655
     27 H8          9.5310    0.3758   -0.1281 H         1 <0>         0.1660
     28 H9          7.3108    1.4213    0.0215 H         1 <0>         0.1631
@<TRIPOS>BOND
     1    1    6 ar
     2    1    2 ar
     3    1   20 1
     4    2    3 ar
     5    2   21 1
     6    3    4 ar
     7    3   22 1
     8    4    5 ar
     9    4    7 1
    10    5    6 ar
    11    5   23 1
    12    6   24 1
    13    7    8 2
    14    7    9 1
    15    9   10 2
    16    9   11 1
    17   11   16 ar
    18   11   12 ar
    19   12   13 ar
    20   12   25 1
    21   13   14 ar
    22   13   26 1
    23   14   15 ar
    24   14   17 1
    25   15   16 ar
    26   15   27 1
    27   16   28 1
    28   17   18 2
    29   17   19 1
@<TRIPOS>MOLECULE
ZINC01590056
   32    33     0     0     0
SMALL
USER_CHARGES
1,2-bis(p-tolyl)ethane-1,2-dione
@<TRIPOS>ATOM
      1 C1          0.6786    4.4223   -4.8795 C.3       1 <0>        -0.1241
      2 C2          0.4959    3.6535   -3.5963 C.ar      1 <0>        -0.0433
      3 C3          0.4121    4.3325   -2.3927 C.ar      1 <0>        -0.1339
      4 C4          0.2445    3.6364   -1.2146 C.ar      1 <0>        -0.0472
      5 C5          0.1592    2.2403   -1.2375 C.ar      1 <0>        -0.1794
      6 C6          0.2501    1.5611   -2.4572 C.ar      1 <0>        -0.0596
      7 C7          0.4123    2.2719   -3.6272 C.ar      1 <0>        -0.1320
      8 C8         -0.0195    1.4881    0.0179 C.2       1 <0>         0.3773
      9 O1         -0.1901    2.0824    1.0623 O.2       1 <0>        -0.4150
     10 C9          0.0032   -0.0031    0.0035 C.2       1 <0>         0.3773
     11 O2          1.0580   -0.5929   -0.1089 O.2       1 <0>        -0.4150
     12 C10        -1.2557   -0.7608    0.1257 C.ar      1 <0>        -0.1793
     13 C11        -2.4819   -0.0877    0.1491 C.ar      1 <0>        -0.0596
     14 C12        -3.6549   -0.8036    0.2588 C.ar      1 <0>        -0.1320
     15 C13        -3.6210   -2.1842    0.3564 C.ar      1 <0>        -0.0433
     16 C14        -2.4112   -2.8572    0.3393 C.ar      1 <0>        -0.1339
     17 C15        -1.2299   -2.1559    0.2248 C.ar      1 <0>        -0.0473
     18 C16        -4.9078   -2.9586    0.4814 C.3       1 <0>        -0.1241
     19 H1          1.7427    4.5439   -5.0818 H         1 <0>         0.0789
     20 H2          0.2129    3.8761   -5.6997 H         1 <0>         0.0725
     21 H3          0.2123    5.4030   -4.7850 H         1 <0>         0.0726
     22 H4          0.4785    5.4104   -2.3766 H         1 <0>         0.1338
     23 H5          0.1789    4.1676   -0.2765 H         1 <0>         0.1377
     24 H6          0.1892    0.4832   -2.4825 H         1 <0>         0.1284
     25 H7          0.4786    1.7493   -4.5701 H         1 <0>         0.1332
     26 H8         -2.5097    0.9895    0.0772 H         1 <0>         0.1284
     27 H9         -4.6026   -0.2858    0.2729 H         1 <0>         0.1332
     28 H10        -2.3929   -3.9343    0.4162 H         1 <0>         0.1338
     29 H11        -0.2869   -2.6823    0.2112 H         1 <0>         0.1377
     30 H12        -5.1627   -3.0720    1.5350 H         1 <0>         0.0789
     31 H13        -5.7064   -2.4212   -0.0299 H         1 <0>         0.0725
     32 H14        -4.7849   -3.9429    0.0293 H         1 <0>         0.0726
@<TRIPOS>BOND
     1    1    2 1
     2    1   19 1
     3    1   20 1
     4    1   21 1
     5    2    7 ar
     6    2    3 ar
     7    3    4 ar
     8    3   22 1
     9    4    5 ar
    10    4   23 1
    11    5    6 ar
    12    5    8 1
    13    6    7 ar
    14    6   24 1
    15    7   25 1
    16    8    9 2
    17    8   10 1
    18   10   11 2
    19   10   12 1
    20   12   17 ar
    21   12   13 ar
    22   13   14 ar
    23   13   26 1
    24   14   15 ar
    25   14   27 1
    26   15   16 ar
    27   15   18 1
    28   16   17 ar
    29   16   28 1
    30   17   29 1
    31   18   30 1
    32   18   31 1
    33   18   32 1
@<TRIPOS>MOLECULE
ZINC00240941
   12    12     0     0     0
SMALL
USER_CHARGES
2,3,5,6-tetrachloro-1,4-benzoquinone
@<TRIPOS>ATOM
      1 C1         -1.3306    3.9299    0.0350 C.2       1 <0>        -0.0674
      2 C2         -0.1766    4.6173    0.0282 C.2       1 <0>        -0.0674
      3 C3          1.1125    3.8962    0.0119 C.2       1 <0>         0.4278
      4 O1          2.1560    4.5177    0.0053 O.2       1 <0>        -0.3486
      5 C4          1.1326    2.4191    0.0042 C.2       1 <0>        -0.0674
      6 C5         -0.0215    1.7317    0.0116 C.2       1 <0>        -0.0674
      7 C6         -1.3106    2.4529    0.0216 C.2       1 <0>         0.4278
      8 O2         -2.3541    1.8314    0.0232 O.2       1 <0>        -0.3486
      9 Cl1         0.0021   -0.0041    0.0020 Cl        1 <0>         0.0278
     10 Cl2         2.6476    1.5717   -0.0148 Cl        1 <0>         0.0278
     11 Cl3        -0.2001    6.3531    0.0378 Cl        1 <0>         0.0278
     12 Cl4        -2.8456    4.7773    0.0536 Cl        1 <0>         0.0278
@<TRIPOS>BOND
     1    1    7 1
     2    1    2 2
     3    1   12 1
     4    2    3 1
     5    2   11 1
     6    3    4 2
     7    3    5 1
     8    5    6 2
     9    5   10 1
    10    6    7 1
    11    6    9 1
    12    7    8 2
@<TRIPOS>MOLECULE
ZINC03311689
   32    33     0     0     0
SMALL
USER_CHARGES
1-(3,4-dimethylphenyl)-2-phenyl-ethane-1,2-dione
@<TRIPOS>ATOM
      1 C1         10.1204   -2.2407   -0.4220 C.3       1 <0>        -0.1267
      2 C2          8.7560   -1.6072   -0.3312 C.ar      1 <0>        -0.0448
      3 C3          7.6227   -2.3998   -0.3997 C.ar      1 <0>        -0.1272
      4 C4          6.3714   -1.8284   -0.3126 C.ar      1 <0>        -0.0662
      5 C5          6.2481   -0.4425   -0.1649 C.ar      1 <0>        -0.1752
      6 C6          7.3977    0.3512   -0.0961 C.ar      1 <0>        -0.0487
      7 C7          8.6424   -0.2360   -0.1794 C.ar      1 <0>        -0.0998
      8 C8          9.8824    0.6173   -0.1055 C.3       1 <0>        -0.1197
      9 C9          4.9132    0.1773   -0.0760 C.2       1 <0>         0.3776
     10 O1          4.8068    1.3857   -0.0349 O.2       1 <0>        -0.4147
     11 C10         3.6938   -0.6805   -0.0367 C.2       1 <0>         0.3776
     12 O2          3.2958   -1.2164   -1.0505 O.2       1 <0>        -0.4144
     13 C11         2.9718   -0.8776    1.2335 C.ar      1 <0>        -0.1717
     14 C12         1.7671   -1.5885    1.2545 C.ar      1 <0>        -0.0529
     15 C13         1.0977   -1.7681    2.4462 C.ar      1 <0>        -0.1314
     16 C14         1.6146   -1.2472    3.6201 C.ar      1 <0>        -0.0786
     17 C15         2.8063   -0.5425    3.6076 C.ar      1 <0>        -0.1297
     18 C16         3.4876   -0.3543    2.4240 C.ar      1 <0>        -0.0650
     19 H1         10.4653   -2.5052    0.5776 H         1 <0>         0.0789
     20 H2         10.0636   -3.1393   -1.0363 H         1 <0>         0.0718
     21 H3         10.8190   -1.5359   -0.8728 H         1 <0>         0.0765
     22 H4          7.7195   -3.4689   -0.5178 H         1 <0>         0.1334
     23 H5          5.4884   -2.4483   -0.3620 H         1 <0>         0.1289
     24 H6          7.3106    1.4212    0.0224 H         1 <0>         0.1373
     25 H7         10.1971    0.7116    0.9338 H         1 <0>         0.0748
     26 H8         10.6790    0.1515   -0.6856 H         1 <0>         0.0745
     27 H9          9.6678    1.6059   -0.5113 H         1 <0>         0.0697
     28 H10         1.3624   -1.9952    0.3395 H         1 <0>         0.1375
     29 H11         0.1674   -2.3164    2.4640 H         1 <0>         0.1343
     30 H12         1.0833   -1.3874    4.5498 H         1 <0>         0.1321
     31 H13         3.2031   -0.1389    4.5274 H         1 <0>         0.1336
     32 H14         4.4168    0.1959    2.4157 H         1 <0>         0.1280
@<TRIPOS>BOND
     1    1    2 1
     2    1   19 1
     3    1   20 1
     4    1   21 1
     5    2    7 ar
     6    2    3 ar
     7    3    4 ar
     8    3   22 1
     9    4    5 ar
    10    4   23 1
    11    5    6 ar
    12    5    9 1
    13    6    7 ar
    14    6   24 1
    15    7    8 1
    16    8   25 1
    17    8   26 1
    18    8   27 1
    19    9   10 2
    20    9   11 1
    21   11   12 2
    22   11   13 1
    23   13   18 ar
    24   13   14 ar
    25   14   15 ar
    26   14   28 1
    27   15   16 ar
    28   15   29 1
    29   16   17 ar
    30   16   30 1
    31   17   18 ar
    32   17   31 1
    33   18   32 1
@<TRIPOS>MOLECULE
ZINC01699466
   26    27     0     0     0
SMALL
USER_CHARGES
1,2-bis(4-bromophenyl)ethane-1,2-dione
@<TRIPOS>ATOM
      1 C1         -0.4874   -0.9400    1.2788 C.ar      1 <0>        -0.0452
      2 C2         -0.9681   -0.4448    2.4715 C.ar      1 <0>        -0.1016
      3 C3         -0.2464   -0.6236    3.6410 C.ar      1 <0>        -0.0550
      4 C4          0.9624   -1.3008    3.6207 C.ar      1 <0>        -0.1000
      5 C5          1.4556   -1.8016    2.4355 C.ar      1 <0>        -0.0588
      6 C6          0.7325   -1.6249    1.2505 C.ar      1 <0>        -0.1577
      7 C7          1.2536   -2.1572   -0.0212 C.2       1 <0>         0.3771
      8 O1          0.5808   -2.0879   -1.0292 O.2       1 <0>        -0.4048
      9 C8          2.6073   -2.7809   -0.0697 C.2       1 <0>         0.3764
     10 O2          3.5991   -2.0816   -0.0418 O.2       1 <0>        -0.4036
     11 C9          2.7410   -4.2463   -0.1515 C.ar      1 <0>        -0.1588
     12 C10         1.6031   -5.0498   -0.2841 C.ar      1 <0>        -0.0589
     13 C11         1.7363   -6.4188   -0.3663 C.ar      1 <0>        -0.1001
     14 C12         2.9924   -7.0010   -0.3058 C.ar      1 <0>        -0.0549
     15 C13         4.1234   -6.2121   -0.1683 C.ar      1 <0>        -0.1018
     16 C14         4.0061   -4.8413   -0.0911 C.ar      1 <0>        -0.0455
     17 Br1         3.1641   -8.8812   -0.4120 Br        1 <0>        -0.0316
     18 Br2        -0.9147    0.0599    5.2726 Br        1 <0>        -0.0315
     19 H1         -1.0510   -0.8003    0.3682 H         1 <0>         0.1485
     20 H2         -1.9073    0.0879    2.4941 H         1 <0>         0.1458
     21 H3          1.5192   -1.4367    4.5360 H         1 <0>         0.1451
     22 H4          2.3977   -2.3295    2.4211 H         1 <0>         0.1383
     23 H5          0.6232   -4.5977   -0.3269 H         1 <0>         0.1394
     24 H6          0.8593   -7.0399   -0.4738 H         1 <0>         0.1451
     25 H7          5.0991   -6.6728   -0.1218 H         1 <0>         0.1457
     26 H8          4.8885   -4.2277    0.0153 H         1 <0>         0.1485
@<TRIPOS>BOND
     1    1    6 ar
     2    1    2 ar
     3    1   19 1
     4    2    3 ar
     5    2   20 1
     6    3    4 ar
     7    3   18 1
     8    4    5 ar
     9    4   21 1
    10    5    6 ar
    11    5   22 1
    12    6    7 1
    13    7    8 2
    14    7    9 1
    15    9   10 2
    16    9   11 1
    17   11   16 ar
    18   11   12 ar
    19   12   13 ar
    20   12   23 1
    21   13   14 ar
    22   13   24 1
    23   14   15 ar
    24   14   17 1
    25   15   16 ar
    26   15   25 1
    27   16   26 1
@<TRIPOS>MOLECULE
ZINC13642872
   26    27     0     0     0
SMALL
USER_CHARGES
1-(2,3,4,5,6-pentachlorophenyl)-2-(2,3,4,5,6-pentafluorophenyl)ethane-1,2-dione
@<TRIPOS>ATOM
      1 C1         -5.0642    1.6484    0.2591 C.ar      1 <0>        -0.1829
      2 C2         -5.7285    1.2070   -0.8958 C.ar      1 <0>         0.1642
      3 C3         -6.9072    0.4959   -0.7807 C.ar      1 <0>         0.0646
      4 C4         -7.4417    0.2287    0.4727 C.ar      1 <0>         0.1235
      5 C5         -6.7938    0.6672    1.6199 C.ar      1 <0>         0.0644
      6 C6         -5.6109    1.3737    1.5222 C.ar      1 <0>         0.1626
      7 F1         -4.9820    1.7996    2.6395 F         1 <0>        -0.0897
      8 F2         -7.3217    0.4018    2.8348 F         1 <0>        -0.0897
      9 F3         -8.5980   -0.4621    0.5766 F         1 <0>        -0.0844
     10 F4         -7.5449    0.0645   -1.8909 F         1 <0>        -0.0897
     11 F5         -5.2135    1.4716   -2.1164 F         1 <0>        -0.0896
     12 C7         -3.8063    2.3992    0.1461 C.2       1 <0>         0.3801
     13 O1         -3.8223    3.6136    0.1402 O.2       1 <0>        -0.3344
     14 C8         -2.5099    1.6702    0.0386 C.2       1 <0>         0.3761
     15 O2         -2.4999    0.4595   -0.0516 O.2       1 <0>        -0.3372
     16 C9         -1.2423    2.4184    0.0419 C.ar      1 <0>        -0.1109
     17 C10        -0.6236    2.7502    1.2545 C.ar      1 <0>         0.0204
     18 C11         0.5627    3.4558    1.2493 C.ar      1 <0>        -0.0159
     19 C12         1.1442    3.8328    0.0482 C.ar      1 <0>         0.0104
     20 C13         0.5405    3.5040   -1.1561 C.ar      1 <0>        -0.0161
     21 C14        -0.6455    2.7980   -1.1677 C.ar      1 <0>         0.0221
     22 Cl1        -1.3994    2.3876   -2.6766 Cl        1 <0>         0.0062
     23 Cl2         1.2786    3.9812   -2.6532 Cl        1 <0>         0.0124
     24 Cl3         2.6360    4.7205    0.0522 Cl        1 <0>         0.0156
     25 Cl4         1.3285    3.8728    2.7504 Cl        1 <0>         0.0124
     26 Cl5        -1.3501    2.2804    2.7595 Cl        1 <0>         0.0056
@<TRIPOS>BOND
     1    1    6 ar
     2    1    2 ar
     3    1   12 1
     4    2    3 ar
     5    2   11 1
     6    3    4 ar
     7    3   10 1
     8    4    5 ar
     9    4    9 1
    10    5    6 ar
    11    5    8 1
    12    6    7 1
    13   12   13 2
    14   12   14 1
    15   14   15 2
    16   14   16 1
    17   16   21 ar
    18   16   17 ar
    19   17   18 ar
    20   17   26 1
    21   18   19 ar
    22   18   25 1
    23   19   20 ar
    24   19   24 1
    25   20   21 ar
    26   20   23 1
    27   21   22 1
@<TRIPOS>MOLECULE
ZINC14979621
   64    65     0     0     0
SMALL
USER_CHARGES
1-hexadecylindoline-2,3-dione
@<TRIPOS>ATOM
      1 C1         -6.6348  -14.4965   11.4883 C.3       1 <0>        -0.1543
      2 C2         -6.5112  -13.9951   10.0481 C.3       1 <0>        -0.1261
      3 C3         -6.1207  -12.5157   10.0549 C.3       1 <0>        -0.1213
      4 C4         -5.9971  -12.0143    8.6147 C.3       1 <0>        -0.1211
      5 C5         -5.6067  -10.5350    8.6215 C.3       1 <0>        -0.1207
      6 C6         -5.4831  -10.0335    7.1813 C.3       1 <0>        -0.1206
      7 C7         -5.0926   -8.5542    7.1881 C.3       1 <0>        -0.1207
      8 C8         -4.9690   -8.0527    5.7479 C.3       1 <0>        -0.1205
      9 C9         -4.5786   -6.5734    5.7546 C.3       1 <0>        -0.1207
     10 C10        -4.4550   -6.0720    4.3144 C.3       1 <0>        -0.1204
     11 C11        -4.0645   -4.5926    4.3212 C.3       1 <0>        -0.1209
     12 C12        -3.9409   -4.0912    2.8810 C.3       1 <0>        -0.1201
     13 C13        -3.5505   -2.6119    2.8878 C.3       1 <0>        -0.1195
     14 C14        -3.4269   -2.1104    1.4476 C.3       1 <0>        -0.1163
     15 C15        -3.0364   -0.6311    1.4544 C.3       1 <0>        -0.1387
     16 C16        -2.9128   -0.1297    0.0142 C.3       1 <0>         0.1094
     17 N1         -2.5389    1.2868    0.0207 N.am      1 <0>        -0.5457
     18 C17        -1.2259    1.7517    0.0174 C.ar      1 <0>         0.1947
     19 C18        -0.0126    1.0758    0.0080 C.ar      1 <0>        -0.1506
     20 C19         1.1762    1.7810    0.0004 C.ar      1 <0>        -0.0421
     21 C20         1.1766    3.1661    0.0074 C.ar      1 <0>        -0.1562
     22 C21        -0.0174    3.8579    0.0220 C.ar      1 <0>        -0.0043
     23 C22        -1.2226    3.1560    0.0302 C.ar      1 <0>        -0.2411
     24 C23        -2.6348    3.5805    0.0462 C.2       1 <0>         0.3895
     25 O1         -3.0669    4.7145    0.0561 O.2       1 <0>        -0.3690
     26 C24        -3.4197    2.3023    0.0301 C.2       1 <0>         0.4903
     27 O2         -4.6287    2.2030    0.0349 O.2       1 <0>        -0.4447
     28 H1         -5.6792  -14.3753   11.9985 H         1 <0>         0.0533
     29 H2         -7.4002  -13.9211   12.0090 H         1 <0>         0.0533
     30 H3         -6.9129  -15.5504   11.4835 H         1 <0>         0.0535
     31 H4         -7.4667  -14.1163    9.5379 H         1 <0>         0.0603
     32 H5         -5.7457  -14.5705    9.5275 H         1 <0>         0.0602
     33 H6         -5.1652  -12.3945   10.5651 H         1 <0>         0.0605
     34 H7         -6.8862  -11.9403   10.5755 H         1 <0>         0.0606
     35 H8         -6.9527  -12.1355    8.1045 H         1 <0>         0.0605
     36 H9         -5.2317  -12.5897    8.0940 H         1 <0>         0.0605
     37 H10        -4.6511  -10.4137    9.1317 H         1 <0>         0.0604
     38 H11        -6.3721   -9.9595    9.1421 H         1 <0>         0.0604
     39 H12        -6.4386  -10.1547    6.6711 H         1 <0>         0.0604
     40 H13        -4.7176  -10.6089    6.6606 H         1 <0>         0.0603
     41 H14        -4.1371   -8.4330    7.6983 H         1 <0>         0.0603
     42 H15        -5.8581   -7.9788    7.7087 H         1 <0>         0.0604
     43 H16        -5.9246   -8.1740    5.2377 H         1 <0>         0.0604
     44 H17        -4.2036   -8.6282    5.2272 H         1 <0>         0.0603
     45 H18        -3.6230   -6.4522    6.2648 H         1 <0>         0.0603
     46 H19        -5.3440   -5.9980    6.2753 H         1 <0>         0.0604
     47 H20        -5.4105   -6.1932    3.8042 H         1 <0>         0.0606
     48 H21        -3.6895   -6.6474    3.7938 H         1 <0>         0.0604
     49 H22        -3.1089   -4.4714    4.8314 H         1 <0>         0.0606
     50 H23        -4.8300   -4.0172    4.8419 H         1 <0>         0.0607
     51 H24        -4.8965   -4.2124    2.3708 H         1 <0>         0.0616
     52 H25        -3.1755   -4.6666    2.3604 H         1 <0>         0.0614
     53 H26        -2.5949   -2.4906    3.3980 H         1 <0>         0.0621
     54 H27        -4.3159   -2.0364    3.4085 H         1 <0>         0.0623
     55 H28        -4.3824   -2.2317    0.9374 H         1 <0>         0.0667
     56 H29        -2.6614   -2.6859    0.9270 H         1 <0>         0.0661
     57 H30        -2.0808   -0.5099    1.9646 H         1 <0>         0.0703
     58 H31        -3.8018   -0.0557    1.9750 H         1 <0>         0.0700
     59 H32        -3.8684   -0.2509   -0.4960 H         1 <0>         0.0960
     60 H33        -2.1474   -0.7051   -0.5065 H         1 <0>         0.0932
     61 H34         0.0021   -0.0041    0.0020 H         1 <0>         0.1354
     62 H35         2.1145    1.2465   -0.0114 H         1 <0>         0.1397
     63 H36         2.1124    3.7052    0.0010 H         1 <0>         0.1391
     64 H37        -0.0185    4.9378    0.0268 H         1 <0>         0.1393
@<TRIPOS>BOND
     1    1    2 1
     2    1   28 1
     3    1   29 1
     4    1   30 1
     5    2    3 1
     6    2   31 1
     7    2   32 1
     8    3    4 1
     9    3   33 1
    10    3   34 1
    11    4    5 1
    12    4   35 1
    13    4   36 1
    14    5    6 1
    15    5   37 1
    16    5   38 1
    17    6    7 1
    18    6   39 1
    19    6   40 1
    20    7    8 1
    21    7   41 1
    22    7   42 1
    23    8    9 1
    24    8   43 1
    25    8   44 1
    26    9   10 1
    27    9   45 1
    28    9   46 1
    29   10   11 1
    30   10   47 1
    31   10   48 1
    32   11   12 1
    33   11   49 1
    34   11   50 1
    35   12   13 1
    36   12   51 1
    37   12   52 1
    38   13   14 1
    39   13   53 1
    40   13   54 1
    41   14   15 1
    42   14   55 1
    43   14   56 1
    44   15   16 1
    45   15   57 1
    46   15   58 1
    47   16   17 1
    48   16   59 1
    49   16   60 1
    50   17   26 am
    51   17   18 1
    52   18   23 ar
    53   18   19 ar
    54   19   20 ar
    55   19   61 1
    56   20   21 ar
    57   20   62 1
    58   21   22 ar
    59   21   63 1
    60   22   23 ar
    61   22   64 1
    62   23   24 1
    63   24   25 2
    64   24   26 1
    65   26   27 2
@<TRIPOS>MOLECULE
ZINC14979616
   16    17     0     0     0
SMALL
USER_CHARGES
6,7-dichloroindoline-2,3-dione
@<TRIPOS>ATOM
      1 C1          2.4306    0.0584   -0.0213 C.ar      1 <0>         0.0151
      2 C2          2.3906    1.4374   -0.0140 C.ar      1 <0>        -0.1331
      3 C3          1.1714    2.0968    0.0021 C.ar      1 <0>         0.0378
      4 C4         -0.0168    1.3843    0.0097 C.ar      1 <0>        -0.0738
      5 C5          0.0021   -0.0041    0.0020 C.ar      1 <0>         0.2163
      6 C6          1.2398   -0.6686   -0.0134 C.ar      1 <0>        -0.2247
      7 C7          0.9427   -2.1123   -0.0183 C.2       1 <0>         0.3942
      8 O1          1.7356   -3.0310   -0.0312 O.2       1 <0>        -0.3543
      9 C8         -0.5546   -2.1966   -0.0044 C.2       1 <0>         0.4980
     10 O2         -1.2155   -3.2138   -0.0032 O.2       1 <0>        -0.4321
     11 N1         -1.0309   -0.9396    0.0069 N.am      1 <0>        -0.6456
     12 Cl1        -1.5330    2.2296    0.0214 Cl        1 <0>        -0.0292
     13 Cl2         1.1329    3.8324    0.0113 Cl        1 <0>        -0.0192
     14 H1          3.3799   -0.4564   -0.0336 H         1 <0>         0.1588
     15 H2          3.3102    2.0038   -0.0200 H         1 <0>         0.1611
     16 H3         -1.9739   -0.7125    0.0166 H         1 <0>         0.4306
@<TRIPOS>BOND
     1    1    6 ar
     2    1    2 ar
     3    1   14 1
     4    2    3 ar
     5    2   15 1
     6    3    4 ar
     7    3   13 1
     8    4    5 ar
     9    4   12 1
    10    5   11 1
    11    5    6 ar
    12    6    7 1
    13    7    8 2
    14    7    9 1
    15    9   10 2
    16    9   11 am
    17   11   16 1
@<TRIPOS>MOLECULE
ZINC02272127
   52    53     0     0     0
SMALL
USER_CHARGES
1-dodecylindoline-2,3-dione
@<TRIPOS>ATOM
      1 C1         -5.6067  -10.5350    8.6215 C.3       1 <0>        -0.1544
      2 C2         -5.4831  -10.0335    7.1813 C.3       1 <0>        -0.1261
      3 C3         -5.0926   -8.5542    7.1881 C.3       1 <0>        -0.1214
      4 C4         -4.9690   -8.0527    5.7479 C.3       1 <0>        -0.1211
      5 C5         -4.5786   -6.5734    5.7546 C.3       1 <0>        -0.1209
      6 C6         -4.4550   -6.0720    4.3144 C.3       1 <0>        -0.1205
      7 C7         -4.0645   -4.5926    4.3212 C.3       1 <0>        -0.1209
      8 C8         -3.9409   -4.0912    2.8810 C.3       1 <0>        -0.1201
      9 C9         -3.5505   -2.6119    2.8878 C.3       1 <0>        -0.1196
     10 C10        -3.4269   -2.1104    1.4476 C.3       1 <0>        -0.1163
     11 C11        -3.0364   -0.6311    1.4544 C.3       1 <0>        -0.1388
     12 C12        -2.9128   -0.1297    0.0142 C.3       1 <0>         0.1094
     13 N1         -2.5389    1.2868    0.0207 N.am      1 <0>        -0.5457
     14 C13        -1.2259    1.7517    0.0174 C.ar      1 <0>         0.1947
     15 C14        -0.0126    1.0758    0.0080 C.ar      1 <0>        -0.1506
     16 C15         1.1762    1.7810    0.0004 C.ar      1 <0>        -0.0421
     17 C16         1.1766    3.1661    0.0074 C.ar      1 <0>        -0.1562
     18 C17        -0.0174    3.8579    0.0220 C.ar      1 <0>        -0.0043
     19 C18        -1.2226    3.1560    0.0302 C.ar      1 <0>        -0.2410
     20 C19        -2.6348    3.5805    0.0462 C.2       1 <0>         0.3895
     21 O1         -3.0669    4.7145    0.0561 O.2       1 <0>        -0.3690
     22 C20        -3.4197    2.3023    0.0301 C.2       1 <0>         0.4903
     23 O2         -4.6287    2.2030    0.0349 O.2       1 <0>        -0.4447
     24 H1         -4.6511  -10.4137    9.1317 H         1 <0>         0.0533
     25 H2         -6.3721   -9.9595    9.1421 H         1 <0>         0.0534
     26 H3         -5.8848  -11.5889    8.6166 H         1 <0>         0.0536
     27 H4         -6.4386  -10.1547    6.6711 H         1 <0>         0.0603
     28 H5         -4.7176  -10.6089    6.6606 H         1 <0>         0.0602
     29 H6         -4.1371   -8.4330    7.6983 H         1 <0>         0.0605
     30 H7         -5.8581   -7.9788    7.7087 H         1 <0>         0.0606
     31 H8         -5.9246   -8.1740    5.2377 H         1 <0>         0.0606
     32 H9         -4.2036   -8.6282    5.2272 H         1 <0>         0.0605
     33 H10        -3.6230   -6.4522    6.2648 H         1 <0>         0.0604
     34 H11        -5.3440   -5.9980    6.2753 H         1 <0>         0.0605
     35 H12        -5.4105   -6.1932    3.8042 H         1 <0>         0.0607
     36 H13        -3.6895   -6.6474    3.7938 H         1 <0>         0.0605
     37 H14        -3.1089   -4.4714    4.8314 H         1 <0>         0.0606
     38 H15        -4.8300   -4.0172    4.8419 H         1 <0>         0.0608
     39 H16        -4.8965   -4.2124    2.3708 H         1 <0>         0.0617
     40 H17        -3.1755   -4.6666    2.3604 H         1 <0>         0.0614
     41 H18        -2.5949   -2.4906    3.3980 H         1 <0>         0.0621
     42 H19        -4.3159   -2.0364    3.4085 H         1 <0>         0.0623
     43 H20        -4.3824   -2.2317    0.9374 H         1 <0>         0.0667
     44 H21        -2.6614   -2.6859    0.9270 H         1 <0>         0.0661
     45 H22        -2.0808   -0.5099    1.9646 H         1 <0>         0.0703
     46 H23        -3.8018   -0.0557    1.9750 H         1 <0>         0.0700
     47 H24        -3.8684   -0.2509   -0.4960 H         1 <0>         0.0960
     48 H25        -2.1474   -0.7051   -0.5065 H         1 <0>         0.0932
     49 H26         0.0021   -0.0041    0.0020 H         1 <0>         0.1354
     50 H27         2.1145    1.2465   -0.0114 H         1 <0>         0.1397
     51 H28         2.1124    3.7052    0.0010 H         1 <0>         0.1391
     52 H29        -0.0185    4.9378    0.0268 H         1 <0>         0.1393
@<TRIPOS>BOND
     1    1    2 1
     2    1   24 1
     3    1   25 1
     4    1   26 1
     5    2    3 1
     6    2   27 1
     7    2   28 1
     8    3    4 1
     9    3   29 1
    10    3   30 1
    11    4    5 1
    12    4   31 1
    13    4   32 1
    14    5    6 1
    15    5   33 1
    16    5   34 1
    17    6    7 1
    18    6   35 1
    19    6   36 1
    20    7    8 1
    21    7   37 1
    22    7   38 1
    23    8    9 1
    24    8   39 1
    25    8   40 1
    26    9   10 1
    27    9   41 1
    28    9   42 1
    29   10   11 1
    30   10   43 1
    31   10   44 1
    32   11   12 1
    33   11   45 1
    34   11   46 1
    35   12   13 1
    36   12   47 1
    37   12   48 1
    38   13   22 am
    39   13   14 1
    40   14   19 ar
    41   14   15 ar
    42   15   16 ar
    43   15   49 1
    44   16   17 ar
    45   16   50 1
    46   17   18 ar
    47   17   51 1
    48   18   19 ar
    49   18   52 1
    50   19   20 1
    51   20   21 2
    52   20   22 1
    53   22   23 2
@<TRIPOS>MOLECULE
ZINC02709443
   31    33     0     0     0
SMALL
USER_CHARGES
1-[(4-chlorophenyl)aminomethyl]indoline-2,3-dione
@<TRIPOS>ATOM
      1 C1         -0.0126    1.0758    0.0080 C.ar      1 <0>        -0.1546
      2 C2          1.1778    1.7839    0.0004 C.ar      1 <0>        -0.0421
      3 C3          1.1766    3.1661    0.0074 C.ar      1 <0>        -0.1515
      4 C4         -0.0242    3.8637    0.0221 C.ar      1 <0>         0.1934
      5 C5         -1.2298    3.1434    0.0298 C.ar      1 <0>        -0.2386
      6 C6         -1.2174    1.7488    0.0173 C.ar      1 <0>        -0.0044
      7 C7         -2.3163    4.1404    0.0450 C.2       1 <0>         0.3877
      8 O1         -3.5118    3.9325    0.0551 O.2       1 <0>        -0.3679
      9 C8         -1.6184    5.4682    0.0451 C.2       1 <0>         0.4922
     10 O2         -2.1507    6.5581    0.0556 O.2       1 <0>        -0.4355
     11 N1         -0.2955    5.2299    0.0315 N.am      1 <0>        -0.5597
     12 C9          0.7311    6.2751    0.0267 C.3       1 <0>         0.3329
     13 N2          1.0599    6.6303   -1.3560 N.pl3     1 <0>        -0.7456
     14 C10         0.4267    7.7153   -1.9681 C.ar      1 <0>         0.2001
     15 C11        -0.5187    8.4543   -1.2686 C.ar      1 <0>        -0.1688
     16 C12        -1.1384    9.5300   -1.8739 C.ar      1 <0>        -0.0618
     17 C13        -0.8272    9.8641   -3.1802 C.ar      1 <0>        -0.0814
     18 C14         0.1101    9.1261   -3.8814 C.ar      1 <0>        -0.0681
     19 C15         0.7374    8.0532   -3.2790 C.ar      1 <0>        -0.1726
     20 Cl1        -1.6137   11.2120   -3.9406 Cl        1 <0>        -0.0759
     21 H1          0.0021   -0.0041    0.0020 H         1 <0>         0.1393
     22 H2          2.1168    1.2504   -0.0114 H         1 <0>         0.1399
     23 H3          2.1124    3.7053    0.0010 H         1 <0>         0.1339
     24 H4         -2.1464    1.1980    0.0191 H         1 <0>         0.1393
     25 H5          0.3558    7.1554    0.5486 H         1 <0>         0.1145
     26 H6          1.6256    5.9081    0.5301 H         1 <0>         0.1139
     27 H7          1.7171    6.1124   -1.8466 H         1 <0>         0.4050
     28 H8         -0.7657    8.1908   -0.2508 H         1 <0>         0.1391
     29 H9         -1.8698   10.1081   -1.3288 H         1 <0>         0.1335
     30 H10         0.3516    9.3895   -4.9006 H         1 <0>         0.1337
     31 H11         1.4691    7.4778   -3.8266 H         1 <0>         0.1300
@<TRIPOS>BOND
     1    1    6 ar
     2    1    2 ar
     3    1   21 1
     4    2    3 ar
     5    2   22 1
     6    3    4 ar
     7    3   23 1
     8    4   11 1
     9    4    5 ar
    10    5    6 ar
    11    5    7 1
    12    6   24 1
    13    7    8 2
    14    7    9 1
    15    9   10 2
    16    9   11 am
    17   11   12 1
    18   12   13 1
    19   12   25 1
    20   12   26 1
    21   13   14 1
    22   13   27 1
    23   14   19 ar
    24   14   15 ar
    25   15   16 ar
    26   15   28 1
    27   16   17 ar
    28   16   29 1
    29   17   18 ar
    30   17   20 1
    31   18   19 ar
    32   18   30 1
    33   19   31 1
@<TRIPOS>MOLECULE
ZINC02028582
   59    64     0     0     0
SMALL
USER_CHARGES
1-[[4-[[4-[(2,3-dioxoindolin-1-yl)methyl]phenyl]methyl]phenyl]methyl]indoline-2,3-dione
@<TRIPOS>ATOM
      1 C1         -0.0126    1.0758    0.0080 C.ar      1 <0>        -0.1559
      2 C2         -1.2217    1.7512    0.0174 C.ar      1 <0>        -0.0415
      3 C3         -1.2580    3.1329    0.0309 C.ar      1 <0>        -0.1511
      4 C4         -0.0765    3.8629    0.0235 C.ar      1 <0>         0.1970
      5 C5          1.1482    3.1758    0.0082 C.ar      1 <0>        -0.2403
      6 C6          1.1735    1.7813    0.0004 C.ar      1 <0>        -0.0039
      7 C7          2.2071    4.2021    0.0036 C.2       1 <0>         0.3900
      8 O1          3.4079    4.0268   -0.0092 O.2       1 <0>        -0.3690
      9 C8          1.4735    5.5103    0.0176 C.2       1 <0>         0.4922
     10 O2          1.9760    6.6144    0.0187 O.2       1 <0>        -0.4442
     11 N1          0.1575    5.2361    0.0287 N.am      1 <0>        -0.5411
     12 C9         -0.8971    6.2528    0.0442 C.3       1 <0>         0.1528
     13 C10        -1.2718    6.6095   -1.3712 C.ar      1 <0>        -0.1240
     14 C11        -0.6167    7.6387   -2.0212 C.ar      1 <0>        -0.0917
     15 C12        -0.9575    7.9630   -3.3210 C.ar      1 <0>        -0.1139
     16 C13        -1.9596    7.2642   -3.9677 C.ar      1 <0>        -0.0638
     17 C14        -2.6183    6.2385   -3.3159 C.ar      1 <0>        -0.1149
     18 C15        -2.2746    5.9113   -2.0176 C.ar      1 <0>        -0.0948
     19 C16        -2.3336    7.6202   -5.3835 C.3       1 <0>        -0.0471
     20 C17        -3.4192    8.6654   -5.3685 C.ar      1 <0>        -0.0638
     21 C18        -4.7474    8.2823   -5.3649 C.ar      1 <0>        -0.1139
     22 C19        -5.7432    9.2409   -5.3468 C.ar      1 <0>        -0.0918
     23 C20        -5.4108   10.5827   -5.3415 C.ar      1 <0>        -0.1238
     24 C21        -4.0827   10.9658   -5.3504 C.ar      1 <0>        -0.0947
     25 C22        -3.0869   10.0071   -5.3642 C.ar      1 <0>        -0.1149
     26 C23        -6.4964   11.6279   -5.3255 C.3       1 <0>         0.1528
     27 N2         -6.8600   11.9754   -6.7015 N.am      1 <0>        -0.5411
     28 C24        -6.2602   12.9943   -7.4380 C.ar      1 <0>         0.1969
     29 C25        -5.2374   13.8781   -7.1190 C.ar      1 <0>        -0.1510
     30 C26        -4.8096   14.8102   -8.0456 C.ar      1 <0>        -0.0415
     31 C27        -5.3870   14.8736   -9.3030 C.ar      1 <0>        -0.1559
     32 C28        -6.4006   14.0012   -9.6432 C.ar      1 <0>        -0.0040
     33 C29        -6.8398   13.0567   -8.7156 C.ar      1 <0>        -0.2403
     34 C30        -7.8749   12.0073   -8.7605 C.2       1 <0>         0.3900
     35 O3         -8.6105   11.7322   -9.6856 O.2       1 <0>        -0.3690
     36 C31        -7.8186   11.3551   -7.4110 C.2       1 <0>         0.4922
     37 O4         -8.5121   10.4360   -7.0291 O.2       1 <0>        -0.4442
     38 H1          0.0021   -0.0041    0.0020 H         1 <0>         0.1390
     39 H2         -2.1459    1.1924    0.0184 H         1 <0>         0.1397
     40 H3         -2.2080    3.6464    0.0427 H         1 <0>         0.1340
     41 H4          2.1170    1.2559   -0.0118 H         1 <0>         0.1392
     42 H5         -1.7716    5.8613    0.5639 H         1 <0>         0.1019
     43 H6         -0.5362    7.1428    0.5598 H         1 <0>         0.1047
     44 H7          0.1637    8.1871   -1.5146 H         1 <0>         0.1268
     45 H8         -0.4425    8.7642   -3.8304 H         1 <0>         0.1240
     46 H9         -3.4013    5.6925   -3.8212 H         1 <0>         0.1242
     47 H10        -2.7892    5.1099   -1.5083 H         1 <0>         0.1228
     48 H11        -1.4591    8.0122   -5.9027 H         1 <0>         0.0854
     49 H12        -2.6935    6.7298   -5.8990 H         1 <0>         0.0854
     50 H13        -5.0071    7.2340   -5.3728 H         1 <0>         0.1240
     51 H14        -6.7809    8.9416   -5.3394 H         1 <0>         0.1268
     52 H15        -3.8230   12.0141   -5.3463 H         1 <0>         0.1228
     53 H16        -2.0492   10.3065   -5.3711 H         1 <0>         0.1242
     54 H17        -7.3710   11.2354   -4.8067 H         1 <0>         0.1046
     55 H18        -6.1365   12.5177   -4.8090 H         1 <0>         0.1018
     56 H19        -4.7784   13.8402   -6.1421 H         1 <0>         0.1340
     57 H20        -4.0170   15.4965   -7.7864 H         1 <0>         0.1397
     58 H21        -5.0437   15.6069  -10.0178 H         1 <0>         0.1390
     59 H22        -6.8515   14.0492  -10.6234 H         1 <0>         0.1392
@<TRIPOS>BOND
     1    1    6 ar
     2    1    2 ar
     3    1   38 1
     4    2    3 ar
     5    2   39 1
     6    3    4 ar
     7    3   40 1
     8    4   11 1
     9    4    5 ar
    10    5    6 ar
    11    5    7 1
    12    6   41 1
    13    7    8 2
    14    7    9 1
    15    9   10 2
    16    9   11 am
    17   11   12 1
    18   12   13 1
    19   12   42 1
    20   12   43 1
    21   13   18 ar
    22   13   14 ar
    23   14   15 ar
    24   14   44 1
    25   15   16 ar
    26   15   45 1
    27   16   17 ar
    28   16   19 1
    29   17   18 ar
    30   17   46 1
    31   18   47 1
    32   19   20 1
    33   19   48 1
    34   19   49 1
    35   20   25 ar
    36   20   21 ar
    37   21   22 ar
    38   21   50 1
    39   22   23 ar
    40   22   51 1
    41   23   24 ar
    42   23   26 1
    43   24   25 ar
    44   24   52 1
    45   25   53 1
    46   26   27 1
    47   26   54 1
    48   26   55 1
    49   27   36 am
    50   27   28 1
    51   28   33 ar
    52   28   29 ar
    53   29   30 ar
    54   29   56 1
    55   30   31 ar
    56   30   57 1
    57   31   32 ar
    58   31   58 1
    59   32   33 ar
    60   32   59 1
    61   33   34 1
    62   34   35 2
    63   34   36 1
    64   36   37 2
@<TRIPOS>MOLECULE
ZINC03123067
   34    36     0     0     0
SMALL
USER_CHARGES
1-(p-tolylaminomethyl)indoline-2,3-dione
@<TRIPOS>ATOM
      1 C1         -1.5103   11.0327   -3.8402 C.3       1 <0>        -0.1092
      2 C2         -0.8274    9.8626   -3.1801 C.ar      1 <0>        -0.1333
      3 C3          0.1096    9.1256   -3.8808 C.ar      1 <0>        -0.0803
      4 C4          0.7376    8.0530   -3.2788 C.ar      1 <0>        -0.1799
      5 C5          0.4270    7.7148   -1.9678 C.ar      1 <0>         0.1879
      6 C6         -0.5186    8.4540   -1.2685 C.ar      1 <0>        -0.1750
      7 C7         -1.1390    9.5286   -1.8748 C.ar      1 <0>        -0.0741
      8 N1          1.0599    6.6303   -1.3560 N.pl3     1 <0>        -0.7487
      9 C8          0.7311    6.2751    0.0267 C.3       1 <0>         0.3342
     10 N2         -0.2955    5.2299    0.0315 N.am      1 <0>        -0.5594
     11 C9         -0.0242    3.8637    0.0221 C.ar      1 <0>         0.1949
     12 C10         1.1766    3.1661    0.0074 C.ar      1 <0>        -0.1522
     13 C11         1.1778    1.7839    0.0004 C.ar      1 <0>        -0.0420
     14 C12        -0.0126    1.0758    0.0080 C.ar      1 <0>        -0.1557
     15 C13        -1.2174    1.7488    0.0173 C.ar      1 <0>        -0.0044
     16 C14        -1.2298    3.1434    0.0298 C.ar      1 <0>        -0.2397
     17 C15        -2.3163    4.1404    0.0450 C.2       1 <0>         0.3878
     18 O1         -3.5118    3.9325    0.0551 O.2       1 <0>        -0.3694
     19 C16        -1.6184    5.4682    0.0451 C.2       1 <0>         0.4918
     20 O2         -2.1507    6.5581    0.0556 O.2       1 <0>        -0.4349
     21 H1         -2.4183   10.6906   -4.3368 H         1 <0>         0.0655
     22 H2         -1.7669   11.7764   -3.0858 H         1 <0>         0.0632
     23 H3         -0.8395   11.4773   -4.5753 H         1 <0>         0.0628
     24 H4          0.3503    9.3888   -4.9002 H         1 <0>         0.1214
     25 H5          1.4695    7.4780   -3.8265 H         1 <0>         0.1194
     26 H6         -0.7656    8.1910   -0.2505 H         1 <0>         0.1299
     27 H7         -1.8712   10.1063   -1.3303 H         1 <0>         0.1213
     28 H8          1.7171    6.1124   -1.8466 H         1 <0>         0.4024
     29 H9          0.3558    7.1554    0.5486 H         1 <0>         0.1132
     30 H10         1.6256    5.9081    0.5301 H         1 <0>         0.1112
     31 H11         2.1124    3.7053    0.0010 H         1 <0>         0.1337
     32 H12         2.1168    1.2504   -0.0114 H         1 <0>         0.1396
     33 H13         0.0021   -0.0041    0.0020 H         1 <0>         0.1390
     34 H14        -2.1464    1.1980    0.0191 H         1 <0>         0.1389
@<TRIPOS>BOND
     1    1    2 1
     2    1   21 1
     3    1   22 1
     4    1   23 1
     5    2    7 ar
     6    2    3 ar
     7    3    4 ar
     8    3   24 1
     9    4    5 ar
    10    4   25 1
    11    5    6 ar
    12    5    8 1
    13    6    7 ar
    14    6   26 1
    15    7   27 1
    16    8    9 1
    17    8   28 1
    18    9   10 1
    19    9   29 1
    20    9   30 1
    21   10   19 am
    22   10   11 1
    23   11   16 ar
    24   11   12 ar
    25   12   13 ar
    26   12   31 1
    27   13   14 ar
    28   13   32 1
    29   14   15 ar
    30   14   33 1
    31   15   16 ar
    32   15   34 1
    33   16   17 1
    34   17   18 2
    35   17   19 1
    36   19   20 2
@<TRIPOS>MOLECULE
ZINC02668691
   22    23     0     0     0
SMALL
USER_CHARGES
1-(2-bromoethyl)indoline-2,3-dione
@<TRIPOS>ATOM
      1 C1          1.1766    3.1661    0.0074 C.ar      1 <0>        -0.1528
      2 C2          1.1762    1.7810    0.0004 C.ar      1 <0>        -0.0413
      3 C3         -0.0126    1.0758    0.0080 C.ar      1 <0>        -0.1495
      4 C4         -1.2259    1.7517    0.0174 C.ar      1 <0>         0.1891
      5 C5         -1.2226    3.1560    0.0302 C.ar      1 <0>        -0.2369
      6 C6         -0.0174    3.8579    0.0220 C.ar      1 <0>        -0.0040
      7 C7         -2.6348    3.5805    0.0462 C.2       1 <0>         0.3908
      8 O1         -3.0669    4.7145    0.0561 O.2       1 <0>        -0.3655
      9 C8         -3.4197    2.3023    0.0301 C.2       1 <0>         0.4908
     10 O2         -4.6287    2.2030    0.0349 O.2       1 <0>        -0.4398
     11 N1         -2.5389    1.2868    0.0207 N.am      1 <0>        -0.5464
     12 C9         -2.9128   -0.1297    0.0142 C.3       1 <0>         0.1122
     13 C10        -3.0364   -0.6311    1.4544 C.3       1 <0>        -0.1058
     14 Br1        -3.5381   -2.5320    1.4457 Br        1 <0>        -0.1293
     15 H1          2.1124    3.7052    0.0010 H         1 <0>         0.1403
     16 H2          2.1145    1.2465   -0.0114 H         1 <0>         0.1412
     17 H3          0.0021   -0.0041    0.0020 H         1 <0>         0.1364
     18 H4         -0.0185    4.9378    0.0268 H         1 <0>         0.1406
     19 H5         -3.8684   -0.2509   -0.4960 H         1 <0>         0.1090
     20 H6         -2.1474   -0.7051   -0.5065 H         1 <0>         0.1063
     21 H7         -2.0808   -0.5099    1.9646 H         1 <0>         0.1079
     22 H8         -3.8018   -0.0557    1.9750 H         1 <0>         0.1070
@<TRIPOS>BOND
     1    1    6 ar
     2    1    2 ar
     3    1   15 1
     4    2    3 ar
     5    2   16 1
     6    3    4 ar
     7    3   17 1
     8    4   11 1
     9    4    5 ar
    10    5    6 ar
    11    5    7 1
    12    6   18 1
    13    7    8 2
    14    7    9 1
    15    9   10 2
    16    9   11 am
    17   11   12 1
    18   12   13 1
    19   12   19 1
    20   12   20 1
    21   13   14 1
    22   13   21 1
    23   13   22 1
@<TRIPOS>MOLECULE
ZINC02169010
   16    17     0     0     0
SMALL
USER_CHARGES
4,7-dichloroindoline-2,3-dione
@<TRIPOS>ATOM
      1 C1         -3.4540    2.9076    0.0494 C.ar      1 <0>        -0.1327
      2 C2         -2.9781    4.2073    0.0524 C.ar      1 <0>        -0.0203
      3 C3         -1.6179    4.4617    0.0411 C.ar      1 <0>        -0.0723
      4 C4         -0.7099    3.4103    0.0272 C.ar      1 <0>         0.2186
      5 C5         -1.1944    2.0922    0.0182 C.ar      1 <0>        -0.2263
      6 C6         -2.5690    1.8462    0.0352 C.ar      1 <0>         0.0719
      7 Cl1        -3.1632    0.2151    0.0315 Cl        1 <0>        -0.0225
      8 C7         -0.0144    1.2095    0.0087 C.2       1 <0>         0.3907
      9 O1          0.0021   -0.0041    0.0020 O.2       1 <0>        -0.3435
     10 C8          1.1616    2.1402    0.0025 C.2       1 <0>         0.4996
     11 O2          2.3312    1.8180   -0.0104 O.2       1 <0>        -0.4313
     12 N1          0.6835    3.3965    0.0138 N.am      1 <0>        -0.6456
     13 Cl2        -1.0442    6.1002    0.0439 Cl        1 <0>        -0.0411
     14 H1         -4.5180    2.7227    0.0580 H         1 <0>         0.1611
     15 H2         -3.6758    5.0317    0.0632 H         1 <0>         0.1623
     16 H3          1.2380    4.1924    0.0131 H         1 <0>         0.4316
@<TRIPOS>BOND
     1    1    6 ar
     2    1    2 ar
     3    1   14 1
     4    2    3 ar
     5    2   15 1
     6    3    4 ar
     7    3   13 1
     8    4   12 1
     9    4    5 ar
    10    5    6 ar
    11    5    8 1
    12    6    7 1
    13    8    9 2
    14    8   10 1
    15   10   11 2
    16   10   12 am
    17   12   16 1
@<TRIPOS>MOLECULE
ZINC02099787
   26    27     0     0     0
SMALL
USER_CHARGES
5-bromo-1-(2-methylprop-2-enyl)indoline-2,3-dione
@<TRIPOS>ATOM
      1 C1          0.0021   -0.0041    0.0020 C.3       1 <0>        -0.1190
      2 C2         -0.0184    1.5028    0.0103 C.2       1 <0>        -0.1575
      3 C3          1.1071    2.1731    0.0032 C.2       1 <0>        -0.1591
      4 C4         -1.3335    2.2385    0.0205 C.3       1 <0>         0.1440
      5 N1         -1.8250    2.3793   -1.3524 N.am      1 <0>        -0.5404
      6 C5         -1.5333    3.4589   -2.1836 C.ar      1 <0>         0.2141
      7 C6         -0.7597    4.5936   -1.9770 C.ar      1 <0>        -0.1445
      8 C7         -0.6189    5.5320   -2.9820 C.ar      1 <0>        -0.0120
      9 C8         -1.2397    5.3536   -4.2080 C.ar      1 <0>        -0.1343
     10 C9         -2.0091    4.2300   -4.4365 C.ar      1 <0>         0.0255
     11 C10        -2.1571    3.2773   -3.4285 C.ar      1 <0>        -0.2352
     12 C11        -2.8905    2.0004   -3.3503 C.2       1 <0>         0.3923
     13 O1         -3.5656    1.4803   -4.2143 O.2       1 <0>        -0.3613
     14 C12        -2.6191    1.4861   -1.9677 C.2       1 <0>         0.4931
     15 O2         -3.0401    0.4529   -1.4913 O.2       1 <0>        -0.4356
     16 Br1        -1.0337    6.6503   -5.5690 Br        1 <0>        -0.0288
     17 H1          1.0345   -0.3534   -0.0097 H         1 <0>         0.0656
     18 H2         -0.4983   -0.3791    0.8948 H         1 <0>         0.0707
     19 H3         -0.5153   -0.3696   -0.8850 H         1 <0>         0.0649
     20 H4          1.0924    3.2530    0.0091 H         1 <0>         0.1006
     21 H5          2.0496    1.6459   -0.0087 H         1 <0>         0.1068
     22 H6         -2.0588    1.6779    0.6104 H         1 <0>         0.1046
     23 H7         -1.1939    3.2263    0.4596 H         1 <0>         0.1009
     24 H8         -0.2704    4.7457   -1.0263 H         1 <0>         0.1446
     25 H9         -0.0187    6.4132   -2.8101 H         1 <0>         0.1504
     26 H10        -2.4942    4.0895   -5.3911 H         1 <0>         0.1497
@<TRIPOS>BOND
     1    1    2 1
     2    1   17 1
     3    1   18 1
     4    1   19 1
     5    2    3 2
     6    2    4 1
     7    3   20 1
     8    3   21 1
     9    4    5 1
    10    4   22 1
    11    4   23 1
    12    5   14 am
    13    5    6 1
    14    6   11 ar
    15    6    7 ar
    16    7    8 ar
    17    7   24 1
    18    8    9 ar
    19    8   25 1
    20    9   10 ar
    21    9   16 1
    22   10   11 ar
    23   10   26 1
    24   11   12 1
    25   12   13 2
    26   12   14 1
    27   14   15 2
@<TRIPOS>MOLECULE
ZINC01691218
   17    18     0     0     0
SMALL
USER_CHARGES
indane-1,2-dione
@<TRIPOS>ATOM
      1 C1          0.5499    5.9326    0.0286 C.ar      1 <0>        -0.0721
      2 C2         -0.8342    5.8935    0.0417 C.ar      1 <0>        -0.1313
      3 C3         -1.4926    4.6841    0.0415 C.ar      1 <0>        -0.0389
      4 C4         -0.7607    3.4871    0.0281 C.ar      1 <0>        -0.1905
      5 C5          0.6344    3.5368    0.0150 C.ar      1 <0>        -0.0455
      6 C6          1.2800    4.7573    0.0158 C.ar      1 <0>        -0.1145
      7 C7          1.1795    2.1296    0.0022 C.3       1 <0>        -0.1271
      8 C8         -0.0143    1.2037    0.0087 C.2       1 <0>         0.3403
      9 O1          0.0021   -0.0041    0.0020 O.2       1 <0>        -0.3744
     10 C9         -1.2166    2.0849    0.0183 C.2       1 <0>         0.3545
     11 O2         -2.3719    1.7123    0.0210 O.2       1 <0>        -0.3863
     12 H1          1.0614    6.8838    0.0289 H         1 <0>         0.1365
     13 H2         -1.3989    6.8141    0.0523 H         1 <0>         0.1365
     14 H3         -2.5722    4.6569    0.0520 H         1 <0>         0.1343
     15 H4          2.3593    4.7948    0.0061 H         1 <0>         0.1352
     16 H5          1.7518    1.9865    0.8097 H         1 <0>         0.1147
     17 H6          1.7735    1.9667   -0.8971 H         1 <0>         0.1285
@<TRIPOS>BOND
     1    1    6 ar
     2    1    2 ar
     3    1   12 1
     4    2    3 ar
     5    2   13 1
     6    3    4 ar
     7    3   14 1
     8    4   10 1
     9    4    5 ar
    10    5    6 ar
    11    5    7 1
    12    6   15 1
    13    7    8 1
    14    7   16 1
    15    7   17 1
    16    8    9 2
    17    8   10 1
    18   10   11 2
