@<TRIPOS>MOLECULE
ZINC00390960
   38    39     0     0     0
SMALL
USER_CHARGES

@<TRIPOS>ATOM
      1 C1          6.1519   -2.6941    4.3398 C.3       1 <0>        -0.1165
      2 C2          4.7999   -2.0967    4.6337 C.ar      1 <0>        -0.0633
      3 C3          4.7081   -0.9001    5.3212 C.ar      1 <0>        -0.1355
      4 C4          3.4696   -0.3488    5.5928 C.ar      1 <0>        -0.0924
      5 C5          2.3197   -0.9919    5.1779 C.ar      1 <0>        -0.1502
      6 C6          2.4085   -2.1932    4.4875 C.ar      1 <0>         0.1608
      7 C7          3.6543   -2.7416    4.2113 C.ar      1 <0>        -0.1299
      8 N1          1.2453   -2.8473    4.0658 N.am      1 <0>        -0.6433
      9 C8          1.2496   -4.1835    3.8900 C.2       1 <0>         0.6476
     10 O1          2.2276   -4.8341    4.2013 O.2       1 <0>        -0.5317
     11 O2          0.1700   -4.7977    3.3693 O.3       1 <0>        -0.2984
     12 C9          0.1763   -6.1556    3.3073 C.ar      1 <0>         0.1229
     13 C10         0.1851   -6.7945    2.0751 C.ar      1 <0>        -0.1253
     14 C11         0.1915   -8.1747    2.0106 C.ar      1 <0>        -0.0810
     15 C12         0.1896   -8.9232    3.1720 C.ar      1 <0>        -0.1350
     16 C13         0.1808   -8.2892    4.4076 C.ar      1 <0>         0.1751
     17 C14         0.1796   -6.9029    4.4744 C.ar      1 <0>        -0.1201
     18 N2          0.1784   -9.0473    5.5840 N.am      1 <0>        -0.6491
     19 C15        -0.4932   -8.6086    6.6670 C.2       1 <0>         0.6473
     20 O3         -1.1770   -7.6068    6.5933 O.2       1 <0>        -0.5492
     21 O4         -0.4066   -9.2804    7.8307 O.3       1 <0>        -0.3600
     22 C16        -1.1448   -8.7588    8.9375 C.3       1 <0>         0.0521
     23 H1          6.5136   -2.3207    3.3817 H         1 <0>         0.0728
     24 H2          6.8519   -2.4136    5.1268 H         1 <0>         0.0690
     25 H3          6.0679   -3.7800    4.2982 H         1 <0>         0.0688
     26 H4          5.6057   -0.3956    5.6469 H         1 <0>         0.1252
     27 H5          3.4012    0.5855    6.1301 H         1 <0>         0.1299
     28 H6          1.3525   -0.5609    5.3906 H         1 <0>         0.1284
     29 H7          3.7268   -3.6737    3.6706 H         1 <0>         0.1439
     30 H8          0.4360   -2.3389    3.9001 H         1 <0>         0.4204
     31 H9          0.1866   -6.2121    1.1657 H         1 <0>         0.1377
     32 H10         0.1977   -8.6693    1.0506 H         1 <0>         0.1430
     33 H11         0.1946  -10.0018    3.1189 H         1 <0>         0.1375
     34 H12         0.1773   -6.4075    5.4340 H         1 <0>         0.1402
     35 H13         0.6601   -9.8885    5.6199 H         1 <0>         0.4217
     36 H14        -2.2059   -8.7386    8.6893 H         1 <0>         0.0646
     37 H15        -0.9877   -9.3927    9.8102 H         1 <0>         0.1087
     38 H16        -0.8037   -7.7471    9.1573 H         1 <0>         0.0636
@<TRIPOS>BOND
     1    1    2 1
     2    1   23 1
     3    1   24 1
     4    1   25 1
     5    2    7 ar
     6    2    3 ar
     7    3    4 ar
     8    3   26 1
     9    4    5 ar
    10    4   27 1
    11    5    6 ar
    12    5   28 1
    13    6    7 ar
    14    6    8 1
    15    7   29 1
    16    8    9 am
    17    8   30 1
    18    9   10 2
    19    9   11 1
    20   11   12 1
    21   12   17 ar
    22   12   13 ar
    23   13   14 ar
    24   13   31 1
    25   14   15 ar
    26   14   32 1
    27   15   16 ar
    28   15   33 1
    29   16   17 ar
    30   16   18 1
    31   17   34 1
    32   18   19 am
    33   18   35 1
    34   19   20 2
    35   19   21 1
    36   21   22 1
    37   22   36 1
    38   22   37 1
    39   22   38 1
@<TRIPOS>MOLECULE
ZINC04214849
   59    61     0     0     0
SMALL
USER_CHARGES

@<TRIPOS>ATOM
      1 C1          0.1925   -7.1993    2.2432 C.3       1 <0>        -0.1685
      2 C2          0.4787   -5.7560    1.8238 C.3       1 <0>         0.1270
      3 N1          1.0429   -5.7430    0.4719 N.am      1 <0>        -0.7388
      4 C3          1.3750   -4.5728   -0.1084 C.2       1 <0>         0.7095
      5 O1          1.1180   -3.5232    0.4489 O.2       1 <0>        -0.5633
      6 N2          1.9921   -4.5661   -1.3066 N.am      1 <0>        -0.6476
      7 C4          2.4733   -3.3101   -1.9026 C.3       1 <0>         0.1066
      8 C5          1.9569   -3.2268   -3.3428 C.3       1 <0>        -0.0204
      9 N3          2.3540   -4.4361   -4.0749 N.4       1 <0>        -0.3827
     10 C6          1.7004   -5.6129   -3.4883 C.3       1 <0>        -0.0258
     11 C7          2.2091   -5.8152   -2.0527 C.3       1 <0>         0.0893
     12 C8          1.9548   -4.3073   -5.4827 C.3       1 <0>        -0.0110
     13 C9          2.4767   -5.5091   -6.2728 C.3       1 <0>        -0.1510
     14 C10         2.0610   -5.3750   -7.7391 C.3       1 <0>        -0.1094
     15 C11         2.5829   -6.5768   -8.5291 C.3       1 <0>         0.0019
     16 C12         1.9097   -7.8321   -8.0371 C.ar      1 <0>        -0.0953
     17 C13         0.5306   -7.8922   -7.9619 C.ar      1 <0>        -0.0888
     18 C14        -0.0878   -9.0430   -7.5112 C.ar      1 <0>        -0.1505
     19 C15         0.6744  -10.1360   -7.1351 C.ar      1 <0>         0.1034
     20 C16         2.0555  -10.0747   -7.2109 C.ar      1 <0>        -0.1494
     21 C17         2.6716   -8.9247   -7.6668 C.ar      1 <0>        -0.0845
     22 F1          0.0709  -11.2614   -6.6940 F         1 <0>        -0.1346
     23 C18         2.2804   -6.3853   -9.9930 C.ar      1 <0>        -0.0983
     24 C19         0.9974   -6.0669  -10.3973 C.ar      1 <0>        -0.0865
     25 C20         0.7189   -5.8906  -11.7394 C.ar      1 <0>        -0.1504
     26 C21         1.7256   -6.0330  -12.6793 C.ar      1 <0>         0.1064
     27 C22         3.0103   -6.3520  -12.2732 C.ar      1 <0>        -0.1487
     28 C23         3.2875   -6.5227  -10.9301 C.ar      1 <0>        -0.0808
     29 F2          1.4544   -5.8614  -13.9916 F         1 <0>        -0.1340
     30 H1         -0.5190   -7.6453    1.5482 H         1 <0>         0.0628
     31 H2          1.1199   -7.7719    2.2310 H         1 <0>         0.0634
     32 H3         -0.2273   -7.2090    3.2490 H         1 <0>         0.0833
     33 H4         -0.4488   -5.1834    1.8360 H         1 <0>         0.0735
     34 H5          1.1902   -5.3100    2.5188 H         1 <0>         0.0726
     35 H6          1.1774   -6.5766   -0.0055 H         1 <0>         0.3950
     36 H7          2.0956   -2.4640   -1.3285 H         1 <0>         0.1391
     37 H8          3.5632   -3.2989   -1.9030 H         1 <0>         0.0943
     38 H9          0.8699   -3.1470   -3.3351 H         1 <0>         0.1341
     39 H10         2.3824   -2.3501   -3.8313 H         1 <0>         0.1457
     40 H11         0.6211   -5.4610   -3.4763 H         1 <0>         0.1346
     41 H12         1.9368   -6.4946   -4.0841 H         1 <0>         0.1452
     42 H13         3.2728   -6.0526   -2.0681 H         1 <0>         0.0989
     43 H14         1.6566   -6.6261   -1.5780 H         1 <0>         0.1199
     44 H15         0.8675   -4.2725   -5.5503 H         1 <0>         0.1303
     45 H16         2.3742   -3.3904   -5.8968 H         1 <0>         0.1351
     46 H17         3.5641   -5.5440   -6.2051 H         1 <0>         0.0909
     47 H18         2.0574   -6.4261   -5.8586 H         1 <0>         0.0901
     48 H19         0.9737   -5.3402   -7.8067 H         1 <0>         0.0797
     49 H20         2.4803   -4.4581   -8.1532 H         1 <0>         0.0850
     50 H21         3.6604   -6.6635   -8.3891 H         1 <0>         0.0951
     51 H22        -0.0636   -7.0394   -8.2550 H         1 <0>         0.1317
     52 H23        -1.1652   -9.0896   -7.4522 H         1 <0>         0.1378
     53 H24         2.6510  -10.9265   -6.9174 H         1 <0>         0.1389
     54 H25         3.7487   -8.8781   -7.7302 H         1 <0>         0.1339
     55 H26         0.2122   -5.9561   -9.6640 H         1 <0>         0.1297
     56 H27        -0.2836   -5.6421  -12.0550 H         1 <0>         0.1384
     57 H28         3.7962   -6.4637  -13.0055 H         1 <0>         0.1398
     58 H29         4.2905   -6.7671  -10.6127 H         1 <0>         0.1337
     59 H30         3.3554   -4.5471   -4.0206 H         1 <0>         0.4236
@<TRIPOS>BOND
     1    1    2 1
     2    1   30 1
     3    1   31 1
     4    1   32 1
     5    2    3 1
     6    2   33 1
     7    2   34 1
     8    3    4 am
     9    3   35 1
    10    4    5 2
    11    4    6 am
    12    6   11 1
    13    6    7 1
    14    7    8 1
    15    7   36 1
    16    7   37 1
    17    8    9 1
    18    8   38 1
    19    8   39 1
    20    9   10 1
    21    9   12 1
    22    9   59 1
    23   10   11 1
    24   10   40 1
    25   10   41 1
    26   11   42 1
    27   11   43 1
    28   12   13 1
    29   12   44 1
    30   12   45 1
    31   13   14 1
    32   13   46 1
    33   13   47 1
    34   14   15 1
    35   14   48 1
    36   14   49 1
    37   15   16 1
    38   15   23 1
    39   15   50 1
    40   16   21 ar
    41   16   17 ar
    42   17   18 ar
    43   17   51 1
    44   18   19 ar
    45   18   52 1
    46   19   20 ar
    47   19   22 1
    48   20   21 ar
    49   20   53 1
    50   21   54 1
    51   23   28 ar
    52   23   24 ar
    53   24   25 ar
    54   24   55 1
    55   25   26 ar
    56   25   56 1
    57   26   27 ar
    58   26   29 1
    59   27   28 ar
    60   27   57 1
    61   28   58 1
@<TRIPOS>MOLECULE
ZINC04214849
   58    60     0     0     0
SMALL
USER_CHARGES

@<TRIPOS>ATOM
      1 C1          1.3055   -1.9786    2.3263 C.3       1 <0>        -0.1656
      2 C2          1.3100   -3.4140    1.7967 C.3       1 <0>         0.1311
      3 N1          1.8094   -3.4248    0.4195 N.am      1 <0>        -0.7483
      4 C3          1.9021   -4.5881   -0.2546 C.2       1 <0>         0.7065
      5 O1          1.6521   -5.6375    0.3064 O.2       1 <0>        -0.5878
      6 N2          2.2719   -4.5884   -1.5507 N.am      1 <0>        -0.6321
      7 C4          2.6843   -3.3444   -2.2182 C.3       1 <0>         0.1170
      8 C5          1.8862   -3.2021   -3.5186 C.3       1 <0>         0.0411
      9 N3          2.0455   -4.4209   -4.3230 N.3       1 <0>        -0.5359
     10 C6          1.4919   -5.5924   -3.6308 C.3       1 <0>         0.0385
     11 C7          2.2797   -5.8336   -2.3333 C.3       1 <0>         0.1349
     12 C8          1.4384   -4.2585   -5.6508 C.3       1 <0>         0.0562
     13 C9          1.8355   -5.4379   -6.5409 C.3       1 <0>        -0.1165
     14 C10         1.2032   -5.2687   -7.9238 C.3       1 <0>        -0.1093
     15 C11         1.6003   -6.4481   -8.8139 C.3       1 <0>        -0.0041
     16 C12         1.0094   -7.7182   -8.2580 C.ar      1 <0>        -0.0812
     17 C13        -0.3472   -7.7951   -8.0034 C.ar      1 <0>        -0.0868
     18 C14        -0.8903   -8.9594   -7.4941 C.ar      1 <0>        -0.1506
     19 C15        -0.0751  -10.0491   -7.2389 C.ar      1 <0>         0.0964
     20 C16         1.2835   -9.9708   -7.4943 C.ar      1 <0>        -0.1496
     21 C17         1.8235   -8.8073   -8.0085 C.ar      1 <0>        -0.0838
     22 F1         -0.6048  -11.1877   -6.7406 F         1 <0>        -0.1395
     23 C18         1.0803   -6.2212  -10.2100 C.ar      1 <0>        -0.0847
     24 C19        -0.2498   -5.9006  -10.4081 C.ar      1 <0>        -0.0861
     25 C20        -0.7276   -5.6918  -11.6879 C.ar      1 <0>        -0.1507
     26 C21         0.1263   -5.8039  -12.7720 C.ar      1 <0>         0.0963
     27 C22         1.4583   -6.1250  -12.5724 C.ar      1 <0>        -0.1504
     28 C23         1.9351   -6.3282  -11.2912 C.ar      1 <0>        -0.0836
     29 F2         -0.3398   -5.6004  -14.0236 F         1 <0>        -0.1395
     30 H1          2.3198   -1.5801    2.3046 H         1 <0>         0.0618
     31 H2          0.6595   -1.3625    1.7008 H         1 <0>         0.0608
     32 H3          0.9339   -1.9706    3.3510 H         1 <0>         0.0767
     33 H4          1.9559   -4.0301    2.4222 H         1 <0>         0.0674
     34 H5          0.2957   -3.8125    1.8185 H         1 <0>         0.0651
     35 H6          2.0734   -2.5946   -0.0072 H         1 <0>         0.3946
     36 H7          2.4789   -2.4942   -1.5677 H         1 <0>         0.0788
     37 H8          3.7496   -3.3864   -2.4452 H         1 <0>         0.0795
     38 H9          0.8318   -3.0563   -3.2842 H         1 <0>         0.0387
     39 H10         2.2563   -2.3445   -4.0805 H         1 <0>         0.0886
     40 H11         0.4429   -5.4132   -3.3947 H         1 <0>         0.0382
     41 H12         1.5759   -6.4683   -4.2740 H         1 <0>         0.0917
     42 H13         3.3068   -6.1103   -2.5711 H         1 <0>         0.0741
     43 H14         1.8066   -6.6300   -1.7589 H         1 <0>         0.0965
     44 H15         0.3533   -4.2265   -5.5527 H         1 <0>         0.0336
     45 H16         1.7902   -3.3297   -6.1000 H         1 <0>         0.0765
     46 H17         2.9206   -5.4699   -6.6389 H         1 <0>         0.0743
     47 H18         1.4837   -6.3667   -6.0917 H         1 <0>         0.0672
     48 H19         0.1181   -5.2367   -7.8257 H         1 <0>         0.0665
     49 H20         1.5550   -4.3400   -8.3730 H         1 <0>         0.0729
     50 H21         2.6866   -6.5339   -8.8402 H         1 <0>         0.0932
     51 H22        -0.9829   -6.9449   -8.2023 H         1 <0>         0.1307
     52 H23        -1.9501   -9.0192   -7.2950 H         1 <0>         0.1347
     53 H24         1.9204  -10.8201   -7.2952 H         1 <0>         0.1360
     54 H25         2.8825   -8.7475   -8.2120 H         1 <0>         0.1331
     55 H26        -0.9158   -5.8136   -9.5623 H         1 <0>         0.1316
     56 H27        -1.7668   -5.4417  -11.8424 H         1 <0>         0.1356
     57 H28         2.1253   -6.2130  -13.4173 H         1 <0>         0.1363
     58 H29         2.9750   -6.5743  -11.1350 H         1 <0>         0.1336
@<TRIPOS>BOND
     1    1    2 1
     2    1   30 1
     3    1   31 1
     4    1   32 1
     5    2    3 1
     6    2   33 1
     7    2   34 1
     8    3    4 am
     9    3   35 1
    10    4    5 2
    11    4    6 am
    12    6   11 1
    13    6    7 1
    14    7    8 1
    15    7   36 1
    16    7   37 1
    17    8    9 1
    18    8   38 1
    19    8   39 1
    20    9   10 1
    21    9   12 1
    22   10   11 1
    23   10   40 1
    24   10   41 1
    25   11   42 1
    26   11   43 1
    27   12   13 1
    28   12   44 1
    29   12   45 1
    30   13   14 1
    31   13   46 1
    32   13   47 1
    33   14   15 1
    34   14   48 1
    35   14   49 1
    36   15   16 1
    37   15   23 1
    38   15   50 1
    39   16   21 ar
    40   16   17 ar
    41   17   18 ar
    42   17   51 1
    43   18   19 ar
    44   18   52 1
    45   19   20 ar
    46   19   22 1
    47   20   21 ar
    48   20   53 1
    49   21   54 1
    50   23   28 ar
    51   23   24 ar
    52   24   25 ar
    53   24   55 1
    54   25   26 ar
    55   25   56 1
    56   26   27 ar
    57   26   29 1
    58   27   28 ar
    59   27   57 1
    60   28   58 1
@<TRIPOS>MOLECULE
ZINC17654244
   61    60     0     0     0
SMALL
USER_CHARGES
(5Z,8Z,11Z,14Z)-1-(fluoro-methoxy-phosphoryl)icosa-5,8,11,14-tetraene
@<TRIPOS>ATOM
      1 C1        -11.8196   13.2176    9.8711 C.3       1 <0>        -0.1543
      2 C2        -10.9707   13.0657    8.6073 C.3       1 <0>        -0.1259
      3 C3        -11.6929   12.1528    7.6145 C.3       1 <0>        -0.1214
      4 C4        -10.8440   12.0009    6.3507 C.3       1 <0>        -0.1145
      5 C5        -11.5663   11.0879    5.3578 C.3       1 <0>        -0.1025
      6 C6        -10.7302   10.9383    4.1130 C.2       1 <0>        -0.1583
      7 C7        -10.4412    9.7445    3.6577 C.2       1 <0>        -0.1532
      8 C8        -11.0768    8.5271    4.2782 C.3       1 <0>        -0.0835
      9 C9        -11.7351    7.7011    3.2034 C.2       1 <0>        -0.1510
     10 C10       -11.4475    6.4284    3.0870 C.2       1 <0>        -0.1520
     11 C11       -10.5979    5.7494    4.1301 C.3       1 <0>        -0.0842
     12 C12       -11.3122    4.5243    4.6402 C.2       1 <0>        -0.1501
     13 C13       -10.7100    3.3610    4.6246 C.2       1 <0>        -0.1521
     14 C14        -9.2524    3.2720    4.2528 C.3       1 <0>        -0.0854
     15 C15        -8.5067    2.5148    5.3213 C.2       1 <0>        -0.1476
     16 C16        -7.7706    1.4804    4.9984 C.2       1 <0>        -0.1622
     17 C17        -7.5360    1.1459    3.5479 C.3       1 <0>        -0.1044
     18 C18        -6.0339    1.0055    3.2934 C.3       1 <0>        -0.1085
     19 C19        -5.7957    0.6658    1.8207 C.3       1 <0>        -0.1174
     20 C20        -4.2936    0.5254    1.5661 C.3       1 <0>        -0.7259
     21 P1         -4.0098    0.1207   -0.1886 P.3       1 <0>         2.2098
     22 O1         -4.5553    1.2024   -1.0388 O.2       1 <0>        -0.9851
     23 O2         -2.4291   -0.0270   -0.4564 O.3       1 <0>        -0.7306
     24 C21        -1.8831   -0.3417   -1.7390 C.3       1 <0>         0.0716
     25 F1         -4.7739   -1.3173   -0.5588 F         1 <0>        -0.3637
     26 H1        -11.9748   12.2386   10.3244 H         1 <0>         0.0533
     27 H2        -11.3050   13.8680   10.5784 H         1 <0>         0.0535
     28 H3        -12.7837   13.6545    9.6109 H         1 <0>         0.0535
     29 H4        -10.0066   12.6288    8.8676 H         1 <0>         0.0604
     30 H5        -10.8154   14.0448    8.1540 H         1 <0>         0.0607
     31 H6        -12.6570   12.5897    7.3542 H         1 <0>         0.0614
     32 H7        -11.8482   11.1737    8.0677 H         1 <0>         0.0609
     33 H8         -9.8799   11.5640    6.6109 H         1 <0>         0.0617
     34 H9        -10.6888   12.9799    5.8974 H         1 <0>         0.0618
     35 H10       -12.5304   11.5248    5.0976 H         1 <0>         0.0689
     36 H11       -11.7216   10.1089    5.8111 H         1 <0>         0.0754
     37 H12       -10.3692   11.8153    3.5963 H         1 <0>         0.1090
     38 H13        -9.7474    9.6327    2.8376 H         1 <0>         0.1088
     39 H14       -11.8255    8.8394    5.0063 H         1 <0>         0.0838
     40 H15       -10.3116    7.9318    4.7765 H         1 <0>         0.0822
     41 H16       -12.4441    8.1584    2.5291 H         1 <0>         0.1102
     42 H17       -11.8193    5.8657    2.2434 H         1 <0>         0.1106
     43 H18       -10.4195    6.4367    4.9571 H         1 <0>         0.0833
     44 H19        -9.6451    5.4570    3.6886 H         1 <0>         0.0832
     45 H20       -12.3204    4.6055    5.0186 H         1 <0>         0.1105
     46 H21       -11.2583    2.4658    4.8782 H         1 <0>         0.1102
     47 H22        -8.8383    4.2763    4.1630 H         1 <0>         0.0841
     48 H23        -9.1514    2.7509    3.3007 H         1 <0>         0.0847
     49 H24        -8.5793    2.8250    6.3533 H         1 <0>         0.1099
     50 H25        -7.3318    0.8674    5.7718 H         1 <0>         0.1089
     51 H26        -7.9377    1.9425    2.9217 H         1 <0>         0.0806
     52 H27        -8.0347    0.2073    3.3062 H         1 <0>         0.0728
     53 H28        -5.6321    0.2089    3.9195 H         1 <0>         0.0625
     54 H29        -5.5351    1.9441    3.5350 H         1 <0>         0.0648
     55 H30        -6.1974    1.4625    1.1945 H         1 <0>         0.0878
     56 H31        -6.2944   -0.2728    1.5790 H         1 <0>         0.0746
     57 H32        -3.8918   -0.2712    2.1923 H         1 <0>         0.1025
     58 H33        -3.7948    1.4640    1.8078 H         1 <0>         0.1213
     59 H34        -2.2668   -1.3066   -2.0704 H         1 <0>         0.0612
     60 H35        -0.7963   -0.3872   -1.6700 H         1 <0>         0.1019
     61 H36        -2.1698    0.4286   -2.4549 H         1 <0>         0.0714
@<TRIPOS>BOND
     1    1    2 1
     2    1   26 1
     3    1   27 1
     4    1   28 1
     5    2    3 1
     6    2   29 1
     7    2   30 1
     8    3    4 1
     9    3   31 1
    10    3   32 1
    11    4    5 1
    12    4   33 1
    13    4   34 1
    14    5    6 1
    15    5   35 1
    16    5   36 1
    17    6    7 2
    18    6   37 1
    19    7    8 1
    20    7   38 1
    21    8    9 1
    22    8   39 1
    23    8   40 1
    24    9   10 2
    25    9   41 1
    26   10   11 1
    27   10   42 1
    28   11   12 1
    29   11   43 1
    30   11   44 1
    31   12   13 2
    32   12   45 1
    33   13   14 1
    34   13   46 1
    35   14   15 1
    36   14   47 1
    37   14   48 1
    38   15   16 2
    39   15   49 1
    40   16   17 1
    41   16   50 1
    42   17   18 1
    43   17   51 1
    44   17   52 1
    45   18   19 1
    46   18   53 1
    47   18   54 1
    48   19   20 1
    49   19   55 1
    50   19   56 1
    51   20   21 1
    52   20   57 1
    53   20   58 1
    54   21   22 2
    55   21   23 1
    56   21   25 1
    57   23   24 1
    58   24   59 1
    59   24   60 1
    60   24   61 1
@<TRIPOS>MOLECULE
ZINC17654246
   61    60     0     0     0
SMALL
USER_CHARGES
(5Z,8Z,11Z,14Z)-1-(fluoro-methoxy-phosphoryl)icosa-5,8,11,14-tetraene
@<TRIPOS>ATOM
      1 C1        -11.8196   13.2177    9.8709 C.3       1 <0>        -0.1543
      2 C2        -10.9707   13.0658    8.6072 C.3       1 <0>        -0.1259
      3 C3        -11.6930   12.1528    7.6143 C.3       1 <0>        -0.1215
      4 C4        -10.8441   12.0009    6.3505 C.3       1 <0>        -0.1144
      5 C5        -11.5664   11.0880    5.3577 C.3       1 <0>        -0.1027
      6 C6        -10.7302   10.9383    4.1129 C.2       1 <0>        -0.1578
      7 C7        -10.4412    9.7445    3.6576 C.2       1 <0>        -0.1535
      8 C8        -11.0768    8.5271    4.2781 C.3       1 <0>        -0.0836
      9 C9        -11.7352    7.7011    3.2033 C.2       1 <0>        -0.1508
     10 C10       -11.4476    6.4284    3.0869 C.2       1 <0>        -0.1523
     11 C11       -10.5979    5.7494    4.1300 C.3       1 <0>        -0.0837
     12 C12       -11.3122    4.5244    4.6401 C.2       1 <0>        -0.1507
     13 C13       -10.7101    3.3610    4.6245 C.2       1 <0>        -0.1519
     14 C14        -9.2524    3.2720    4.2527 C.3       1 <0>        -0.0847
     15 C15        -8.5067    2.5148    5.3213 C.2       1 <0>        -0.1493
     16 C16        -7.7706    1.4805    4.9984 C.2       1 <0>        -0.1608
     17 C17        -7.5360    1.1459    3.5479 C.3       1 <0>        -0.1046
     18 C18        -6.0339    1.0055    3.2933 C.3       1 <0>        -0.1085
     19 C19        -5.7957    0.6658    1.8207 C.3       1 <0>        -0.1173
     20 C20        -4.2936    0.5254    1.5661 C.3       1 <0>        -0.7260
     21 P1         -4.0098    0.1207   -0.1886 P.3       1 <0>         2.2100
     22 O1         -4.6870   -1.1537   -0.5167 O.2       1 <0>        -0.9853
     23 O2         -2.4291   -0.0270   -0.4564 O.3       1 <0>        -0.7306
     24 C21        -1.8831   -0.3417   -1.7390 C.3       1 <0>         0.0715
     25 F1         -4.6253    1.3412   -1.1480 F         1 <0>        -0.3637
     26 H1        -12.7837   13.6546    9.6107 H         1 <0>         0.0535
     27 H2        -11.9749   12.2387   10.3242 H         1 <0>         0.0533
     28 H3        -11.3050   13.8681   10.5783 H         1 <0>         0.0536
     29 H4        -10.0066   12.6289    8.8674 H         1 <0>         0.0603
     30 H5        -10.8155   14.0448    8.1539 H         1 <0>         0.0606
     31 H6        -12.6571   12.5897    7.3540 H         1 <0>         0.0615
     32 H7        -11.8482   11.1738    8.0676 H         1 <0>         0.0609
     33 H8         -9.8800   11.5640    6.6108 H         1 <0>         0.0617
     34 H9        -10.6888   12.9799    5.8972 H         1 <0>         0.0618
     35 H10       -12.5305   11.5249    5.0974 H         1 <0>         0.0691
     36 H11       -11.7216   10.1089    5.8110 H         1 <0>         0.0755
     37 H12       -10.3693   11.8153    3.5961 H         1 <0>         0.1090
     38 H13        -9.7474    9.6327    2.8375 H         1 <0>         0.1085
     39 H14       -11.8255    8.8394    5.0062 H         1 <0>         0.0839
     40 H15       -10.3117    7.9318    4.7764 H         1 <0>         0.0822
     41 H16       -12.4441    8.1584    2.5290 H         1 <0>         0.1102
     42 H17       -11.8193    5.8657    2.2433 H         1 <0>         0.1105
     43 H18       -10.4195    6.4367    4.9570 H         1 <0>         0.0832
     44 H19        -9.6452    5.4570    3.6886 H         1 <0>         0.0827
     45 H20       -12.3205    4.6055    5.0185 H         1 <0>         0.1106
     46 H21       -11.2583    2.4658    4.8782 H         1 <0>         0.1104
     47 H22        -8.8383    4.2763    4.1630 H         1 <0>         0.0835
     48 H23        -9.1514    2.7509    3.3007 H         1 <0>         0.0843
     49 H24        -8.5793    2.8250    6.3532 H         1 <0>         0.1099
     50 H25        -7.3318    0.8675    5.7718 H         1 <0>         0.1093
     51 H26        -7.9377    1.9425    2.9217 H         1 <0>         0.0794
     52 H27        -8.0347    0.2073    3.3062 H         1 <0>         0.0744
     53 H28        -5.6321    0.2089    3.9195 H         1 <0>         0.0646
     54 H29        -5.5351    1.9441    3.5350 H         1 <0>         0.0628
     55 H30        -6.1974    1.4624    1.1945 H         1 <0>         0.0742
     56 H31        -6.2944   -0.2728    1.5790 H         1 <0>         0.0882
     57 H32        -3.8918   -0.2712    2.1923 H         1 <0>         0.1214
     58 H33        -3.7948    1.4640    1.8078 H         1 <0>         0.1025
     59 H34        -2.2668   -1.3067   -2.0703 H         1 <0>         0.0714
     60 H35        -0.7962   -0.3872   -1.6699 H         1 <0>         0.1019
     61 H36        -2.1698    0.4286   -2.4549 H         1 <0>         0.0612
@<TRIPOS>BOND
     1    1    2 1
     2    1   26 1
     3    1   27 1
     4    1   28 1
     5    2    3 1
     6    2   29 1
     7    2   30 1
     8    3    4 1
     9    3   31 1
    10    3   32 1
    11    4    5 1
    12    4   33 1
    13    4   34 1
    14    5    6 1
    15    5   35 1
    16    5   36 1
    17    6    7 2
    18    6   37 1
    19    7    8 1
    20    7   38 1
    21    8    9 1
    22    8   39 1
    23    8   40 1
    24    9   10 2
    25    9   41 1
    26   10   11 1
    27   10   42 1
    28   11   12 1
    29   11   43 1
    30   11   44 1
    31   12   13 2
    32   12   45 1
    33   13   14 1
    34   13   46 1
    35   14   15 1
    36   14   47 1
    37   14   48 1
    38   15   16 2
    39   15   49 1
    40   16   17 1
    41   16   50 1
    42   17   18 1
    43   17   51 1
    44   17   52 1
    45   18   19 1
    46   18   53 1
    47   18   54 1
    48   19   20 1
    49   19   55 1
    50   19   56 1
    51   20   21 1
    52   20   57 1
    53   20   58 1
    54   21   22 2
    55   21   23 1
    56   21   25 1
    57   23   24 1
    58   24   59 1
    59   24   60 1
    60   24   61 1
@<TRIPOS>MOLECULE
ZINC13475543
   63    62     0     0     0
SMALL
USER_CHARGES
(5Z,8Z,11Z,13E,15S)-15-hydroxy-N-(2-hydroxyethyl)icosa-5,8,11,13-tetraenamide
@<TRIPOS>ATOM
      1 C1         -0.6315    2.1682   -5.2092 C.3       1 <0>        -0.1542
      2 C2         -1.2218    2.7105   -3.9060 C.3       1 <0>        -0.1259
      3 C3         -0.5748    1.9970   -2.7173 C.3       1 <0>        -0.1209
      4 C4         -1.1651    2.5393   -1.4140 C.3       1 <0>        -0.1177
      5 C5         -0.5180    1.8258   -0.2253 C.3       1 <0>        -0.1456
      6 C6         -1.1083    2.3681    1.0779 C.3       1 <0>         0.1349
      7 H1         -2.1939    2.2730    1.0523 H         1 <0>         0.1083
      8 C7         -0.5625    1.5820    2.2420 C.2       1 <0>        -0.1885
      9 C8          0.0415    2.2117    3.2441 C.2       1 <0>        -0.1242
     10 C9          0.5743    1.4443    4.3805 C.2       1 <0>        -0.1392
     11 C10         1.2554    2.0631    5.3391 C.2       1 <0>        -0.1307
     12 C11         1.3533    3.5669    5.3433 C.3       1 <0>        -0.0839
     13 C12         0.8850    4.0970    6.6739 C.2       1 <0>        -0.1527
     14 C13         1.6444    4.9183    7.3558 C.2       1 <0>        -0.1497
     15 C14         2.9126    5.4553    6.7441 C.3       1 <0>        -0.0836
     16 C15         2.9109    6.9602    6.8242 C.2       1 <0>        -0.1526
     17 C16         3.9286    7.5889    7.3582 C.2       1 <0>        -0.1566
     18 C17         5.1725    6.8258    7.7343 C.3       1 <0>        -0.1017
     19 C18         6.3927    7.4938    7.0972 C.3       1 <0>        -0.0984
     20 C19         7.6556    6.7191    7.4791 C.3       1 <0>        -0.1408
     21 C20         8.8575    7.3770    6.8516 C.2       1 <0>         0.5103
     22 O1          8.7177    8.3679    6.1664 O.2       1 <0>        -0.5403
     23 N1         10.0877    6.8642    7.0518 N.am      1 <0>        -0.7286
     24 C21        11.2561    7.5038    6.4418 C.3       1 <0>         0.1177
     25 C22        12.5190    6.7291    6.8236 C.3       1 <0>         0.0628
     26 O2         12.4648    5.4194    6.2545 O.3       1 <0>        -0.5723
     27 O3         -0.7541    3.7447    1.2248 O.3       1 <0>        -0.5573
     28 H2         -0.8256    1.0979   -5.2783 H         1 <0>         0.0531
     29 H3         -1.0925    2.6765   -6.0561 H         1 <0>         0.0537
     30 H4          0.4442    2.3439   -5.2216 H         1 <0>         0.0532
     31 H5         -2.2975    2.5348   -3.8936 H         1 <0>         0.0606
     32 H6         -1.0277    3.7808   -3.8369 H         1 <0>         0.0611
     33 H7          0.5009    2.1727   -2.7297 H         1 <0>         0.0601
     34 H8         -0.7689    0.9267   -2.7864 H         1 <0>         0.0600
     35 H9         -2.2408    2.3636   -1.4016 H         1 <0>         0.0615
     36 H10        -0.9709    3.6096   -1.3449 H         1 <0>         0.0687
     37 H11        -0.7121    0.7555   -0.2944 H         1 <0>         0.0725
     38 H12         0.5577    2.0015   -0.2377 H         1 <0>         0.0663
     39 H13        -0.6622    0.5068    2.2618 H         1 <0>         0.1167
     40 H14         0.1412    3.2869    3.2243 H         1 <0>         0.1260
     41 H15         0.4119    0.3780    4.4357 H         1 <0>         0.1134
     42 H16         1.7388    1.4883    6.1152 H         1 <0>         0.1138
     43 H17         2.3889    3.8640    5.1778 H         1 <0>         0.0862
     44 H18         0.7272    3.9739    4.5492 H         1 <0>         0.0833
     45 H19        -0.0767    3.7999    7.0654 H         1 <0>         0.1103
     46 H20         1.3616    5.2105    8.3563 H         1 <0>         0.1104
     47 H21         3.7724    5.0636    7.2876 H         1 <0>         0.0839
     48 H22         2.9714    5.1471    5.7002 H         1 <0>         0.0831
     49 H23         2.0707    7.5204    6.4413 H         1 <0>         0.1096
     50 H24         3.8762    8.6540    7.5289 H         1 <0>         0.1105
     51 H25         5.2839    6.8243    8.8186 H         1 <0>         0.0703
     52 H26         5.0916    5.7996    7.3759 H         1 <0>         0.0764
     53 H27         6.2814    7.4953    6.0129 H         1 <0>         0.0711
     54 H28         6.4737    8.5200    7.4556 H         1 <0>         0.0707
     55 H29         7.7670    6.7175    8.5634 H         1 <0>         0.0937
     56 H30         7.5747    5.6929    7.1207 H         1 <0>         0.0939
     57 H31        10.1995    6.0717    7.5998 H         1 <0>         0.4035
     58 H32        11.1447    7.5053    5.3575 H         1 <0>         0.0752
     59 H33        11.3370    8.5300    6.8002 H         1 <0>         0.0824
     60 H34        13.3958    7.2540    6.4445 H         1 <0>         0.0647
     61 H35        12.5833    6.6512    7.9090 H         1 <0>         0.0540
     62 H36        13.2351    4.8708    6.4561 H         1 <0>         0.3841
     63 H37         0.1991    3.9045    1.2551 H         1 <0>         0.3739
@<TRIPOS>BOND
     1    1    2 1
     2    1   28 1
     3    1   29 1
     4    1   30 1
     5    2    3 1
     6    2   31 1
     7    2   32 1
     8    3    4 1
     9    3   33 1
    10    3   34 1
    11    4    5 1
    12    4   35 1
    13    4   36 1
    14    5    6 1
    15    5   37 1
    16    5   38 1
    17    6    7 1
    18    6    8 1
    19    6   27 1
    20    8    9 2
    21    8   39 1
    22    9   10 1
    23    9   40 1
    24   10   11 2
    25   10   41 1
    26   11   12 1
    27   11   42 1
    28   12   13 1
    29   12   43 1
    30   12   44 1
    31   13   14 2
    32   13   45 1
    33   14   15 1
    34   14   46 1
    35   15   16 1
    36   15   47 1
    37   15   48 1
    38   16   17 2
    39   16   49 1
    40   17   18 1
    41   17   50 1
    42   18   19 1
    43   18   51 1
    44   18   52 1
    45   19   20 1
    46   19   53 1
    47   19   54 1
    48   20   21 1
    49   20   55 1
    50   20   56 1
    51   21   22 2
    52   21   23 am
    53   23   24 1
    54   23   57 1
    55   24   25 1
    56   24   58 1
    57   24   59 1
    58   25   26 1
    59   25   60 1
    60   25   61 1
    61   26   62 1
    62   27   63 1
@<TRIPOS>MOLECULE
ZINC13475545
   63    62     0     0     0
SMALL
USER_CHARGES
(5Z,8Z,11Z,13E,15R)-15-hydroxy-N-(2-hydroxyethyl)icosa-5,8,11,13-tetraenamide
@<TRIPOS>ATOM
      1 C1         -0.9900    1.2508    2.7911 C.3       1 <0>        -0.1542
      2 C2         -1.7649    1.6319    1.5280 C.3       1 <0>        -0.1259
      3 C3         -0.9163    1.3168    0.2946 C.3       1 <0>        -0.1207
      4 C4         -1.6911    1.6979   -0.9685 C.3       1 <0>        -0.1176
      5 C5         -0.8425    1.3828   -2.2020 C.3       1 <0>        -0.1476
      6 C6         -1.6174    1.7639   -3.4650 C.3       1 <0>         0.1362
      7 H1         -2.5848    1.2617   -3.4632 H         1 <0>         0.0998
      8 C7         -0.8344    1.3414   -4.6813 C.2       1 <0>        -0.1861
      9 C8         -1.3610    0.4788   -5.5439 C.2       1 <0>        -0.1123
     10 C9         -0.5967    0.0663   -6.7313 C.2       1 <0>        -0.1410
     11 C10        -1.0855   -0.8619   -7.5466 C.2       1 <0>        -0.1281
     12 C11        -2.4847   -1.3830   -7.3425 C.3       1 <0>        -0.0844
     13 C12        -3.2687   -1.2313   -8.6205 C.2       1 <0>        -0.1537
     14 C13        -3.8971   -2.2619   -9.1297 C.2       1 <0>        -0.1488
     15 C14        -3.9670   -3.5566   -8.3616 C.3       1 <0>        -0.0840
     16 C15        -5.4048   -3.9912   -8.2395 C.2       1 <0>        -0.1530
     17 C16        -5.7582   -5.1971   -8.6097 C.2       1 <0>        -0.1561
     18 C17        -4.7066   -6.2060   -8.9937 C.3       1 <0>        -0.1018
     19 C18        -4.9123   -7.4894   -8.1865 C.3       1 <0>        -0.0985
     20 C19        -3.8447   -8.5136   -8.5763 C.3       1 <0>        -0.1408
     21 C20        -4.0472   -9.7777   -7.7813 C.2       1 <0>         0.5104
     22 O1         -4.9560   -9.8521   -6.9816 O.2       1 <0>        -0.5405
     23 N1         -3.2185  -10.8256   -7.9589 N.am      1 <0>        -0.7286
     24 C21        -3.4154  -12.0545   -7.1861 C.3       1 <0>         0.1176
     25 C22        -2.3478  -13.0787   -7.5759 C.3       1 <0>         0.0628
     26 O2         -1.0595  -12.5934   -7.1926 O.3       1 <0>        -0.5723
     27 O3         -1.8152    3.1788   -3.4937 O.3       1 <0>        -0.5556
     28 H2         -1.5946    1.4753    3.6698 H         1 <0>         0.0537
     29 H3         -0.7618    0.1852    2.7696 H         1 <0>         0.0531
     30 H4         -0.0617    1.8204    2.8336 H         1 <0>         0.0531
     31 H5         -1.9931    2.6975    1.5495 H         1 <0>         0.0611
     32 H6         -2.6932    1.0623    1.4856 H         1 <0>         0.0607
     33 H7         -0.6880    0.2511    0.2731 H         1 <0>         0.0600
     34 H8          0.0121    1.8864    0.3370 H         1 <0>         0.0602
     35 H9         -2.6195    1.1282   -1.0110 H         1 <0>         0.0611
     36 H10        -1.9194    2.7635   -0.9471 H         1 <0>         0.0688
     37 H11         0.0858    1.9524   -2.1595 H         1 <0>         0.0664
     38 H12        -0.6143    0.3171   -2.2234 H         1 <0>         0.0722
     39 H13         0.1549    1.7398   -4.8520 H         1 <0>         0.1130
     40 H14        -2.3503    0.0804   -5.3733 H         1 <0>         0.1189
     41 H15         0.3618    0.5181   -6.9402 H         1 <0>         0.1149
     42 H16        -0.4801   -1.2430   -8.3557 H         1 <0>         0.1149
     43 H17        -2.4433   -2.4361   -7.0644 H         1 <0>         0.0871
     44 H18        -2.9712   -0.8164   -6.5484 H         1 <0>         0.0817
     45 H19        -3.3125   -0.2730   -9.1167 H         1 <0>         0.1108
     46 H20        -4.3650   -2.1836  -10.0999 H         1 <0>         0.1108
     47 H21        -3.3992   -4.3231   -8.8891 H         1 <0>         0.0842
     48 H22        -3.5453   -3.4121   -7.3669 H         1 <0>         0.0830
     49 H23        -6.1438   -3.3085   -7.8468 H         1 <0>         0.1095
     50 H24        -6.8032   -5.4683   -8.6397 H         1 <0>         0.1105
     51 H25        -4.7882   -6.4288  -10.0575 H         1 <0>         0.0705
     52 H26        -3.7179   -5.7985   -8.7826 H         1 <0>         0.0764
     53 H27        -4.8307   -7.2665   -7.1226 H         1 <0>         0.0710
     54 H28        -5.9010   -7.8968   -8.3975 H         1 <0>         0.0707
     55 H29        -3.9263   -8.7365   -9.6402 H         1 <0>         0.0937
     56 H30        -2.8560   -8.1062   -8.3653 H         1 <0>         0.0940
     57 H31        -2.4916  -10.7661   -8.5985 H         1 <0>         0.4035
     58 H32        -3.3338  -11.8316   -6.1222 H         1 <0>         0.0752
     59 H33        -4.4041  -12.4619   -7.3971 H         1 <0>         0.0824
     60 H34        -2.5466  -14.0222   -7.0676 H         1 <0>         0.0648
     61 H35        -2.3710  -13.2352   -8.6544 H         1 <0>         0.0540
     62 H36        -0.3327  -13.1932   -7.4096 H         1 <0>         0.3841
     63 H37        -0.9948    3.6907   -3.4969 H         1 <0>         0.3747
@<TRIPOS>BOND
     1    1    2 1
     2    1   28 1
     3    1   29 1
     4    1   30 1
     5    2    3 1
     6    2   31 1
     7    2   32 1
     8    3    4 1
     9    3   33 1
    10    3   34 1
    11    4    5 1
    12    4   35 1
    13    4   36 1
    14    5    6 1
    15    5   37 1
    16    5   38 1
    17    6    7 1
    18    6    8 1
    19    6   27 1
    20    8    9 2
    21    8   39 1
    22    9   10 1
    23    9   40 1
    24   10   11 2
    25   10   41 1
    26   11   12 1
    27   11   42 1
    28   12   13 1
    29   12   43 1
    30   12   44 1
    31   13   14 2
    32   13   45 1
    33   14   15 1
    34   14   46 1
    35   15   16 1
    36   15   47 1
    37   15   48 1
    38   16   17 2
    39   16   49 1
    40   17   18 1
    41   17   50 1
    42   18   19 1
    43   18   51 1
    44   18   52 1
    45   19   20 1
    46   19   53 1
    47   19   54 1
    48   20   21 1
    49   20   55 1
    50   20   56 1
    51   21   22 2
    52   21   23 am
    53   23   24 1
    54   23   57 1
    55   24   25 1
    56   24   58 1
    57   24   59 1
    58   25   26 1
    59   25   60 1
    60   25   61 1
    61   26   62 1
    62   27   63 1
@<TRIPOS>MOLECULE
ZINC04654969
   65    64     0     0     0
SMALL
USER_CHARGES

@<TRIPOS>ATOM
      1 C1          0.6453    3.0200   -2.1184 C.3       1 <0>        -0.1543
      2 C2          0.9747    1.5406   -1.9090 C.3       1 <0>        -0.1259
      3 C3          1.2342    0.8791   -3.2640 C.3       1 <0>        -0.1214
      4 C4          1.5635   -0.6003   -3.0546 C.3       1 <0>        -0.1145
      5 C5          1.8231   -1.2617   -4.4095 C.3       1 <0>        -0.1025
      6 C6          2.1475   -2.7189   -4.2033 C.2       1 <0>        -0.1581
      7 C7          1.4879   -3.6368   -4.8654 C.2       1 <0>        -0.1535
      8 C8          0.5222   -3.2356   -5.9506 C.3       1 <0>        -0.0836
      9 C9          0.8663   -3.9645   -7.2239 C.2       1 <0>        -0.1510
     10 C10        -0.0571   -4.6399   -7.8620 C.2       1 <0>        -0.1522
     11 C11        -1.4947   -4.5556   -7.4178 C.3       1 <0>        -0.0839
     12 C12        -2.3604   -4.1684   -8.5889 C.2       1 <0>        -0.1512
     13 C13        -3.4010   -4.8991   -8.9041 C.2       1 <0>        -0.1518
     14 C14        -3.8363   -6.0212   -7.9973 C.3       1 <0>        -0.0844
     15 C15        -5.2963   -5.8582   -7.6615 C.2       1 <0>        -0.1497
     16 C16        -6.1304   -6.8470   -7.8682 C.2       1 <0>        -0.1584
     17 C17        -5.6088   -8.1980   -8.2850 C.3       1 <0>        -0.1014
     18 C18        -6.1669   -9.2713   -7.3483 C.3       1 <0>        -0.1031
     19 C19        -5.6374  -10.6430   -7.7715 C.3       1 <0>        -0.1141
     20 C20        -6.1871  -11.7002   -6.8489 C.2       1 <0>         0.4571
     21 O1         -6.9265  -11.3885   -5.9455 O.2       1 <0>        -0.5110
     22 O2         -5.8553  -12.9881   -7.0307 O.3       1 <0>        -0.3285
     23 C21        -6.4129  -13.9366   -6.1189 C.3       1 <0>         0.0878
     24 C22        -6.5853  -15.2827   -6.8253 C.3       1 <0>         0.0835
     25 O3         -5.3019  -15.8045   -7.1758 O.3       1 <0>        -0.5357
     26 C23        -5.4752  -14.1053   -4.9217 C.3       1 <0>         0.0625
     27 O4         -4.2428  -14.6810   -5.3594 O.3       1 <0>        -0.5356
     28 H1          1.4846    3.5132   -2.6087 H         1 <0>         0.0534
     29 H2         -0.2437    3.1095   -2.7426 H         1 <0>         0.0534
     30 H3          0.4604    3.4912   -1.1531 H         1 <0>         0.0535
     31 H4          1.8637    1.4511   -1.2847 H         1 <0>         0.0606
     32 H5          0.1353    1.0474   -1.4187 H         1 <0>         0.0605
     33 H6          0.3451    0.9686   -3.8882 H         1 <0>         0.0610
     34 H7          2.0735    1.3723   -3.7542 H         1 <0>         0.0613
     35 H8          2.4526   -0.6897   -2.4303 H         1 <0>         0.0616
     36 H9          0.7242   -1.0935   -2.5643 H         1 <0>         0.0619
     37 H10         0.9340   -1.1722   -5.0338 H         1 <0>         0.0756
     38 H11         2.6624   -0.7685   -4.8998 H         1 <0>         0.0688
     39 H12         2.9237   -3.0063   -3.5096 H         1 <0>         0.1088
     40 H13         1.6361   -4.6812   -4.6336 H         1 <0>         0.1086
     41 H14        -0.4926   -3.4932   -5.6473 H         1 <0>         0.0828
     42 H15         0.5897   -2.1606   -6.1177 H         1 <0>         0.0840
     43 H16         1.8742   -3.9300   -7.6103 H         1 <0>         0.1097
     44 H17         0.2118   -5.2572   -8.7064 H         1 <0>         0.1101
     45 H18        -1.8140   -5.5248   -7.0346 H         1 <0>         0.0834
     46 H19        -1.5889   -3.8055   -6.6326 H         1 <0>         0.0833
     47 H20        -2.1230   -3.2885   -9.1684 H         1 <0>         0.1099
     48 H21        -3.9470   -4.6972   -9.8138 H         1 <0>         0.1101
     49 H22        -3.6838   -6.9756   -8.5013 H         1 <0>         0.0841
     50 H23        -3.2476   -5.9965   -7.0803 H         1 <0>         0.0834
     51 H24        -5.6550   -4.9261   -7.2504 H         1 <0>         0.1098
     52 H25        -7.1917   -6.6940   -7.7398 H         1 <0>         0.1109
     53 H26        -5.9227   -8.4090   -9.3073 H         1 <0>         0.0734
     54 H27        -4.5201   -8.1995   -8.2316 H         1 <0>         0.0790
     55 H28        -5.8530   -9.0603   -6.3260 H         1 <0>         0.0730
     56 H29        -7.2556   -9.2698   -7.4017 H         1 <0>         0.0731
     57 H30        -5.9513  -10.8540   -8.7938 H         1 <0>         0.1072
     58 H31        -4.5487  -10.6445   -7.7181 H         1 <0>         0.1074
     59 H32        -7.3834  -13.5809   -5.7729 H         1 <0>         0.1075
     60 H33        -7.0916  -15.9807   -6.1586 H         1 <0>         0.0635
     61 H34        -7.1806  -15.1457   -7.7280 H         1 <0>         0.0524
     62 H35        -5.3348  -16.6585   -7.6283 H         1 <0>         0.3714
     63 H36        -5.2818  -13.1316   -4.4716 H         1 <0>         0.0474
     64 H37        -5.9408  -14.7601   -4.1850 H         1 <0>         0.0587
     65 H38        -3.5987  -14.8170   -4.6510 H         1 <0>         0.3703
@<TRIPOS>BOND
     1    1    2 1
     2    1   28 1
     3    1   29 1
     4    1   30 1
     5    2    3 1
     6    2   31 1
     7    2   32 1
     8    3    4 1
     9    3   33 1
    10    3   34 1
    11    4    5 1
    12    4   35 1
    13    4   36 1
    14    5    6 1
    15    5   37 1
    16    5   38 1
    17    6    7 2
    18    6   39 1
    19    7    8 1
    20    7   40 1
    21    8    9 1
    22    8   41 1
    23    8   42 1
    24    9   10 2
    25    9   43 1
    26   10   11 1
    27   10   44 1
    28   11   12 1
    29   11   45 1
    30   11   46 1
    31   12   13 2
    32   12   47 1
    33   13   14 1
    34   13   48 1
    35   14   15 1
    36   14   49 1
    37   14   50 1
    38   15   16 2
    39   15   51 1
    40   16   17 1
    41   16   52 1
    42   17   18 1
    43   17   53 1
    44   17   54 1
    45   18   19 1
    46   18   55 1
    47   18   56 1
    48   19   20 1
    49   19   57 1
    50   19   58 1
    51   20   21 2
    52   20   22 1
    53   22   23 1
    54   23   24 1
    55   23   26 1
    56   23   59 1
    57   24   25 1
    58   24   60 1
    59   24   61 1
    60   25   62 1
    61   26   27 1
    62   26   63 1
    63   26   64 1
    64   27   65 1
@<TRIPOS>MOLECULE
ZINC04654971
   65    64     0     0     0
SMALL
USER_CHARGES
[(2S)-2,3-dihydroxypropyl] (5Z,8Z,11Z,14Z)-icosa-5,8,11,14-tetraenoate
@<TRIPOS>ATOM
      1 C1         14.6794   14.6168   -7.0373 C.3       1 <0>        -0.1543
      2 C2         13.6404   13.5608   -7.4194 C.3       1 <0>        -0.1259
      3 C3         12.2432   14.1834   -7.3833 C.3       1 <0>        -0.1214
      4 C4         11.2042   13.1273   -7.7654 C.3       1 <0>        -0.1145
      5 C5          9.8071   13.7499   -7.7293 C.3       1 <0>        -0.1026
      6 C6          8.7837   12.7097   -8.1057 C.2       1 <0>        -0.1580
      7 C7          7.7530   12.4929   -7.3267 C.2       1 <0>        -0.1534
      8 C8          7.5009   13.3911   -6.1432 C.3       1 <0>        -0.0836
      9 C9          6.0927   13.9241   -6.2081 C.2       1 <0>        -0.1510
     10 C10         5.2922   13.7861   -5.1803 C.2       1 <0>        -0.1523
     11 C11         5.8265   13.2557   -3.8749 C.3       1 <0>        -0.0838
     12 C12         5.4730   14.2094   -2.7628 C.2       1 <0>        -0.1511
     13 C13         4.8456   13.7718   -1.6994 C.2       1 <0>        -0.1519
     14 C14         4.6228   12.2933   -1.5110 C.3       1 <0>        -0.0844
     15 C15         5.1235   11.8790   -0.1513 C.2       1 <0>        -0.1495
     16 C16         4.3324   11.2335    0.6693 C.2       1 <0>        -0.1588
     17 C17         2.9813   10.7608    0.1978 C.3       1 <0>        -0.1013
     18 C18         2.8284    9.2691    0.5016 C.3       1 <0>        -0.1036
     19 C19         1.4568    8.7891    0.0228 C.3       1 <0>        -0.1143
     20 C20         1.3061    7.3198    0.3220 C.2       1 <0>         0.4607
     21 O1          2.2037    6.7183    0.8626 O.2       1 <0>        -0.5078
     22 O2          0.1748    6.6794   -0.0121 O.3       1 <0>        -0.3462
     23 C21         0.0994    5.2648    0.3063 C.3       1 <0>         0.0369
     24 C22        -1.2535    4.7116   -0.1461 C.3       1 <0>         0.1088
     25 H1         -2.0545    5.3008    0.3003 H         1 <0>         0.1179
     26 C23        -1.3833    3.2538    0.3000 C.3       1 <0>         0.0483
     27 O3         -2.6904    2.7726   -0.0193 O.3       1 <0>        -0.5604
     28 O4         -1.3456    4.7839   -1.5702 O.3       1 <0>        -0.5422
     29 H2         14.6324   15.4453   -7.7441 H         1 <0>         0.0534
     30 H3         14.4713   14.9843   -6.0324 H         1 <0>         0.0534
     31 H4         15.6747   14.1733   -7.0630 H         1 <0>         0.0535
     32 H5         13.6874   12.7323   -6.7126 H         1 <0>         0.0605
     33 H6         13.8485   13.1933   -8.4243 H         1 <0>         0.0605
     34 H7         12.1962   15.0118   -8.0901 H         1 <0>         0.0614
     35 H8         12.0351   14.5508   -6.3784 H         1 <0>         0.0610
     36 H9         11.2512   12.2989   -7.0586 H         1 <0>         0.0619
     37 H10        11.4123   12.7598   -8.7703 H         1 <0>         0.0617
     38 H11         9.7601   14.5783   -8.4361 H         1 <0>         0.0689
     39 H12         9.5990   14.1174   -6.7244 H         1 <0>         0.0756
     40 H13         8.9000   12.1430   -9.0177 H         1 <0>         0.1089
     41 H14         7.0840   11.6705   -7.5327 H         1 <0>         0.1086
     42 H15         8.2053   14.2227   -6.1616 H         1 <0>         0.0838
     43 H16         7.6325   12.8237   -5.2219 H         1 <0>         0.0827
     44 H17         5.7436   14.4197   -7.1018 H         1 <0>         0.1098
     45 H18         4.2493   14.0526   -5.2686 H         1 <0>         0.1101
     46 H19         6.9102   13.1577   -3.9388 H         1 <0>         0.0833
     47 H20         5.3849   12.2802   -3.6711 H         1 <0>         0.0834
     48 H21         5.7370   15.2536   -2.8427 H         1 <0>         0.1100
     49 H22         4.4881   14.4706   -0.9576 H         1 <0>         0.1101
     50 H23         5.1643   11.7433   -2.2807 H         1 <0>         0.0836
     51 H24         3.5580   12.0735   -1.5885 H         1 <0>         0.0843
     52 H25         6.1346   12.1143    0.1465 H         1 <0>         0.1099
     53 H26         4.6483   11.0401    1.6838 H         1 <0>         0.1109
     54 H27         2.8940   10.9237   -0.8764 H         1 <0>         0.0792
     55 H28         2.2005   11.3187    0.7146 H         1 <0>         0.0736
     56 H29         2.9158    9.1062    1.5758 H         1 <0>         0.0732
     57 H30         3.6093    8.7111   -0.0152 H         1 <0>         0.0735
     58 H31         1.3694    8.9520   -1.0514 H         1 <0>         0.1081
     59 H32         0.6759    9.3471    0.5396 H         1 <0>         0.1081
     60 H33         0.2063    5.1284    1.3824 H         1 <0>         0.0827
     61 H34         0.8998    4.7333   -0.2086 H         1 <0>         0.0769
     62 H35        -1.2246    3.1877    1.3763 H         1 <0>         0.0600
     63 H36        -0.6374    2.6484   -0.2151 H         1 <0>         0.0543
     64 H37        -2.8440    1.8526    0.2358 H         1 <0>         0.3849
     65 H38        -0.6622    4.2815   -2.0346 H         1 <0>         0.3741
@<TRIPOS>BOND
     1    1    2 1
     2    1   29 1
     3    1   30 1
     4    1   31 1
     5    2    3 1
     6    2   32 1
     7    2   33 1
     8    3    4 1
     9    3   34 1
    10    3   35 1
    11    4    5 1
    12    4   36 1
    13    4   37 1
    14    5    6 1
    15    5   38 1
    16    5   39 1
    17    6    7 2
    18    6   40 1
    19    7    8 1
    20    7   41 1
    21    8    9 1
    22    8   42 1
    23    8   43 1
    24    9   10 2
    25    9   44 1
    26   10   11 1
    27   10   45 1
    28   11   12 1
    29   11   46 1
    30   11   47 1
    31   12   13 2
    32   12   48 1
    33   13   14 1
    34   13   49 1
    35   14   15 1
    36   14   50 1
    37   14   51 1
    38   15   16 2
    39   15   52 1
    40   16   17 1
    41   16   53 1
    42   17   18 1
    43   17   54 1
    44   17   55 1
    45   18   19 1
    46   18   56 1
    47   18   57 1
    48   19   20 1
    49   19   58 1
    50   19   59 1
    51   20   21 2
    52   20   22 1
    53   22   23 1
    54   23   24 1
    55   23   60 1
    56   23   61 1
    57   24   25 1
    58   24   26 1
    59   24   28 1
    60   26   27 1
    61   26   62 1
    62   26   63 1
    63   27   64 1
    64   28   65 1
@<TRIPOS>MOLECULE
ZINC13675373
   61    60     0     0     0
SMALL
USER_CHARGES

@<TRIPOS>ATOM
      1 C1          0.6453    3.0200   -2.1184 C.3       1 <0>        -0.1543
      2 C2          0.9747    1.5406   -1.9090 C.3       1 <0>        -0.1260
      3 C3          1.2342    0.8791   -3.2640 C.3       1 <0>        -0.1214
      4 C4          1.5635   -0.6003   -3.0546 C.3       1 <0>        -0.1145
      5 C5          1.8231   -1.2617   -4.4095 C.3       1 <0>        -0.1026
      6 C6          2.1475   -2.7189   -4.2033 C.2       1 <0>        -0.1578
      7 C7          1.4879   -3.6368   -4.8654 C.2       1 <0>        -0.1537
      8 C8          0.5222   -3.2356   -5.9506 C.3       1 <0>        -0.0838
      9 C9          0.8663   -3.9645   -7.2239 C.2       1 <0>        -0.1506
     10 C10        -0.0571   -4.6399   -7.8620 C.2       1 <0>        -0.1525
     11 C11        -1.4947   -4.5556   -7.4178 C.3       1 <0>        -0.0838
     12 C12        -2.3604   -4.1684   -8.5889 C.2       1 <0>        -0.1514
     13 C13        -3.4010   -4.8991   -8.9041 C.2       1 <0>        -0.1519
     14 C14        -3.8363   -6.0212   -7.9973 C.3       1 <0>        -0.0833
     15 C15        -5.2963   -5.8582   -7.6615 C.2       1 <0>        -0.1517
     16 C16        -6.1304   -6.8470   -7.8682 C.2       1 <0>        -0.1574
     17 C17        -5.6088   -8.1980   -8.2850 C.3       1 <0>        -0.1016
     18 C18        -6.1669   -9.2713   -7.3483 C.3       1 <0>        -0.0995
     19 C19        -5.6374  -10.6430   -7.7715 C.3       1 <0>        -0.1402
     20 C20        -6.1871  -11.7002   -6.8489 C.2       1 <0>         0.5136
     21 O1         -6.9293  -11.3874   -5.9421 O.2       1 <0>        -0.5320
     22 N1         -5.8539  -12.9933   -7.0314 N.am      1 <0>        -0.7361
     23 C21        -6.3883  -14.0210   -6.1345 C.3       1 <0>         0.1079
     24 C22        -5.8588  -15.3927   -6.5577 C.3       1 <0>        -0.0498
     25 Cl1        -6.5164  -16.6575   -5.4539 Cl        1 <0>        -0.1588
     26 H1          1.4846    3.5132   -2.6087 H         1 <0>         0.0534
     27 H2         -0.2437    3.1095   -2.7426 H         1 <0>         0.0534
     28 H3          0.4604    3.4912   -1.1531 H         1 <0>         0.0536
     29 H4          1.8637    1.4511   -1.2847 H         1 <0>         0.0606
     30 H5          0.1353    1.0474   -1.4187 H         1 <0>         0.0606
     31 H6          0.3451    0.9686   -3.8882 H         1 <0>         0.0610
     32 H7          2.0735    1.3723   -3.7542 H         1 <0>         0.0613
     33 H8          2.4526   -0.6897   -2.4303 H         1 <0>         0.0617
     34 H9          0.7242   -1.0935   -2.5643 H         1 <0>         0.0620
     35 H10         0.9340   -1.1722   -5.0338 H         1 <0>         0.0756
     36 H11         2.6624   -0.7685   -4.8998 H         1 <0>         0.0688
     37 H12         2.9237   -3.0063   -3.5096 H         1 <0>         0.1089
     38 H13         1.6361   -4.6812   -4.6336 H         1 <0>         0.1085
     39 H14        -0.4926   -3.4932   -5.6473 H         1 <0>         0.0830
     40 H15         0.5897   -2.1606   -6.1177 H         1 <0>         0.0841
     41 H16         1.8742   -3.9300   -7.6103 H         1 <0>         0.1097
     42 H17         0.2118   -5.2572   -8.7064 H         1 <0>         0.1097
     43 H18        -1.8140   -5.5248   -7.0346 H         1 <0>         0.0833
     44 H19        -1.5889   -3.8055   -6.6326 H         1 <0>         0.0835
     45 H20        -2.1230   -3.2885   -9.1684 H         1 <0>         0.1098
     46 H21        -3.9470   -4.6972   -9.8138 H         1 <0>         0.1098
     47 H22        -3.6838   -6.9756   -8.5013 H         1 <0>         0.0834
     48 H23        -3.2476   -5.9965   -7.0803 H         1 <0>         0.0831
     49 H24        -5.6550   -4.9261   -7.2504 H         1 <0>         0.1094
     50 H25        -7.1917   -6.6940   -7.7398 H         1 <0>         0.1106
     51 H26        -5.9227   -8.4090   -9.3073 H         1 <0>         0.0707
     52 H27        -4.5201   -8.1995   -8.2316 H         1 <0>         0.0767
     53 H28        -5.8530   -9.0603   -6.3260 H         1 <0>         0.0716
     54 H29        -7.2556   -9.2698   -7.4017 H         1 <0>         0.0714
     55 H30        -5.9513  -10.8540   -8.7938 H         1 <0>         0.0956
     56 H31        -4.5487  -10.6445   -7.7181 H         1 <0>         0.0952
     57 H32        -5.2603  -13.2435   -7.7566 H         1 <0>         0.4022
     58 H33        -6.0744  -13.8100   -5.1122 H         1 <0>         0.0804
     59 H34        -7.4770  -14.0195   -6.1879 H         1 <0>         0.0805
     60 H35        -6.1727  -15.6037   -7.5800 H         1 <0>         0.1001
     61 H36        -4.7701  -15.3942   -6.5043 H         1 <0>         0.1001
@<TRIPOS>BOND
     1    1    2 1
     2    1   26 1
     3    1   27 1
     4    1   28 1
     5    2    3 1
     6    2   29 1
     7    2   30 1
     8    3    4 1
     9    3   31 1
    10    3   32 1
    11    4    5 1
    12    4   33 1
    13    4   34 1
    14    5    6 1
    15    5   35 1
    16    5   36 1
    17    6    7 2
    18    6   37 1
    19    7    8 1
    20    7   38 1
    21    8    9 1
    22    8   39 1
    23    8   40 1
    24    9   10 2
    25    9   41 1
    26   10   11 1
    27   10   42 1
    28   11   12 1
    29   11   43 1
    30   11   44 1
    31   12   13 2
    32   12   45 1
    33   13   14 1
    34   13   46 1
    35   14   15 1
    36   14   47 1
    37   14   48 1
    38   15   16 2
    39   15   49 1
    40   16   17 1
    41   16   50 1
    42   17   18 1
    43   17   51 1
    44   17   52 1
    45   18   19 1
    46   18   53 1
    47   18   54 1
    48   19   20 1
    49   19   55 1
    50   19   56 1
    51   20   21 2
    52   20   22 am
    53   22   23 1
    54   22   57 1
    55   23   24 1
    56   23   58 1
    57   23   59 1
    58   24   25 1
    59   24   60 1
    60   24   61 1
@<TRIPOS>MOLECULE
ZINC03809850
   62    61     0     0     0
SMALL
USER_CHARGES

@<TRIPOS>ATOM
      1 C1         -2.2312    2.9666    0.4945 C.3       1 <0>        -0.1543
      2 C2         -2.1773    1.4868    0.1097 C.3       1 <0>        -0.1260
      3 C3         -3.4636    0.7944    0.5647 C.3       1 <0>        -0.1214
      4 C4         -3.4097   -0.6855    0.1800 C.3       1 <0>        -0.1146
      5 C5         -4.6960   -1.3779    0.6349 C.3       1 <0>        -0.1025
      6 C6         -4.6429   -2.8355    0.2560 C.2       1 <0>        -0.1582
      7 C7         -4.8635   -3.7561    1.1614 C.2       1 <0>        -0.1534
      8 C8         -5.3306   -3.3617    2.5389 C.3       1 <0>        -0.0837
      9 C9         -6.5867   -4.1212    2.8800 C.2       1 <0>        -0.1511
     10 C10        -6.6608   -4.7947    4.0011 C.2       1 <0>        -0.1520
     11 C11        -5.5599   -4.6791    5.0237 C.3       1 <0>        -0.0839
     12 C12        -6.1510   -4.3020    6.3577 C.2       1 <0>        -0.1519
     13 C13        -5.8856   -5.0225    7.4190 C.2       1 <0>        -0.1513
     14 C14        -4.8547   -6.1194    7.3465 C.3       1 <0>        -0.0836
     15 C15        -3.8385   -5.9270    8.4425 C.2       1 <0>        -0.1524
     16 C16        -3.5758   -6.9066    9.2716 C.2       1 <0>        -0.1566
     17 C17        -4.1634   -8.2737    9.0331 C.3       1 <0>        -0.1019
     18 C18        -3.0466   -9.3192    9.0518 C.3       1 <0>        -0.0985
     19 C19        -3.6432  -10.7071    8.8097 C.3       1 <0>        -0.1408
     20 C20        -2.5431  -11.7370    8.8281 C.2       1 <0>         0.5104
     21 O1         -1.3950  -11.3946    9.0165 O.2       1 <0>        -0.5404
     22 N1         -2.8352  -13.0385    8.6354 N.am      1 <0>        -0.7286
     23 C21        -1.7658  -14.0397    8.6533 C.3       1 <0>         0.1176
     24 C22        -2.3624  -15.4276    8.4112 C.3       1 <0>         0.0628
     25 O2         -2.9130  -15.4861    7.0938 O.3       1 <0>        -0.5722
     26 H1         -1.3148    3.4599    0.1703 H         1 <0>         0.0535
     27 H2         -3.0875    3.4368    0.0110 H         1 <0>         0.0534
     28 H3         -2.3296    3.0574    1.5762 H         1 <0>         0.0534
     29 H4         -2.0789    1.3959   -0.9720 H         1 <0>         0.0605
     30 H5         -1.3210    1.0166    0.5932 H         1 <0>         0.0606
     31 H6         -3.5620    0.8852    1.6464 H         1 <0>         0.0610
     32 H7         -4.3199    1.2645    0.0812 H         1 <0>         0.0613
     33 H8         -3.3113   -0.7763   -0.9018 H         1 <0>         0.0616
     34 H9         -2.5534   -1.1557    0.6635 H         1 <0>         0.0621
     35 H10        -4.7944   -1.2871    1.7167 H         1 <0>         0.0756
     36 H11        -5.5523   -0.9077    0.1514 H         1 <0>         0.0687
     37 H12        -4.4230   -3.1211   -0.7621 H         1 <0>         0.1088
     38 H13        -4.7107   -4.7978    0.9208 H         1 <0>         0.1086
     39 H14        -4.5545   -3.5973    3.2670 H         1 <0>         0.0830
     40 H15        -5.5360   -2.2914    2.5602 H         1 <0>         0.0840
     41 H16        -7.4259   -4.1101    2.2002 H         1 <0>         0.1096
     42 H17        -7.5108   -5.4329    4.1925 H         1 <0>         0.1098
     43 H18        -5.0443   -5.6354    5.1121 H         1 <0>         0.0835
     44 H19        -4.8518   -3.9121    4.7102 H         1 <0>         0.0834
     45 H20        -6.7935   -3.4376    6.4387 H         1 <0>         0.1097
     46 H21        -6.4054   -4.8305    8.3460 H         1 <0>         0.1098
     47 H22        -5.3434   -7.0860    7.4698 H         1 <0>         0.0837
     48 H23        -4.3556   -6.0855    6.3781 H         1 <0>         0.0830
     49 H24        -3.3267   -4.9814    8.5444 H         1 <0>         0.1092
     50 H25        -2.9381   -6.7345   10.1261 H         1 <0>         0.1103
     51 H26        -4.8864   -8.5002    9.8168 H         1 <0>         0.0705
     52 H27        -4.6612   -8.2911    8.0635 H         1 <0>         0.0766
     53 H28        -2.3236   -9.0927    8.2682 H         1 <0>         0.0711
     54 H29        -2.5488   -9.3018   10.0214 H         1 <0>         0.0706
     55 H30        -4.3661  -10.9337    9.5933 H         1 <0>         0.0937
     56 H31        -4.1409  -10.7245    7.8401 H         1 <0>         0.0940
     57 H32        -3.7534  -13.3124    8.4848 H         1 <0>         0.4035
     58 H33        -1.0428  -13.8132    7.8697 H         1 <0>         0.0752
     59 H34        -1.2680  -14.0223    9.6229 H         1 <0>         0.0823
     60 H35        -1.5816  -16.1814    8.5125 H         1 <0>         0.0647
     61 H36        -3.1482  -15.6179    9.1422 H         1 <0>         0.0540
     62 H37        -3.3095  -16.3394    6.8708 H         1 <0>         0.3841
@<TRIPOS>BOND
     1    1    2 1
     2    1   26 1
     3    1   27 1
     4    1   28 1
     5    2    3 1
     6    2   29 1
     7    2   30 1
     8    3    4 1
     9    3   31 1
    10    3   32 1
    11    4    5 1
    12    4   33 1
    13    4   34 1
    14    5    6 1
    15    5   35 1
    16    5   36 1
    17    6    7 2
    18    6   37 1
    19    7    8 1
    20    7   38 1
    21    8    9 1
    22    8   39 1
    23    8   40 1
    24    9   10 2
    25    9   41 1
    26   10   11 1
    27   10   42 1
    28   11   12 1
    29   11   43 1
    30   11   44 1
    31   12   13 2
    32   12   45 1
    33   13   14 1
    34   13   46 1
    35   14   15 1
    36   14   47 1
    37   14   48 1
    38   15   16 2
    39   15   49 1
    40   16   17 1
    41   16   50 1
    42   17   18 1
    43   17   51 1
    44   17   52 1
    45   18   19 1
    46   18   53 1
    47   18   54 1
    48   19   20 1
    49   19   55 1
    50   19   56 1
    51   20   21 2
    52   20   22 am
    53   22   23 1
    54   22   57 1
    55   23   24 1
    56   23   58 1
    57   23   59 1
    58   24   25 1
    59   24   60 1
    60   24   61 1
    61   25   62 1
@<TRIPOS>MOLECULE
ZINC04467867
   60    59     0     0     0
SMALL
USER_CHARGES

@<TRIPOS>ATOM
      1 C1         -2.2312    2.9666    0.4945 C.3       1 <0>        -0.1539
      2 C2         -2.1773    1.4868    0.1097 C.3       1 <0>        -0.1261
      3 C3         -3.4636    0.7944    0.5647 C.3       1 <0>        -0.1212
      4 C4         -3.4097   -0.6855    0.1800 C.3       1 <0>        -0.1147
      5 C5         -4.6960   -1.3779    0.6349 C.3       1 <0>        -0.1016
      6 C6         -4.6429   -2.8355    0.2560 C.2       1 <0>        -0.1623
      7 C7         -4.8635   -3.7561    1.1614 C.2       1 <0>        -0.1496
      8 C8         -5.3306   -3.3617    2.5389 C.3       1 <0>        -0.0833
      9 C9         -6.5867   -4.1212    2.8800 C.2       1 <0>        -0.1558
     10 C10        -6.6608   -4.7947    4.0011 C.2       1 <0>        -0.1472
     11 C11        -5.5599   -4.6791    5.0237 C.3       1 <0>        -0.0845
     12 C12        -6.1510   -4.3020    6.3577 C.2       1 <0>        -0.1575
     13 C13        -5.8856   -5.0225    7.4190 C.2       1 <0>        -0.1451
     14 C14        -4.8547   -6.1194    7.3465 C.3       1 <0>        -0.0847
     15 C15        -3.8385   -5.9270    8.4425 C.2       1 <0>        -0.1608
     16 C16        -3.5758   -6.9066    9.2716 C.2       1 <0>        -0.1475
     17 C17        -4.1634   -8.2737    9.0331 C.3       1 <0>        -0.1034
     18 C18        -3.0466   -9.3192    9.0518 C.3       1 <0>        -0.0956
     19 C19        -3.6432  -10.7071    8.8097 C.3       1 <0>        -0.1403
     20 C20        -2.5431  -11.7370    8.8281 C.2       1 <0>         0.4990
     21 O1         -1.3950  -11.3946    9.0165 O.2       1 <0>        -0.5633
     22 N1         -2.8352  -13.0385    8.6354 N.am      1 <0>        -0.7015
     23 C21        -1.7658  -14.0397    8.6533 C.3       1 <0>         0.0499
     24 C22        -2.3534  -15.4067    8.4148 C.2       1 <0>         0.4898
     25 O2         -3.5542  -15.5330    8.2455 O.co2     1 <0>        -0.6926
     26 O3         -1.6280  -16.3864    8.3911 O.co2     1 <0>        -0.6892
     27 H1         -1.3148    3.4599    0.1703 H         1 <0>         0.0529
     28 H2         -3.0875    3.4368    0.0110 H         1 <0>         0.0528
     29 H3         -2.3296    3.0574    1.5762 H         1 <0>         0.0535
     30 H4         -2.0789    1.3959   -0.9720 H         1 <0>         0.0602
     31 H5         -1.3210    1.0166    0.5932 H         1 <0>         0.0610
     32 H6         -3.5620    0.8852    1.6464 H         1 <0>         0.0612
     33 H7         -4.3199    1.2645    0.0812 H         1 <0>         0.0607
     34 H8         -3.3113   -0.7763   -0.9018 H         1 <0>         0.0611
     35 H9         -2.5534   -1.1557    0.6635 H         1 <0>         0.0625
     36 H10        -4.7944   -1.2871    1.7167 H         1 <0>         0.0758
     37 H11        -5.5523   -0.9077    0.1514 H         1 <0>         0.0675
     38 H12        -4.4230   -3.1211   -0.7621 H         1 <0>         0.1082
     39 H13        -4.7107   -4.7978    0.9208 H         1 <0>         0.1094
     40 H14        -4.5545   -3.5973    3.2670 H         1 <0>         0.0839
     41 H15        -5.5360   -2.2914    2.5602 H         1 <0>         0.0826
     42 H16        -7.4259   -4.1101    2.2002 H         1 <0>         0.1086
     43 H17        -7.5108   -5.4329    4.1925 H         1 <0>         0.1104
     44 H18        -5.0443   -5.6354    5.1121 H         1 <0>         0.0857
     45 H19        -4.8518   -3.9121    4.7102 H         1 <0>         0.0821
     46 H20        -6.7935   -3.4376    6.4387 H         1 <0>         0.1079
     47 H21        -6.4054   -4.8305    8.3460 H         1 <0>         0.1092
     48 H22        -5.3434   -7.0860    7.4698 H         1 <0>         0.0864
     49 H23        -4.3556   -6.0855    6.3781 H         1 <0>         0.0822
     50 H24        -3.3267   -4.9814    8.5444 H         1 <0>         0.1069
     51 H25        -2.9381   -6.7345   10.1261 H         1 <0>         0.1095
     52 H26        -4.8864   -8.5002    9.8168 H         1 <0>         0.0706
     53 H27        -4.6612   -8.2911    8.0635 H         1 <0>         0.0758
     54 H28        -2.3236   -9.0927    8.2682 H         1 <0>         0.0691
     55 H29        -2.5488   -9.3018   10.0214 H         1 <0>         0.0690
     56 H30        -4.3661  -10.9337    9.5933 H         1 <0>         0.0901
     57 H31        -4.1409  -10.7245    7.8401 H         1 <0>         0.0895
     58 H32        -3.7534  -13.3124    8.4848 H         1 <0>         0.4075
     59 H33        -1.0428  -13.8132    7.8697 H         1 <0>         0.0645
     60 H34        -1.2680  -14.0223    9.6229 H         1 <0>         0.0645
@<TRIPOS>BOND
     1    1    2 1
     2    1   27 1
     3    1   28 1
     4    1   29 1
     5    2    3 1
     6    2   30 1
     7    2   31 1
     8    3    4 1
     9    3   32 1
    10    3   33 1
    11    4    5 1
    12    4   34 1
    13    4   35 1
    14    5    6 1
    15    5   36 1
    16    5   37 1
    17    6    7 2
    18    6   38 1
    19    7    8 1
    20    7   39 1
    21    8    9 1
    22    8   40 1
    23    8   41 1
    24    9   10 2
    25    9   42 1
    26   10   11 1
    27   10   43 1
    28   11   12 1
    29   11   44 1
    30   11   45 1
    31   12   13 2
    32   12   46 1
    33   13   14 1
    34   13   47 1
    35   14   15 1
    36   14   48 1
    37   14   49 1
    38   15   16 2
    39   15   50 1
    40   16   17 1
    41   16   51 1
    42   17   18 1
    43   17   52 1
    44   17   53 1
    45   18   19 1
    46   18   54 1
    47   18   55 1
    48   19   20 1
    49   19   56 1
    50   19   57 1
    51   20   21 2
    52   20   22 am
    53   22   23 1
    54   22   58 1
    55   23   24 1
    56   23   59 1
    57   23   60 1
    58   24   25 2
    59   24   26 1
@<TRIPOS>MOLECULE
ZINC34803574
   62    63     0     0     0
SMALL
USER_CHARGES

@<TRIPOS>ATOM
      1 C1         -0.0187    1.5258    0.0104 C.3       1 <0>        -0.1545
      2 C2          0.0021   -0.0041    0.0020 C.3       1 <0>        -0.1261
      3 C3          0.7182   -0.4975   -1.2568 C.3       1 <0>        -0.1216
      4 C4          0.7390   -2.0273   -1.2652 C.3       1 <0>        -0.1210
      5 C5          1.4551   -2.5207   -2.5240 C.3       1 <0>        -0.1207
      6 C6          1.4758   -4.0506   -2.5324 C.3       1 <0>        -0.1208
      7 C7          2.1920   -4.5440   -3.7912 C.3       1 <0>        -0.1145
      8 C8          2.2127   -6.0738   -3.7996 C.3       1 <0>        -0.0069
      9 C9          2.9017   -6.5485   -5.0107 C.1       1 <0>        -0.1877
     10 C10         3.4512   -6.9272   -5.9766 C.1       1 <0>        -0.1879
     11 C11         4.1402   -7.4019   -7.1877 C.3       1 <0>        -0.0068
     12 C12         4.1610   -8.9317   -7.1961 C.3       1 <0>        -0.1149
     13 C13         4.8771   -9.4251   -8.4549 C.3       1 <0>        -0.1208
     14 C14         4.8979  -10.9550   -8.4633 C.3       1 <0>        -0.1208
     15 C15         5.6140  -11.4484   -9.7221 C.3       1 <0>        -0.1197
     16 C16         5.6347  -12.9782   -9.7305 C.3       1 <0>        -0.1156
     17 C17         6.3509  -13.4716  -10.9894 C.3       1 <0>        -0.1403
     18 C18         6.3713  -14.9785  -10.9976 C.2       1 <0>         0.4494
     19 O1          5.8634  -15.5966  -10.0869 O.2       1 <0>        -0.4055
     20 C19         7.0088  -15.7006  -12.1129 C.2       1 <0>         0.1966
     21 N1          7.5895  -15.1339  -13.1400 N.2       1 <0>        -0.4081
     22 C20         8.0612  -16.0913  -13.9615 C.ar      1 <0>         0.2203
     23 C21         7.7316  -17.3260  -13.3702 C.ar      1 <0>        -0.0344
     24 O2          7.0847  -17.0414  -12.2226 O.3       1 <0>        -0.1794
     25 C22         8.1002  -18.5052  -14.0073 C.ar      1 <0>        -0.0413
     26 C23         8.7820  -18.4152  -15.2073 C.ar      1 <0>        -0.1389
     27 C24         9.0758  -17.1650  -15.7357 C.ar      1 <0>         0.1340
     28 N2          8.7195  -16.0609  -15.1194 N.ar      1 <0>        -0.4302
     29 H1          1.0039    1.9031    0.0027 H         1 <0>         0.0533
     30 H2         -0.5459    1.8868   -0.8726 H         1 <0>         0.0533
     31 H3         -0.5289    1.8773    0.9072 H         1 <0>         0.0534
     32 H4          0.5293   -0.3651    0.8851 H         1 <0>         0.0603
     33 H5         -1.0205   -0.3814    0.0098 H         1 <0>         0.0603
     34 H6          0.1910   -0.1364   -2.1398 H         1 <0>         0.0607
     35 H7          1.7408   -0.1202   -1.2645 H         1 <0>         0.0607
     36 H8          1.2661   -2.3884   -0.3821 H         1 <0>         0.0611
     37 H9         -0.2836   -2.4046   -1.2575 H         1 <0>         0.0611
     38 H10         0.9279   -2.1597   -3.4071 H         1 <0>         0.0614
     39 H11         2.4777   -2.1435   -2.5317 H         1 <0>         0.0614
     40 H12         2.0030   -4.4117   -1.6494 H         1 <0>         0.0639
     41 H13         0.4533   -4.4279   -2.5247 H         1 <0>         0.0639
     42 H14         1.6648   -4.1829   -4.6743 H         1 <0>         0.0649
     43 H15         3.2146   -4.1667   -3.7990 H         1 <0>         0.0649
     44 H16         2.7399   -6.4349   -2.9166 H         1 <0>         0.0844
     45 H17         1.1901   -6.4511   -3.7919 H         1 <0>         0.0844
     46 H18         3.6130   -7.0408   -8.0708 H         1 <0>         0.0845
     47 H19         5.1628   -7.0246   -7.1954 H         1 <0>         0.0845
     48 H20         4.6882   -9.2928   -6.3131 H         1 <0>         0.0651
     49 H21         3.1384   -9.3090   -7.1884 H         1 <0>         0.0651
     50 H22         4.3499   -9.0640   -9.3380 H         1 <0>         0.0649
     51 H23         5.8997   -9.0478   -8.4627 H         1 <0>         0.0649
     52 H24         5.4250  -11.3160   -7.5803 H         1 <0>         0.0635
     53 H25         3.8753  -11.3322   -8.4556 H         1 <0>         0.0635
     54 H26         5.0868  -11.0873  -10.6052 H         1 <0>         0.0667
     55 H27         6.6366  -11.0711   -9.7299 H         1 <0>         0.0667
     56 H28         6.1619  -13.3393   -8.8475 H         1 <0>         0.0730
     57 H29         4.6122  -13.3555   -9.7228 H         1 <0>         0.0730
     58 H30         5.8237  -13.1106  -11.8724 H         1 <0>         0.1163
     59 H31         7.3735  -13.0944  -10.9971 H         1 <0>         0.1163
     60 H32         7.8608  -19.4662  -13.5765 H         1 <0>         0.1539
     61 H33         9.0842  -19.3110  -15.7296 H         1 <0>         0.1622
     62 H34         9.6086  -17.0990  -16.6728 H         1 <0>         0.1804
@<TRIPOS>BOND
     1    1    2 1
     2    1   29 1
     3    1   30 1
     4    1   31 1
     5    2    3 1
     6    2   32 1
     7    2   33 1
     8    3    4 1
     9    3   34 1
    10    3   35 1
    11    4    5 1
    12    4   36 1
    13    4   37 1
    14    5    6 1
    15    5   38 1
    16    5   39 1
    17    6    7 1
    18    6   40 1
    19    6   41 1
    20    7    8 1
    21    7   42 1
    22    7   43 1
    23    8    9 1
    24    8   44 1
    25    8   45 1
    26    9   10 3
    27   10   11 1
    28   11   12 1
    29   11   46 1
    30   11   47 1
    31   12   13 1
    32   12   48 1
    33   12   49 1
    34   13   14 1
    35   13   50 1
    36   13   51 1
    37   14   15 1
    38   14   52 1
    39   14   53 1
    40   15   16 1
    41   15   54 1
    42   15   55 1
    43   16   17 1
    44   16   56 1
    45   16   57 1
    46   17   18 1
    47   17   58 1
    48   17   59 1
    49   18   19 2
    50   18   20 1
    51   20   24 1
    52   20   21 2
    53   21   22 1
    54   22   28 ar
    55   22   23 ar
    56   23   24 1
    57   23   25 ar
    58   25   26 ar
    59   25   60 1
    60   26   27 ar
    61   26   61 1
    62   27   28 ar
    63   27   62 1
@<TRIPOS>MOLECULE
ZINC13611906
   40    42     0     0     0
SMALL
USER_CHARGES
1-oxazolo[4,5-b]pyridin-2-yl-6-phenyl-hexan-1-one
@<TRIPOS>ATOM
      1 C1         12.9435    3.6324   -0.1080 C.ar      1 <0>        -0.1261
      2 C2         12.2489    3.7492   -1.2975 C.ar      1 <0>        -0.1183
      3 C3         10.8841    3.9684   -1.2823 C.ar      1 <0>        -0.1188
      4 C4         10.2140    4.0712   -0.0776 C.ar      1 <0>        -0.0822
      5 C5         10.9095    3.9601    1.1119 C.ar      1 <0>        -0.1188
      6 C6         12.2734    3.7357    1.0967 C.ar      1 <0>        -0.1183
      7 C7          8.7262    4.3106   -0.0610 C.3       1 <0>        -0.0821
      8 C8          7.9935    2.9675   -0.0613 C.3       1 <0>        -0.1136
      9 C9          6.4830    3.2106   -0.0445 C.3       1 <0>        -0.1201
     10 C10         5.7503    1.8674   -0.0448 C.3       1 <0>        -0.1170
     11 C11         4.2398    2.1105   -0.0280 C.3       1 <0>        -0.1291
     12 C12         3.5181    0.7875   -0.0283 C.2       1 <0>         0.4484
     13 O1          4.1494   -0.2473   -0.0407 O.2       1 <0>        -0.4041
     14 C13         2.0450    0.7518   -0.0134 C.2       1 <0>         0.1963
     15 N1          1.2685    1.8055   -0.0004 N.2       1 <0>        -0.4079
     16 C14        -0.0170    1.4038    0.0098 C.ar      1 <0>         0.2203
     17 C15         0.0021   -0.0041    0.0020 C.ar      1 <0>        -0.0341
     18 O2          1.2990   -0.3703   -0.0123 O.3       1 <0>        -0.1790
     19 C16        -1.2008   -0.7007    0.0098 C.ar      1 <0>        -0.0413
     20 C17        -2.3778    0.0258    0.0249 C.ar      1 <0>        -0.1387
     21 C18        -2.3256    1.4135    0.0319 C.ar      1 <0>         0.1341
     22 N2         -1.1792    2.0550    0.0292 N.ar      1 <0>        -0.4301
     23 H1         14.0097    3.4608   -0.1199 H         1 <0>         0.1206
     24 H2         12.7725    3.6689   -2.2387 H         1 <0>         0.1212
     25 H3         10.3415    4.0597   -2.2116 H         1 <0>         0.1207
     26 H4         10.3866    4.0448    2.0531 H         1 <0>         0.1207
     27 H5         12.8162    3.6448    2.0260 H         1 <0>         0.1212
     28 H6          8.4401    4.8808   -0.9448 H         1 <0>         0.0727
     29 H7          8.4583    4.8705    0.8350 H         1 <0>         0.0728
     30 H8          8.2797    2.3973    0.8225 H         1 <0>         0.0652
     31 H9          8.2615    2.4077   -0.9574 H         1 <0>         0.0651
     32 H10         6.1969    3.7807   -0.9283 H         1 <0>         0.0676
     33 H11         6.2151    3.7704    0.8516 H         1 <0>         0.0679
     34 H12         6.0365    1.2972    0.8390 H         1 <0>         0.0742
     35 H13         6.0183    1.3076   -0.9408 H         1 <0>         0.0738
     36 H14         3.9774    2.6336   -0.8388 H         1 <0>         0.1035
     37 H15         3.9719    2.6703    0.8681 H         1 <0>         0.1166
     38 H16        -1.2161   -1.7805    0.0045 H         1 <0>         0.1540
     39 H17        -3.3306   -0.4826    0.0309 H         1 <0>         0.1623
     40 H18        -3.2467    1.9771    0.0437 H         1 <0>         0.1805
@<TRIPOS>BOND
     1    1    6 ar
     2    1    2 ar
     3    1   23 1
     4    2    3 ar
     5    2   24 1
     6    3    4 ar
     7    3   25 1
     8    4    5 ar
     9    4    7 1
    10    5    6 ar
    11    5   26 1
    12    6   27 1
    13    7    8 1
    14    7   28 1
    15    7   29 1
    16    8    9 1
    17    8   30 1
    18    8   31 1
    19    9   10 1
    20    9   32 1
    21    9   33 1
    22   10   11 1
    23   10   34 1
    24   10   35 1
    25   11   12 1
    26   11   36 1
    27   11   37 1
    28   12   13 2
    29   12   14 1
    30   14   18 1
    31   14   15 2
    32   15   16 1
    33   16   22 ar
    34   16   17 ar
    35   17   18 1
    36   17   19 ar
    37   19   20 ar
    38   19   38 1
    39   20   21 ar
    40   20   39 1
    41   21   22 ar
    42   21   40 1
@<TRIPOS>MOLECULE
ZINC59062597
   58    63     0     0     0
SMALL
USER_CHARGES

@<TRIPOS>ATOM
      1 C1         -0.0187    1.5258    0.0104 C.3       1 <0>        -0.1712
      2 C2          0.0021   -0.0041    0.0020 C.3       1 <0>         0.1267
      3 N1          0.7106   -0.4894    1.1889 N.am      1 <0>        -0.5386
      4 C3          2.0783   -0.7378    1.2769 C.ar      1 <0>         0.0924
      5 C4          3.1258   -0.6253    0.3754 C.ar      1 <0>        -0.1046
      6 C5          4.4084   -0.9549    0.7673 C.ar      1 <0>        -0.1086
      7 C6          4.6526   -1.3975    2.0561 C.ar      1 <0>        -0.1089
      8 C7          3.6156   -1.5133    2.9609 C.ar      1 <0>        -0.1038
      9 C8          2.3246   -1.1838    2.5770 C.ar      1 <0>         0.0912
     10 N2          1.0989   -1.1925    3.2385 N.am      1 <0>        -0.5340
     11 C9          0.1517   -0.7657    2.3822 C.2       1 <0>         0.6812
     12 O1         -1.0308   -0.6506    2.6457 O.2       1 <0>        -0.5496
     13 C10         0.8789   -1.5920    4.6307 C.3       1 <0>         0.1547
     14 H1          1.8280   -1.8855    5.0793 H         1 <0>         0.1005
     15 C11         0.2865   -0.4169    5.4118 C.3       1 <0>        -0.1364
     16 C12         0.0868   -0.8228    6.8738 C.3       1 <0>        -0.1289
     17 C13        -0.8967   -1.9952    6.9444 C.3       1 <0>         0.1219
     18 N3         -0.4060   -3.0768    6.0795 N.pl3     1 <0>        -0.5770
     19 C14        -0.0950   -2.7737    4.6758 C.3       1 <0>         0.1172
     20 C15        -0.2393   -4.3574    6.5776 C.ar      1 <0>         0.5807
     21 N4          0.2104   -5.3096    5.7725 N.ar      1 <0>        -0.5677
     22 C16         0.3843   -6.5472    6.2096 C.ar      1 <0>         0.2025
     23 C17         0.0910   -6.8472    7.5273 C.ar      1 <0>        -0.2697
     24 C18        -0.3823   -5.8221    8.3547 C.ar      1 <0>         0.2896
     25 N5         -0.5278   -4.5979    7.8462 N.ar      1 <0>        -0.5554
     26 C19        -0.7099   -6.0906    9.7693 C.2       1 <0>         0.0528
     27 C20        -1.1779   -5.1720   10.6484 C.2       1 <0>        -0.1250
     28 C21        -1.3586   -5.8797   11.9173 C.ar      1 <0>        -0.1424
     29 C22        -1.8028   -5.5048   13.1866 C.ar      1 <0>        -0.0617
     30 C23        -1.8552   -6.4338   14.1878 C.ar      1 <0>        -0.1368
     31 C24        -1.4695   -7.7456   13.9503 C.ar      1 <0>        -0.0837
     32 C25        -1.0281   -8.1352   12.7039 C.ar      1 <0>        -0.1096
     33 C26        -0.9669   -7.2079   11.6707 C.ar      1 <0>         0.0678
     34 O2         -0.5936   -7.2880   10.3779 O.3       1 <0>        -0.1832
     35 H2          1.0039    1.9031    0.0027 H         1 <0>         0.0607
     36 H3         -0.5459    1.8868   -0.8726 H         1 <0>         0.0767
     37 H4         -0.5289    1.8773    0.9072 H         1 <0>         0.0624
     38 H5         -1.0205   -0.3814    0.0098 H         1 <0>         0.0943
     39 H6          0.5123   -0.3556   -0.8948 H         1 <0>         0.0900
     40 H7          2.9391   -0.2810   -0.6310 H         1 <0>         0.1297
     41 H8          5.2244   -0.8673    0.0652 H         1 <0>         0.1336
     42 H9          5.6582   -1.6538    2.3552 H         1 <0>         0.1333
     43 H10         3.8098   -1.8596    3.9653 H         1 <0>         0.1274
     44 H11         0.9669    0.4331    5.3606 H         1 <0>         0.0716
     45 H12        -0.6741   -0.1396    4.9775 H         1 <0>         0.0863
     46 H13         1.0431   -1.1238    7.3016 H         1 <0>         0.0696
     47 H14        -0.3133    0.0220    7.4345 H         1 <0>         0.0873
     48 H15        -0.9666   -2.3521    7.9719 H         1 <0>         0.1030
     49 H16        -1.8786   -1.6696    6.6009 H         1 <0>         0.0717
     50 H17        -1.0116   -2.5121    4.1471 H         1 <0>         0.0854
     51 H18         0.3643   -3.6438    4.2066 H         1 <0>         0.1038
     52 H19         0.7510   -7.3146    5.5440 H         1 <0>         0.1745
     53 H20         0.2236   -7.8488    7.9089 H         1 <0>         0.1504
     54 H21        -1.3770   -4.1286   10.4529 H         1 <0>         0.1683
     55 H22        -2.1034   -4.4850   13.3767 H         1 <0>         0.1310
     56 H23        -2.1987   -6.1450   15.1702 H         1 <0>         0.1326
     57 H24        -1.5154   -8.4691   14.7508 H         1 <0>         0.1384
     58 H25        -0.7305   -9.1589   12.5307 H         1 <0>         0.1354
@<TRIPOS>BOND
     1    1    2 1
     2    1   35 1
     3    1   36 1
     4    1   37 1
     5    2    3 1
     6    2   38 1
     7    2   39 1
     8    3   11 am
     9    3    4 1
    10    4    9 ar
    11    4    5 ar
    12    5    6 ar
    13    5   40 1
    14    6    7 ar
    15    6   41 1
    16    7    8 ar
    17    7   42 1
    18    8    9 ar
    19    8   43 1
    20    9   10 1
    21   10   11 am
    22   10   13 1
    23   11   12 2
    24   13   14 1
    25   13   19 1
    26   13   15 1
    27   15   16 1
    28   15   44 1
    29   15   45 1
    30   16   17 1
    31   16   46 1
    32   16   47 1
    33   17   18 1
    34   17   48 1
    35   17   49 1
    36   18   19 1
    37   18   20 1
    38   19   50 1
    39   19   51 1
    40   20   25 ar
    41   20   21 ar
    42   21   22 ar
    43   22   23 ar
    44   22   52 1
    45   23   24 ar
    46   23   53 1
    47   24   25 ar
    48   24   26 1
    49   26   34 1
    50   26   27 2
    51   27   28 1
    52   27   54 1
    53   28   33 ar
    54   28   29 ar
    55   29   30 ar
    56   29   55 1
    57   30   31 ar
    58   30   56 1
    59   31   32 ar
    60   31   57 1
    61   32   33 ar
    62   32   58 1
    63   33   34 1
@<TRIPOS>MOLECULE
ZINC03949004
   47    49     0     0     0
SMALL
USER_CHARGES
7-phenyl-1-[5-(2-pyridyl)oxazol-2-yl]-heptan-1-one
@<TRIPOS>ATOM
      1 C1         16.2362    9.3508   -0.0966 C.ar      1 <0>        -0.1264
      2 C2         15.8809    8.7580    1.1006 C.ar      1 <0>        -0.1182
      3 C3         15.1481    7.5859    1.1008 C.ar      1 <0>        -0.1191
      4 C4         14.7709    7.0063   -0.0962 C.ar      1 <0>        -0.0815
      5 C5         15.1310    7.5961   -1.2934 C.ar      1 <0>        -0.1191
      6 C6         15.8594    8.7710   -1.2936 C.ar      1 <0>        -0.1182
      7 C7         13.9723    5.7283   -0.0959 C.3       1 <0>        -0.0827
      8 C8         12.4788    6.0601   -0.0804 C.3       1 <0>        -0.1132
      9 C9         11.6680    4.7626   -0.0802 C.3       1 <0>        -0.1206
     10 C10        10.1745    5.0944   -0.0647 C.3       1 <0>        -0.1198
     11 C11         9.3638    3.7969   -0.0645 C.3       1 <0>        -0.1162
     12 C12         7.8703    4.1287   -0.0490 C.3       1 <0>        -0.1287
     13 C13         7.0717    2.8507   -0.0488 C.2       1 <0>         0.4496
     14 O1          7.6414    1.7794   -0.0599 O.2       1 <0>        -0.4203
     15 C14         5.6076    2.9018   -0.0351 C.2       1 <0>         0.1101
     16 N1          4.8813    4.0000   -0.0219 N.2       1 <0>        -0.4181
     17 C15         3.5948    3.6676   -0.0177 C.2       1 <0>         0.0189
     18 C16         3.5211    2.2906   -0.0189 C.2       1 <0>         0.0180
     19 O2          4.7884    1.8333   -0.0335 O.3       1 <0>        -0.1604
     20 C17         2.2904    1.4744   -0.0120 C.ar      1 <0>         0.1894
     21 C18         2.3828    0.0814   -0.0203 C.ar      1 <0>        -0.1443
     22 C19         1.2202   -0.6691   -0.0132 C.ar      1 <0>        -0.0695
     23 C20         0.0021   -0.0041    0.0020 C.ar      1 <0>        -0.1588
     24 C21        -0.0167    1.3796    0.0096 C.ar      1 <0>         0.1126
     25 N2          1.1034    2.0715    0.0026 N.ar      1 <0>        -0.4629
     26 H1         16.8084   10.2667   -0.0967 H         1 <0>         0.1206
     27 H2         16.1756    9.2107    2.0358 H         1 <0>         0.1212
     28 H3         14.8705    7.1227    2.0362 H         1 <0>         0.1205
     29 H4         14.8401    7.1410   -2.2286 H         1 <0>         0.1205
     30 H5         16.1372    9.2340   -2.2289 H         1 <0>         0.1212
     31 H6         14.2236    5.1430    0.7886 H         1 <0>         0.0720
     32 H7         14.2074    5.1529   -0.9913 H         1 <0>         0.0720
     33 H8         12.2274    6.6455   -0.9649 H         1 <0>         0.0636
     34 H9         12.2437    6.6356    0.8149 H         1 <0>         0.0637
     35 H10        11.9194    4.1773    0.8043 H         1 <0>         0.0640
     36 H11        11.9031    4.1872   -0.9756 H         1 <0>         0.0638
     37 H12         9.9232    5.6798   -0.9492 H         1 <0>         0.0658
     38 H13         9.9395    5.6699    0.8307 H         1 <0>         0.0661
     39 H14         9.6151    3.2116    0.8200 H         1 <0>         0.0727
     40 H15         9.5988    3.2215   -0.9598 H         1 <0>         0.0723
     41 H16         7.6397    4.6657   -0.8605 H         1 <0>         0.1005
     42 H17         7.6352    4.7042    0.8464 H         1 <0>         0.1128
     43 H18         2.7589    4.3515   -0.0115 H         1 <0>         0.2054
     44 H19         3.3477   -0.4035   -0.0326 H         1 <0>         0.1420
     45 H20         1.2599   -1.7483   -0.0198 H         1 <0>         0.1446
     46 H21        -0.9229   -0.5615    0.0082 H         1 <0>         0.1447
     47 H22        -0.9634    1.8992    0.0169 H         1 <0>         0.1693
@<TRIPOS>BOND
     1    1    6 ar
     2    1    2 ar
     3    1   26 1
     4    2    3 ar
     5    2   27 1
     6    3    4 ar
     7    3   28 1
     8    4    5 ar
     9    4    7 1
    10    5    6 ar
    11    5   29 1
    12    6   30 1
    13    7    8 1
    14    7   31 1
    15    7   32 1
    16    8    9 1
    17    8   33 1
    18    8   34 1
    19    9   10 1
    20    9   35 1
    21    9   36 1
    22   10   11 1
    23   10   37 1
    24   10   38 1
    25   11   12 1
    26   11   39 1
    27   11   40 1
    28   12   13 1
    29   12   41 1
    30   12   42 1
    31   13   14 2
    32   13   15 1
    33   15   19 1
    34   15   16 2
    35   16   17 1
    36   17   18 2
    37   17   43 1
    38   18   19 1
    39   18   20 1
    40   20   25 ar
    41   20   21 ar
    42   21   22 ar
    43   21   44 1
    44   22   23 ar
    45   22   45 1
    46   23   24 ar
    47   23   46 1
    48   24   25 ar
    49   24   47 1
@<TRIPOS>MOLECULE
ZINC43201419
   52    56     0     0     0
SMALL
USER_CHARGES

@<TRIPOS>ATOM
      1 C1          2.3219    1.4362    0.0814 C.ar      1 <0>        -0.0682
      2 C2          1.1140    2.1052    0.1607 C.ar      1 <0>        -0.1318
      3 C3         -0.0715    1.3951    0.2067 C.ar      1 <0>        -0.1305
      4 C4         -0.0530    0.0144    0.1730 C.ar      1 <0>        -0.1519
      5 C5          1.1582   -0.6606    0.0929 C.ar      1 <0>         0.2200
      6 C6          2.3475    0.0560    0.0474 C.ar      1 <0>        -0.1685
      7 N1          1.1805   -2.0568    0.0587 N.pl3     1 <0>        -0.6281
      8 C7          2.4447   -2.7800   -0.1374 C.3       1 <0>         0.1064
      9 C8          2.6286   -3.7684    1.0208 C.3       1 <0>         0.1096
     10 N2          1.3884   -4.5404    1.1808 N.am      1 <0>        -0.5974
     11 C9          0.1242   -3.8171    1.3770 C.3       1 <0>         0.0471
     12 C10        -0.0590   -2.8289    0.2243 C.3       1 <0>         0.1104
     13 C11         1.4099   -5.8876    1.1478 C.2       1 <0>         0.7279
     14 O1          2.4716   -6.4777    1.1158 O.2       1 <0>        -0.5103
     15 N3          0.2538   -6.5803    1.1504 N.am      1 <0>        -0.3834
     16 C12         0.1136   -7.9492    1.2457 C.ar      1 <0>         0.3244
     17 C13        -1.2705   -8.1977    1.2067 C.ar      1 <0>        -0.0720
     18 C14        -1.7255   -9.5224    1.2853 C.ar      1 <0>         0.0296
     19 C15        -0.8000  -10.5232    1.3973 C.ar      1 <0>        -0.1756
     20 C16         0.5609  -10.2061    1.4303 C.ar      1 <0>         0.2590
     21 N4          0.9724   -8.9491    1.3549 N.ar      1 <0>        -0.4613
     22 C17         1.5603  -11.2944    1.5523 C.ar      1 <0>        -0.0655
     23 C18         1.1427  -12.6224    1.6274 C.ar      1 <0>        -0.0735
     24 C19         2.0768  -13.6314    1.7409 C.ar      1 <0>        -0.1162
     25 C20         3.4269  -13.3269    1.7802 C.ar      1 <0>        -0.0129
     26 C21         3.8469  -12.0097    1.7060 C.ar      1 <0>        -0.1173
     27 C22         2.9212  -10.9937    1.5866 C.ar      1 <0>        -0.0522
     28 Cl1         4.5972  -14.6012    1.9237 Cl        1 <0>        -0.0600
     29 N5         -1.9009   -7.0057    1.0924 N.2       1 <0>        -0.1578
     30 N6         -1.0411   -6.0493    1.0627 N.2       1 <0>         0.0100
     31 C23        -1.3851    2.1284    0.2941 C.3       1 <0>         0.5069
     32 F1         -1.1491    3.5072    0.3146 F         1 <0>        -0.1757
     33 F2         -2.1735    1.8067   -0.8160 F         1 <0>        -0.1762
     34 F3         -2.0523    1.7520    1.4647 F         1 <0>        -0.1764
     35 H1          3.2458    1.9940    0.0415 H         1 <0>         0.1354
     36 H2          1.0968    3.1848    0.1872 H         1 <0>         0.1359
     37 H3         -0.9793   -0.5397    0.2093 H         1 <0>         0.1340
     38 H4          3.2911   -0.4658   -0.0148 H         1 <0>         0.1326
     39 H5          2.4120   -3.3244   -1.0812 H         1 <0>         0.0731
     40 H6          3.2733   -2.0719   -0.1492 H         1 <0>         0.1033
     41 H7          3.4540   -4.4443    0.7973 H         1 <0>         0.1090
     42 H8          2.8396   -3.2205    1.9392 H         1 <0>         0.0838
     43 H9         -0.7044   -4.5253    1.3887 H         1 <0>         0.1498
     44 H10         0.1568   -3.2728    2.3208 H         1 <0>         0.0792
     45 H11        -0.8834   -2.1531    0.4515 H         1 <0>         0.0998
     46 H12        -0.2740   -3.3769   -0.6931 H         1 <0>         0.0724
     47 H13        -2.7816   -9.7466    1.2584 H         1 <0>         0.1646
     48 H14        -1.1191  -11.5531    1.4602 H         1 <0>         0.1630
     49 H15         0.0898  -12.8608    1.5972 H         1 <0>         0.1426
     50 H16         1.7543  -14.6604    1.7995 H         1 <0>         0.1427
     51 H17         4.9012  -11.7775    1.7371 H         1 <0>         0.1409
     52 H18         3.2500   -9.9668    1.5239 H         1 <0>         0.1495
@<TRIPOS>BOND
     1    1    6 ar
     2    1    2 ar
     3    1   35 1
     4    2    3 ar
     5    2   36 1
     6    3    4 ar
     7    3   31 1
     8    4    5 ar
     9    4   37 1
    10    5    6 ar
    11    5    7 1
    12    6   38 1
    13    7   12 1
    14    7    8 1
    15    8    9 1
    16    8   39 1
    17    8   40 1
    18    9   10 1
    19    9   41 1
    20    9   42 1
    21   10   11 1
    22   10   13 am
    23   11   12 1
    24   11   43 1
    25   11   44 1
    26   12   45 1
    27   12   46 1
    28   13   14 2
    29   13   15 am
    30   15   30 1
    31   15   16 1
    32   16   21 ar
    33   16   17 ar
    34   17   18 ar
    35   17   29 1
    36   18   19 ar
    37   18   47 1
    38   19   20 ar
    39   19   48 1
    40   20   21 ar
    41   20   22 1
    42   22   27 ar
    43   22   23 ar
    44   23   24 ar
    45   23   49 1
    46   24   25 ar
    47   24   50 1
    48   25   26 ar
    49   25   28 1
    50   26   27 ar
    51   26   51 1
    52   27   52 1
    53   29   30 2
    54   31   32 1
    55   31   33 1
    56   31   34 1
@<TRIPOS>MOLECULE
ZINC01238258
   47    49     0     0     0
SMALL
USER_CHARGES

@<TRIPOS>ATOM
      1 C1         -0.0527    1.4461   -0.5020 C.ar      1 <0>        -0.1213
      2 C2          1.1355    2.1416   -0.3862 C.ar      1 <0>        -0.0814
      3 C3          2.3435    1.4531   -0.2853 C.ar      1 <0>        -0.0507
      4 C4          2.3522    0.0622   -0.3008 C.ar      1 <0>        -0.0474
      5 C5          1.1512   -0.6352   -0.4172 C.ar      1 <0>        -0.1363
      6 C6         -0.0523    0.0660   -0.5180 C.ar      1 <0>        -0.0837
      7 C7          1.1513   -2.1137   -0.4349 C.2       1 <0>         0.5639
      8 O1          2.1998   -2.7225   -0.3479 O.2       1 <0>        -0.5372
      9 N1         -0.0111   -2.7864   -0.5476 N.am      1 <0>        -0.8500
     10 C8          3.6183    2.2029   -0.1621 C.ar      1 <0>        -0.0318
     11 C9          4.8270    1.5155   -0.0669 C.ar      1 <0>        -0.1051
     12 C10         6.0114    2.2150    0.0471 C.ar      1 <0>        -0.0982
     13 C11         6.0029    3.5974    0.0678 C.ar      1 <0>        -0.1120
     14 C12         4.8036    4.2893   -0.0265 C.ar      1 <0>         0.1097
     15 C13         3.6107    3.5951   -0.1470 C.ar      1 <0>        -0.1110
     16 O2          4.7997    5.6485   -0.0053 O.3       1 <0>        -0.3081
     17 C14         4.3007    6.2625    1.0846 C.2       1 <0>         0.6443
     18 O3          3.9713    5.6074    2.0536 O.2       1 <0>        -0.5505
     19 N2          4.1666    7.6034    1.1005 N.am      1 <0>        -0.7020
     20 C15         3.6238    8.2713    2.2861 C.3       1 <0>         0.1619
     21 C16         4.7495    8.5188    3.2923 C.3       1 <0>        -0.1331
     22 C17         4.1826    9.2162    4.5305 C.3       1 <0>        -0.1173
     23 C18         3.5601   10.5530    4.1226 C.3       1 <0>        -0.1239
     24 C19         2.4344   10.3056    3.1164 C.3       1 <0>        -0.1158
     25 C20         3.0013    9.6081    1.8783 C.3       1 <0>        -0.1270
     26 H1         -0.9860    1.9845   -0.5757 H         1 <0>         0.1344
     27 H2          1.1285    3.2216   -0.3743 H         1 <0>         0.1303
     28 H3          3.2858   -0.4751   -0.2232 H         1 <0>         0.1420
     29 H4         -0.9841   -0.4724   -0.6087 H         1 <0>         0.1291
     30 H5         -0.8478   -2.3006   -0.6171 H         1 <0>         0.4014
     31 H6         -0.0110   -3.7563   -0.5593 H         1 <0>         0.4072
     32 H7          4.8369    0.4356   -0.0821 H         1 <0>         0.1353
     33 H8          6.9473    1.6811    0.1208 H         1 <0>         0.1381
     34 H9          6.9321    4.1403    0.1579 H         1 <0>         0.1343
     35 H10         2.6770    4.1323   -0.2246 H         1 <0>         0.1305
     36 H11         4.4295    8.1264    0.3270 H         1 <0>         0.4079
     37 H12         2.8614    7.6395    2.7419 H         1 <0>         0.0931
     38 H13         5.1929    7.5664    3.5829 H         1 <0>         0.0691
     39 H14         5.5118    9.1505    2.8365 H         1 <0>         0.0668
     40 H15         3.4202    8.5845    4.9863 H         1 <0>         0.0658
     41 H16         4.9846    9.3925    5.2473 H         1 <0>         0.0676
     42 H17         3.1562   11.0499    5.0047 H         1 <0>         0.0662
     43 H18         4.3224   11.1848    3.6668 H         1 <0>         0.0640
     44 H19         1.6720    9.6738    3.5722 H         1 <0>         0.0667
     45 H20         1.9909   11.2579    2.8259 H         1 <0>         0.0706
     46 H21         3.7636   10.2399    1.4224 H         1 <0>         0.0718
     47 H22         2.1993    9.4318    1.1614 H         1 <0>         0.0718
@<TRIPOS>BOND
     1    1    6 ar
     2    1    2 ar
     3    1   26 1
     4    2    3 ar
     5    2   27 1
     6    3    4 ar
     7    3   10 1
     8    4    5 ar
     9    4   28 1
    10    5    6 ar
    11    5    7 1
    12    6   29 1
    13    7    8 2
    14    7    9 am
    15    9   30 1
    16    9   31 1
    17   10   15 ar
    18   10   11 ar
    19   11   12 ar
    20   11   32 1
    21   12   13 ar
    22   12   33 1
    23   13   14 ar
    24   13   34 1
    25   14   15 ar
    26   14   16 1
    27   15   35 1
    28   16   17 1
    29   17   18 2
    30   17   19 am
    31   19   20 1
    32   19   36 1
    33   20   25 1
    34   20   21 1
    35   20   37 1
    36   21   22 1
    37   21   38 1
    38   21   39 1
    39   22   23 1
    40   22   40 1
    41   22   41 1
    42   23   24 1
    43   23   42 1
    44   23   43 1
    45   24   25 1
    46   24   44 1
    47   24   45 1
    48   25   46 1
    49   25   47 1
@<TRIPOS>MOLECULE
ZINC01912275
   65    68     0     0     0
SMALL
USER_CHARGES
(2-fluorophenyl) N-[6-(2-methyl-4,5-diphenyl-imidazol-1-yl)hexyl]carbamate
@<TRIPOS>ATOM
      1 C1         -1.8899   -2.0006   -3.0317 C.3       1 <0>        -0.0701
      2 C2         -1.7066   -2.6423   -1.6805 C.2       1 <0>         0.2161
      3 N1         -1.3915   -3.8908   -1.4773 N.2       1 <0>        -0.4747
      4 C3         -1.3162   -4.1266   -0.1539 C.2       1 <0>         0.0614
      5 C4         -1.6001   -2.9384    0.4940 C.2       1 <0>         0.0236
      6 N2         -1.8411   -2.0114   -0.4933 N.pl3     1 <0>        -0.4437
      7 C5         -2.1861   -0.6016   -0.2942 C.3       1 <0>         0.1010
      8 C6         -0.9078    0.2390   -0.2779 C.3       1 <0>        -0.1389
      9 C7         -1.2733    1.7211   -0.1748 C.3       1 <0>        -0.1151
     10 C8          0.0051    2.5616   -0.1585 C.3       1 <0>        -0.1155
     11 C9         -0.3604    4.0438   -0.0554 C.3       1 <0>        -0.1320
     12 C10         0.9180    4.8843   -0.0391 C.3       1 <0>         0.1342
     13 N3          0.5680    6.3035    0.0596 N.am      1 <0>        -0.7043
     14 C11         1.5400    7.2366    0.0904 C.2       1 <0>         0.6415
     15 O1          2.7066    6.9008    0.0364 O.2       1 <0>        -0.5512
     16 O2          1.2184    8.5412    0.1811 O.3       1 <0>        -0.2984
     17 C12         2.2455    9.4226    0.3117 C.ar      1 <0>         0.0665
     18 C13         2.6521    9.8337    1.5720 C.ar      1 <0>        -0.0891
     19 C14         3.6998   10.7251    1.7027 C.ar      1 <0>        -0.1164
     20 C15         4.3362   11.2167    0.5780 C.ar      1 <0>        -0.0819
     21 C16         3.9304   10.8139   -0.6807 C.ar      1 <0>        -0.1431
     22 C17         2.8858    9.9173   -0.8174 C.ar      1 <0>         0.1050
     23 F1          2.4886    9.5237   -2.0472 F         1 <0>        -0.1287
     24 C18        -1.6367   -2.7104    1.9526 C.ar      1 <0>        -0.0159
     25 C19        -2.4461   -3.5056    2.7668 C.ar      1 <0>        -0.0881
     26 C20        -2.4714   -3.2905    4.1291 C.ar      1 <0>        -0.1149
     27 C21        -1.7057   -2.2825    4.6879 C.ar      1 <0>        -0.1123
     28 C22        -0.9059   -1.4871    3.8864 C.ar      1 <0>        -0.1175
     29 C23        -0.8665   -1.6949    2.5234 C.ar      1 <0>        -0.1124
     30 C24        -0.9891   -5.4203    0.4895 C.ar      1 <0>        -0.0022
     31 C25        -0.2491   -5.4471    1.6714 C.ar      1 <0>        -0.1010
     32 C26         0.0483   -6.6549    2.2685 C.ar      1 <0>        -0.1199
     33 C27        -0.3764   -7.8383    1.6913 C.ar      1 <0>        -0.1186
     34 C28        -1.1066   -7.8184    0.5164 C.ar      1 <0>        -0.1216
     35 C29        -1.4148   -6.6166   -0.0873 C.ar      1 <0>        -0.0937
     36 H1         -0.9367   -1.5992   -3.3756 H         1 <0>         0.0819
     37 H2         -2.2480   -2.7457   -3.7421 H         1 <0>         0.0923
     38 H3         -2.6177   -1.1929   -2.9546 H         1 <0>         0.0737
     39 H4         -2.7091   -0.4861    0.6551 H         1 <0>         0.0933
     40 H5         -2.8306   -0.2669   -1.1071 H         1 <0>         0.0964
     41 H6         -0.3474    0.0659   -1.1966 H         1 <0>         0.0739
     42 H7         -0.2971   -0.0451    0.5791 H         1 <0>         0.0740
     43 H8         -1.8839    2.0052   -1.0318 H         1 <0>         0.0693
     44 H9         -1.8336    1.8941    0.7439 H         1 <0>         0.0688
     45 H10         0.6158    2.2775    0.6985 H         1 <0>         0.0689
     46 H11         0.5655    2.3886   -1.0772 H         1 <0>         0.0696
     47 H12        -0.9710    4.3278   -0.9124 H         1 <0>         0.0744
     48 H13        -0.9208    4.2168    0.8633 H         1 <0>         0.0742
     49 H14         1.5286    4.6002    0.8180 H         1 <0>         0.0740
     50 H15         1.4784    4.7113   -0.9578 H         1 <0>         0.0739
     51 H16        -0.3632    6.5715    0.1027 H         1 <0>         0.4097
     52 H17         2.1528    9.4543    2.4513 H         1 <0>         0.1410
     53 H18         4.0189   11.0419    2.6847 H         1 <0>         0.1411
     54 H19         5.1517   11.9170    0.6829 H         1 <0>         0.1418
     55 H20         4.4289   11.1996   -1.5577 H         1 <0>         0.1457
     56 H21        -3.0473   -4.2900    2.3314 H         1 <0>         0.1240
     57 H22        -3.0934   -3.9076    4.7605 H         1 <0>         0.1267
     58 H23        -1.7322   -2.1159    5.7547 H         1 <0>         0.1244
     59 H24        -0.3108   -0.7021    4.3292 H         1 <0>         0.1249
     60 H25        -0.2413   -1.0738    1.8990 H         1 <0>         0.1223
     61 H26         0.0871   -4.5241    2.1204 H         1 <0>         0.1198
     62 H27         0.6178   -6.6768    3.1860 H         1 <0>         0.1222
     63 H28        -0.1373   -8.7815    2.1600 H         1 <0>         0.1213
     64 H29        -1.4357   -8.7455    0.0707 H         1 <0>         0.1232
     65 H30        -1.9849   -6.6023   -1.0045 H         1 <0>         0.1250
@<TRIPOS>BOND
     1    1    2 1
     2    1   36 1
     3    1   37 1
     4    1   38 1
     5    2    6 1
     6    2    3 2
     7    3    4 1
     8    4    5 2
     9    4   30 1
    10    5    6 1
    11    5   24 1
    12    6    7 1
    13    7    8 1
    14    7   39 1
    15    7   40 1
    16    8    9 1
    17    8   41 1
    18    8   42 1
    19    9   10 1
    20    9   43 1
    21    9   44 1
    22   10   11 1
    23   10   45 1
    24   10   46 1
    25   11   12 1
    26   11   47 1
    27   11   48 1
    28   12   13 1
    29   12   49 1
    30   12   50 1
    31   13   14 am
    32   13   51 1
    33   14   15 2
    34   14   16 1
    35   16   17 1
    36   17   22 ar
    37   17   18 ar
    38   18   19 ar
    39   18   52 1
    40   19   20 ar
    41   19   53 1
    42   20   21 ar
    43   20   54 1
    44   21   22 ar
    45   21   55 1
    46   22   23 1
    47   24   29 ar
    48   24   25 ar
    49   25   26 ar
    50   25   56 1
    51   26   27 ar
    52   26   57 1
    53   27   28 ar
    54   27   58 1
    55   28   29 ar
    56   28   59 1
    57   29   60 1
    58   30   35 ar
    59   30   31 ar
    60   31   32 ar
    61   31   61 1
    62   32   33 ar
    63   32   62 1
    64   33   34 ar
    65   33   63 1
    66   34   35 ar
    67   34   64 1
    68   35   65 1
@<TRIPOS>MOLECULE
ZINC01912275
   66    69     0     0     0
SMALL
USER_CHARGES
(2-fluorophenyl) N-[6-(2-methyl-4,5-diphenyl-imidazol-1-yl)hexyl]carbamate
@<TRIPOS>ATOM
      1 C1         -1.8899   -2.0006   -3.0317 C.3       1 <0>        -0.1124
      2 C2         -1.7066   -2.6423   -1.6805 C.cat     1 <0>         0.3120
      3 C3         -1.3162   -4.1266   -0.1539 C.2       1 <0>         0.0962
      4 C4         -1.6001   -2.9384    0.4940 C.2       1 <0>         0.1118
      5 N1         -1.8411   -2.0114   -0.4933 N.pl3     1 <0>        -0.3979
      6 C5         -2.1861   -0.6016   -0.2942 C.3       1 <0>         0.0876
      7 C6         -0.9078    0.2390   -0.2779 C.3       1 <0>        -0.1435
      8 C7         -1.2733    1.7211   -0.1748 C.3       1 <0>        -0.1168
      9 C8          0.0051    2.5616   -0.1585 C.3       1 <0>        -0.1159
     10 C9         -0.3604    4.0438   -0.0554 C.3       1 <0>        -0.1334
     11 C10         0.9180    4.8843   -0.0391 C.3       1 <0>         0.1349
     12 N2          0.5680    6.3035    0.0596 N.am      1 <0>        -0.7068
     13 C11         1.5400    7.2366    0.0904 C.2       1 <0>         0.6420
     14 O1          2.7066    6.9008    0.0364 O.2       1 <0>        -0.5503
     15 O2          1.2184    8.5412    0.1811 O.3       1 <0>        -0.2965
     16 C12         2.2455    9.4226    0.3117 C.ar      1 <0>         0.0635
     17 C13         2.6521    9.8337    1.5720 C.ar      1 <0>        -0.0887
     18 C14         3.6998   10.7251    1.7027 C.ar      1 <0>        -0.1156
     19 C15         4.3362   11.2167    0.5780 C.ar      1 <0>        -0.0797
     20 C16         3.9304   10.8139   -0.6807 C.ar      1 <0>        -0.1424
     21 C17         2.8858    9.9173   -0.8174 C.ar      1 <0>         0.1052
     22 F1          2.4886    9.5237   -2.0472 F         1 <0>        -0.1292
     23 C18        -1.6367   -2.7104    1.9526 C.ar      1 <0>        -0.0677
     24 C19        -2.4461   -3.5056    2.7668 C.ar      1 <0>        -0.0727
     25 C20        -2.4714   -3.2905    4.1291 C.ar      1 <0>        -0.1119
     26 C21        -1.7057   -2.2825    4.6879 C.ar      1 <0>        -0.0837
     27 C22        -0.9059   -1.4871    3.8864 C.ar      1 <0>        -0.1133
     28 C23        -0.8665   -1.6949    2.5234 C.ar      1 <0>        -0.0949
     29 C24        -0.9891   -5.4203    0.4895 C.ar      1 <0>        -0.0632
     30 C25        -0.2491   -5.4471    1.6714 C.ar      1 <0>        -0.0756
     31 C26         0.0483   -6.6549    2.2685 C.ar      1 <0>        -0.1107
     32 C27        -0.3764   -7.8383    1.6913 C.ar      1 <0>        -0.0858
     33 C28        -1.1066   -7.8184    0.5164 C.ar      1 <0>        -0.1115
     34 C29        -1.4148   -6.6166   -0.0873 C.ar      1 <0>        -0.0982
     35 H1         -0.9367   -1.5992   -3.3756 H         1 <0>         0.1216
     36 H2         -2.2480   -2.7457   -3.7421 H         1 <0>         0.1172
     37 H3         -2.6177   -1.1929   -2.9546 H         1 <0>         0.1150
     38 H4         -2.7091   -0.4861    0.6551 H         1 <0>         0.1228
     39 H5         -2.8306   -0.2669   -1.1071 H         1 <0>         0.1215
     40 H6         -0.3474    0.0659   -1.1966 H         1 <0>         0.0804
     41 H7         -0.2971   -0.0451    0.5791 H         1 <0>         0.0823
     42 H8         -1.8839    2.0052   -1.0318 H         1 <0>         0.0751
     43 H9         -1.8336    1.8941    0.7439 H         1 <0>         0.0754
     44 H10         0.6158    2.2775    0.6985 H         1 <0>         0.0710
     45 H11         0.5655    2.3886   -1.0772 H         1 <0>         0.0711
     46 H12        -0.9710    4.3278   -0.9124 H         1 <0>         0.0759
     47 H13        -0.9208    4.2168    0.8633 H         1 <0>         0.0760
     48 H14         1.5286    4.6002    0.8180 H         1 <0>         0.0737
     49 H15         1.4784    4.7113   -0.9578 H         1 <0>         0.0733
     50 H16        -0.3632    6.5715    0.1027 H         1 <0>         0.4101
     51 H17         2.1528    9.4543    2.4513 H         1 <0>         0.1409
     52 H18         4.0189   11.0419    2.6847 H         1 <0>         0.1421
     53 H19         5.1517   11.9170    0.6829 H         1 <0>         0.1432
     54 H20         4.4289   11.1996   -1.5577 H         1 <0>         0.1467
     55 H21        -3.0473   -4.2900    2.3314 H         1 <0>         0.1295
     56 H22        -3.0934   -3.9076    4.7605 H         1 <0>         0.1375
     57 H23        -1.7322   -2.1159    5.7547 H         1 <0>         0.1361
     58 H24        -0.3108   -0.7021    4.3292 H         1 <0>         0.1367
     59 H25        -0.2413   -1.0738    1.8990 H         1 <0>         0.1282
     60 H26         0.0871   -4.5241    2.1204 H         1 <0>         0.1309
     61 H27         0.6178   -6.6768    3.1860 H         1 <0>         0.1372
     62 H28        -0.1373   -8.7815    2.1600 H         1 <0>         0.1362
     63 H29        -1.4357   -8.7455    0.0707 H         1 <0>         0.1368
     64 H30        -1.9849   -6.6023   -1.0045 H         1 <0>         0.1241
     65 N3         -1.3914   -3.8911   -1.4776 N.pl3     1 <0>        -0.4794
     66 H31        -1.2261   -4.5876   -2.2137 H         1 <0>         0.4761
@<TRIPOS>BOND
     1    1    2 1
     2    1   35 1
     3    1   36 1
     4    1   37 1
     5    2    5 1
     6    2   65 2
     7    3    4 2
     8    3   29 1
     9    3   65 1
    10    4    5 1
    11    4   23 1
    12    5    6 1
    13    6    7 1
    14    6   38 1
    15    6   39 1
    16    7    8 1
    17    7   40 1
    18    7   41 1
    19    8    9 1
    20    8   42 1
    21    8   43 1
    22    9   10 1
    23    9   44 1
    24    9   45 1
    25   10   11 1
    26   10   46 1
    27   10   47 1
    28   11   12 1
    29   11   48 1
    30   11   49 1
    31   12   13 am
    32   12   50 1
    33   13   14 2
    34   13   15 1
    35   15   16 1
    36   16   21 ar
    37   16   17 ar
    38   17   18 ar
    39   17   51 1
    40   18   19 ar
    41   18   52 1
    42   19   20 ar
    43   19   53 1
    44   20   21 ar
    45   20   54 1
    46   21   22 1
    47   23   28 ar
    48   23   24 ar
    49   24   25 ar
    50   24   55 1
    51   25   26 ar
    52   25   56 1
    53   26   27 ar
    54   26   57 1
    55   27   28 ar
    56   27   58 1
    57   28   59 1
    58   29   34 ar
    59   29   30 ar
    60   30   31 ar
    61   30   60 1
    62   31   32 ar
    63   31   61 1
    64   32   33 ar
    65   32   62 1
    66   33   34 ar
    67   33   63 1
    68   34   64 1
    69   65   66 1
@<TRIPOS>MOLECULE
ZINC34803705
   48    49     0     0     0
SMALL
USER_CHARGES

@<TRIPOS>ATOM
      1 C1         -0.0187    1.5258    0.0104 C.3       1 <0>        -0.1543
      2 C2          0.0021   -0.0041    0.0020 C.3       1 <0>        -0.1262
      3 C3         -1.4333   -0.5336    0.0129 C.3       1 <0>        -0.1213
      4 C4         -1.4126   -2.0635    0.0045 C.3       1 <0>        -0.1213
      5 C5         -2.8479   -2.5931    0.0153 C.3       1 <0>        -0.1207
      6 C6         -2.8272   -4.1229    0.0069 C.3       1 <0>        -0.1210
      7 C7         -4.2626   -4.6525    0.0178 C.3       1 <0>        -0.1205
      8 C8         -4.2418   -6.1823    0.0094 C.3       1 <0>        -0.1208
      9 C9         -5.6772   -6.7119    0.0202 C.3       1 <0>        -0.1198
     10 C10        -5.6565   -8.2417    0.0118 C.3       1 <0>        -0.1154
     11 C11        -7.0918   -8.7713    0.0227 C.3       1 <0>        -0.1404
     12 C12        -7.0714  -10.2782    0.0144 C.2       1 <0>         0.4494
     13 O1         -6.0135  -10.8699    0.0011 O.2       1 <0>        -0.4056
     14 C13        -8.3374  -11.0323    0.0224 C.2       1 <0>         0.1967
     15 N1         -9.5312  -10.4953    0.0310 N.2       1 <0>        -0.4081
     16 C14       -10.4541  -11.4762    0.0365 C.ar      1 <0>         0.2203
     17 C15        -9.7465  -12.6935    0.0307 C.ar      1 <0>        -0.0344
     18 O2         -8.4367  -12.3760    0.0162 O.3       1 <0>        -0.1793
     19 C16       -10.4527  -13.8908    0.0341 C.ar      1 <0>        -0.0413
     20 C17       -11.8347  -13.8355    0.0433 C.ar      1 <0>        -0.1389
     21 C18       -12.4703  -12.6008    0.0487 C.ar      1 <0>         0.1340
     22 N2        -11.7864  -11.4792    0.0453 N.ar      1 <0>        -0.4302
     23 H1          1.0039    1.9031    0.0027 H         1 <0>         0.0534
     24 H2         -0.5459    1.8868   -0.8726 H         1 <0>         0.0533
     25 H3         -0.5289    1.8773    0.9072 H         1 <0>         0.0533
     26 H4          0.5123   -0.3556   -0.8948 H         1 <0>         0.0602
     27 H5          0.5293   -0.3651    0.8851 H         1 <0>         0.0602
     28 H6         -1.9435   -0.1821    0.9097 H         1 <0>         0.0605
     29 H7         -1.9605   -0.1726   -0.8702 H         1 <0>         0.0605
     30 H8         -0.9024   -2.4150   -0.8923 H         1 <0>         0.0605
     31 H9         -0.8854   -2.4246    0.8875 H         1 <0>         0.0605
     32 H10        -3.3581   -2.2415    0.9121 H         1 <0>         0.0605
     33 H11        -3.3751   -2.2320   -0.8677 H         1 <0>         0.0605
     34 H12        -2.3170   -4.4744   -0.8899 H         1 <0>         0.0606
     35 H13        -2.3000   -4.4840    0.8900 H         1 <0>         0.0606
     36 H14        -4.7728   -4.3010    0.9146 H         1 <0>         0.0613
     37 H15        -4.7898   -4.2914   -0.8653 H         1 <0>         0.0613
     38 H16        -3.7316   -6.5338   -0.8874 H         1 <0>         0.0625
     39 H17        -3.7146   -6.5434    0.8924 H         1 <0>         0.0625
     40 H18        -6.1874   -6.3604    0.9170 H         1 <0>         0.0660
     41 H19        -6.2044   -6.3508   -0.8628 H         1 <0>         0.0660
     42 H20        -5.1463   -8.5933   -0.8850 H         1 <0>         0.0729
     43 H21        -5.1293   -8.6028    0.8949 H         1 <0>         0.0729
     44 H22        -7.6020   -8.4198    0.9195 H         1 <0>         0.1162
     45 H23        -7.6190   -8.4102   -0.8604 H         1 <0>         0.1162
     46 H24        -9.9359  -14.8392    0.0295 H         1 <0>         0.1539
     47 H25       -12.4154  -14.7461    0.0458 H         1 <0>         0.1622
     48 H26       -13.5496  -12.5618    0.0554 H         1 <0>         0.1804
@<TRIPOS>BOND
     1    1    2 1
     2    1   23 1
     3    1   24 1
     4    1   25 1
     5    2    3 1
     6    2   26 1
     7    2   27 1
     8    3    4 1
     9    3   28 1
    10    3   29 1
    11    4    5 1
    12    4   30 1
    13    4   31 1
    14    5    6 1
    15    5   32 1
    16    5   33 1
    17    6    7 1
    18    6   34 1
    19    6   35 1
    20    7    8 1
    21    7   36 1
    22    7   37 1
    23    8    9 1
    24    8   38 1
    25    8   39 1
    26    9   10 1
    27    9   40 1
    28    9   41 1
    29   10   11 1
    30   10   42 1
    31   10   43 1
    32   11   12 1
    33   11   44 1
    34   11   45 1
    35   12   13 2
    36   12   14 1
    37   14   18 1
    38   14   15 2
    39   15   16 1
    40   16   22 ar
    41   16   17 ar
    42   17   18 1
    43   17   19 ar
    44   19   20 ar
    45   19   46 1
    46   20   21 ar
    47   20   47 1
    48   21   22 ar
    49   21   48 1
@<TRIPOS>MOLECULE
ZINC04654970
   65    64     0     0     0
SMALL
USER_CHARGES
[(2R)-2,3-dihydroxypropyl] (5Z,8Z,11Z,14Z)-icosa-5,8,11,14-tetraenoate
@<TRIPOS>ATOM
      1 C1         10.1655    6.4690   16.2065 C.3       1 <0>        -0.1543
      2 C2          9.8997    6.7614   14.7285 C.3       1 <0>        -0.1259
      3 C3          8.6156    7.5824   14.5939 C.3       1 <0>        -0.1214
      4 C4          8.3498    7.8748   13.1159 C.3       1 <0>        -0.1145
      5 C5          7.0657    8.6958   12.9813 C.3       1 <0>        -0.1026
      6 C6          6.8039    8.9838   11.5255 C.2       1 <0>        -0.1579
      7 C7          5.6380    8.6983   11.0007 C.2       1 <0>        -0.1535
      8 C8          4.5071    8.2366   11.8832 C.3       1 <0>        -0.0836
      9 C9          3.2985    9.1051   11.6466 C.2       1 <0>        -0.1510
     10 C10         2.1462    8.5572   11.3499 C.2       1 <0>        -0.1524
     11 C11         1.9840    7.0604   11.4171 C.3       1 <0>        -0.0838
     12 C12         0.7985    6.7221   12.2838 C.2       1 <0>        -0.1511
     13 C13        -0.1501    5.9455   11.8221 C.2       1 <0>        -0.1519
     14 C14         0.0193    5.2586   10.4914 C.3       1 <0>        -0.0843
     15 C15        -0.2343    3.7819   10.6525 C.2       1 <0>        -0.1496
     16 C16        -1.1096    3.1802    9.8857 C.2       1 <0>        -0.1587
     17 C17        -1.7418    3.9232    8.7370 C.3       1 <0>        -0.1013
     18 C18        -1.5794    3.1089    7.4519 C.3       1 <0>        -0.1036
     19 C19        -2.2212    3.8632    6.2857 C.3       1 <0>        -0.1142
     20 C20        -2.0612    3.0612    5.0199 C.2       1 <0>         0.4606
     21 O1         -1.4923    1.9956    5.0477 O.2       1 <0>        -0.5078
     22 O2         -2.5508    3.5306    3.8616 O.3       1 <0>        -0.3462
     23 C21        -2.3603    2.7048    2.6825 C.3       1 <0>         0.0369
     24 C22        -2.9803    3.3989    1.4681 C.3       1 <0>         0.1088
     25 H1         -2.5621    4.4007    1.3694 H         1 <0>         0.1180
     26 C23        -2.6717    2.5908    0.2062 C.3       1 <0>         0.0483
     27 O3         -3.1494    3.2972   -0.9405 O.3       1 <0>        -0.5604
     28 O4         -4.3958    3.4887    1.6420 O.3       1 <0>        -0.5422
     29 H2         11.0803    5.8841   16.3024 H         1 <0>         0.0535
     30 H3         10.2763    7.4082   16.7485 H         1 <0>         0.0534
     31 H4          9.3294    5.9063   16.6217 H         1 <0>         0.0534
     32 H5          9.7889    5.8222   14.1865 H         1 <0>         0.0605
     33 H6         10.7359    7.3241   14.3133 H         1 <0>         0.0606
     34 H7          8.7264    8.5216   15.1359 H         1 <0>         0.0613
     35 H8          7.7795    7.0197   15.0091 H         1 <0>         0.0610
     36 H9          8.2390    6.9357   12.5739 H         1 <0>         0.0619
     37 H10         9.1859    8.4375   12.7007 H         1 <0>         0.0617
     38 H11         7.1765    9.6350   13.5233 H         1 <0>         0.0689
     39 H12         6.2296    8.1331   13.3965 H         1 <0>         0.0756
     40 H13         7.5773    9.4257   10.9148 H         1 <0>         0.1089
     41 H14         5.4874    8.7938    9.9355 H         1 <0>         0.1085
     42 H15         4.8084    8.3101   12.9282 H         1 <0>         0.0839
     43 H16         4.2621    7.2009   11.6478 H         1 <0>         0.0827
     44 H17         3.3824   10.1792   11.7217 H         1 <0>         0.1098
     45 H18         1.3124    9.1781   11.0572 H         1 <0>         0.1101
     46 H19         2.8838    6.6162   11.8427 H         1 <0>         0.0833
     47 H20         1.8242    6.6669   10.4133 H         1 <0>         0.0833
     48 H21         0.7309    7.1198   13.2856 H         1 <0>         0.1100
     49 H22        -1.0535    5.7974   12.3950 H         1 <0>         0.1101
     50 H23         1.0351    5.4153   10.1284 H         1 <0>         0.0835
     51 H24        -0.6904    5.6733    9.7756 H         1 <0>         0.0842
     52 H25         0.3055    3.2196   11.4000 H         1 <0>         0.1099
     53 H26        -1.3783    2.1518   10.0767 H         1 <0>         0.1109
     54 H27        -1.2544    4.8909    8.6180 H         1 <0>         0.0791
     55 H28        -2.8020    4.0730    8.9407 H         1 <0>         0.0737
     56 H29        -2.0668    2.1412    7.5709 H         1 <0>         0.0733
     57 H30        -0.5191    2.9591    7.2482 H         1 <0>         0.0734
     58 H31        -1.7338    4.8309    6.1667 H         1 <0>         0.1076
     59 H32        -3.2814    4.0130    6.4894 H         1 <0>         0.1086
     60 H33        -2.8417    1.7387    2.8339 H         1 <0>         0.0770
     61 H34        -1.2941    2.5566    2.5112 H         1 <0>         0.0827
     62 H35        -3.1646    1.6205    0.2665 H         1 <0>         0.0543
     63 H36        -1.5947    2.4465    0.1214 H         1 <0>         0.0600
     64 H37        -2.9876    2.8424   -1.7783 H         1 <0>         0.3849
     65 H38        -4.8355    2.6327    1.7368 H         1 <0>         0.3741
@<TRIPOS>BOND
     1    1    2 1
     2    1   29 1
     3    1   30 1
     4    1   31 1
     5    2    3 1
     6    2   32 1
     7    2   33 1
     8    3    4 1
     9    3   34 1
    10    3   35 1
    11    4    5 1
    12    4   36 1
    13    4   37 1
    14    5    6 1
    15    5   38 1
    16    5   39 1
    17    6    7 2
    18    6   40 1
    19    7    8 1
    20    7   41 1
    21    8    9 1
    22    8   42 1
    23    8   43 1
    24    9   10 2
    25    9   44 1
    26   10   11 1
    27   10   45 1
    28   11   12 1
    29   11   46 1
    30   11   47 1
    31   12   13 2
    32   12   48 1
    33   13   14 1
    34   13   49 1
    35   14   15 1
    36   14   50 1
    37   14   51 1
    38   15   16 2
    39   15   52 1
    40   16   17 1
    41   16   53 1
    42   17   18 1
    43   17   54 1
    44   17   55 1
    45   18   19 1
    46   18   56 1
    47   18   57 1
    48   19   20 1
    49   19   58 1
    50   19   59 1
    51   20   21 2
    52   20   22 1
    53   22   23 1
    54   23   24 1
    55   23   60 1
    56   23   61 1
    57   24   25 1
    58   24   26 1
    59   24   28 1
    60   26   27 1
    61   26   62 1
    62   26   63 1
    63   27   64 1
    64   28   65 1
@<TRIPOS>MOLECULE
ZINC03813524
   56    55     0     0     0
SMALL
USER_CHARGES

@<TRIPOS>ATOM
      1 C1          1.4699    3.0103    1.6795 C.3       1 <0>        -0.1543
      2 C2          1.1470    1.5224    1.8304 C.3       1 <0>        -0.1260
      3 C3          2.2011    0.8593    2.7193 C.3       1 <0>        -0.1214
      4 C4          1.8782   -0.6286    2.8702 C.3       1 <0>        -0.1145
      5 C5          2.9323   -1.2916    3.7591 C.3       1 <0>        -0.1026
      6 C6          2.6142   -2.7572    3.9077 C.2       1 <0>        -0.1576
      7 C7          3.5316   -3.6560    3.6493 C.2       1 <0>        -0.1540
      8 C8          4.9477   -3.2268    3.3638 C.3       1 <0>        -0.0836
      9 C9          5.8898   -3.9597    4.2837 C.2       1 <0>        -0.1502
     10 C10         6.9144   -4.6095    3.7897 C.2       1 <0>        -0.1530
     11 C11         7.2468   -4.4906    2.3247 C.3       1 <0>        -0.0838
     12 C12         8.6877   -4.0777    2.1683 C.2       1 <0>        -0.1500
     13 C13         9.4920   -4.7809    1.4103 C.2       1 <0>        -0.1531
     14 C14         8.9417   -5.8950    0.5577 C.3       1 <0>        -0.0844
     15 C15         9.3779   -5.6965   -0.8711 C.2       1 <0>        -0.1473
     16 C16         9.9891   -6.6633   -1.5096 C.2       1 <0>        -0.1612
     17 C17        10.1105   -8.0256   -0.8767 C.3       1 <0>        -0.1010
     18 C18         9.5949   -9.0878   -1.8497 C.3       1 <0>        -0.1078
     19 C19         9.7182  -10.4708   -1.2070 C.3       1 <0>        -0.1636
     20 C20         9.2103  -11.5171   -2.1654 C.2       1 <0>         0.3287
     21 O1          8.7928  -11.1903   -3.2504 O.2       1 <0>        -0.3730
     22 C21         9.2234  -12.9712   -1.7697 C.3       1 <0>         0.4166
     23 F1          8.7076  -13.7438   -2.8157 F         1 <0>        -0.1646
     24 F2         10.5372  -13.3692   -1.4999 F         1 <0>        -0.1663
     25 F3          8.4377  -13.1504   -0.6262 F         1 <0>        -0.1663
     26 H1          2.4534    3.1242    1.2236 H         1 <0>         0.0534
     27 H2          0.7189    3.4826    1.0462 H         1 <0>         0.0536
     28 H3          1.4674    3.4840    2.6612 H         1 <0>         0.0534
     29 H4          0.1635    1.4084    2.2863 H         1 <0>         0.0606
     30 H5          1.1495    1.0487    0.8487 H         1 <0>         0.0605
     31 H6          3.1846    0.9733    2.2634 H         1 <0>         0.0610
     32 H7          2.1986    1.3330    3.7010 H         1 <0>         0.0613
     33 H8          0.8947   -0.7425    3.3261 H         1 <0>         0.0617
     34 H9          1.8807   -1.1023    1.8885 H         1 <0>         0.0620
     35 H10         3.9158   -1.1777    3.3032 H         1 <0>         0.0755
     36 H11         2.9298   -0.8179    4.7408 H         1 <0>         0.0689
     37 H12         1.6300   -3.0664    4.2272 H         1 <0>         0.1090
     38 H13         3.2730   -4.7045    3.6409 H         1 <0>         0.1086
     39 H14         5.1962   -3.4599    2.3284 H         1 <0>         0.0827
     40 H15         5.0419   -2.1533    3.5273 H         1 <0>         0.0842
     41 H16         5.7203   -3.9492    5.3503 H         1 <0>         0.1099
     42 H17         7.5209   -5.2304    4.4324 H         1 <0>         0.1100
     43 H18         7.0897   -5.4528    1.8372 H         1 <0>         0.0832
     44 H19         6.6022   -3.7411    1.8655 H         1 <0>         0.0836
     45 H20         9.0572   -3.2020    2.6812 H         1 <0>         0.1101
     46 H21        10.5496   -4.5623    1.3965 H         1 <0>         0.1102
     47 H22         9.3168   -6.8511    0.9226 H         1 <0>         0.0838
     48 H23         7.8529   -5.8882    0.6094 H         1 <0>         0.0839
     49 H24         9.1867   -4.7572   -1.3685 H         1 <0>         0.1103
     50 H25        10.4060   -6.4842   -2.4897 H         1 <0>         0.1113
     51 H26        11.1560   -8.2251   -0.6416 H         1 <0>         0.0745
     52 H27         9.5202   -8.0546    0.0392 H         1 <0>         0.0801
     53 H28         8.5494   -8.8883   -2.0848 H         1 <0>         0.0750
     54 H29        10.1852   -9.0588   -2.7655 H         1 <0>         0.0748
     55 H30        10.7637  -10.6704   -0.9719 H         1 <0>         0.1190
     56 H31         9.1279  -10.4999   -0.2912 H         1 <0>         0.1184
@<TRIPOS>BOND
     1    1    2 1
     2    1   26 1
     3    1   27 1
     4    1   28 1
     5    2    3 1
     6    2   29 1
     7    2   30 1
     8    3    4 1
     9    3   31 1
    10    3   32 1
    11    4    5 1
    12    4   33 1
    13    4   34 1
    14    5    6 1
    15    5   35 1
    16    5   36 1
    17    6    7 2
    18    6   37 1
    19    7    8 1
    20    7   38 1
    21    8    9 1
    22    8   39 1
    23    8   40 1
    24    9   10 2
    25    9   41 1
    26   10   11 1
    27   10   42 1
    28   11   12 1
    29   11   43 1
    30   11   44 1
    31   12   13 2
    32   12   45 1
    33   13   14 1
    34   13   46 1
    35   14   15 1
    36   14   47 1
    37   14   48 1
    38   15   16 2
    39   15   49 1
    40   16   17 1
    41   16   50 1
    42   17   18 1
    43   17   51 1
    44   17   52 1
    45   18   19 1
    46   18   53 1
    47   18   54 1
    48   19   20 1
    49   19   55 1
    50   19   56 1
    51   20   21 2
    52   20   22 1
    53   22   23 1
    54   22   24 1
    55   22   25 1
@<TRIPOS>MOLECULE
ZINC08036050
   60    59     0     0     0
SMALL
USER_CHARGES
N-isopropylhexadecanamide
@<TRIPOS>ATOM
      1 C1         19.9363   -1.3317   -6.6570 C.3       1 <0>        -0.1543
      2 C2         18.5009   -1.8613   -6.6461 C.3       1 <0>        -0.1262
      3 C3         17.6214   -0.9337   -5.8053 C.3       1 <0>        -0.1212
      4 C4         16.1861   -1.4633   -5.7945 C.3       1 <0>        -0.1212
      5 C5         15.3066   -0.5357   -4.9536 C.3       1 <0>        -0.1206
      6 C6         13.8712   -1.0653   -4.9428 C.3       1 <0>        -0.1208
      7 C7         12.9917   -0.1377   -4.1020 C.3       1 <0>        -0.1204
      8 C8         11.5563   -0.6673   -4.0911 C.3       1 <0>        -0.1209
      9 C9         10.6768    0.2603   -3.2503 C.3       1 <0>        -0.1203
     10 C10         9.2414   -0.2693   -3.2394 C.3       1 <0>        -0.1211
     11 C11         8.3619    0.6583   -2.3986 C.3       1 <0>        -0.1199
     12 C12         6.9266    0.1288   -2.3878 C.3       1 <0>        -0.1206
     13 C13         6.0471    1.0564   -1.5470 C.3       1 <0>        -0.1200
     14 C14         4.6117    0.5268   -1.5361 C.3       1 <0>        -0.1049
     15 C15         3.7322    1.4544   -0.6953 C.3       1 <0>        -0.1415
     16 C16         2.3184    0.9327   -0.6846 C.2       1 <0>         0.5111
     17 O1          2.0415   -0.0811   -1.2899 O.2       1 <0>        -0.5389
     18 N1          1.3617    1.5929   -0.0024 N.am      1 <0>        -0.7310
     19 C17        -0.0127    1.0858    0.0080 C.3       1 <0>         0.1339
     20 C18        -0.7527    1.5927   -1.2315 C.3       1 <0>        -0.1642
     21 C19        -0.7288    1.5792    1.2668 C.3       1 <0>        -0.1613
     22 H1         19.9507   -0.3298   -7.0861 H         1 <0>         0.0533
     23 H2         20.3180   -1.2955   -5.6366 H         1 <0>         0.0533
     24 H3         20.5629   -1.9926   -7.2560 H         1 <0>         0.0534
     25 H4         18.4865   -2.8632   -6.2170 H         1 <0>         0.0603
     26 H5         18.1193   -1.8975   -7.6665 H         1 <0>         0.0603
     27 H6         17.6358    0.0682   -6.2344 H         1 <0>         0.0605
     28 H7         18.0031   -0.8975   -4.7850 H         1 <0>         0.0605
     29 H8         16.1717   -2.4652   -5.3654 H         1 <0>         0.0605
     30 H9         15.8044   -1.4995   -6.8148 H         1 <0>         0.0605
     31 H10        15.3210    0.4662   -5.3827 H         1 <0>         0.0603
     32 H11        15.6882   -0.4995   -3.9333 H         1 <0>         0.0603
     33 H12        13.8568   -2.0672   -4.5137 H         1 <0>         0.0604
     34 H13        13.4896   -1.1015   -5.9631 H         1 <0>         0.0604
     35 H14        13.0061    0.8642   -4.5311 H         1 <0>         0.0602
     36 H15        13.3733   -0.1015   -3.0816 H         1 <0>         0.0602
     37 H16        11.5419   -1.6692   -3.6620 H         1 <0>         0.0604
     38 H17        11.1747   -0.7035   -5.1115 H         1 <0>         0.0604
     39 H18        10.6912    1.2622   -3.6794 H         1 <0>         0.0602
     40 H19        11.0585    0.2966   -2.2299 H         1 <0>         0.0602
     41 H20         9.2270   -1.2711   -2.8103 H         1 <0>         0.0607
     42 H21         8.8598   -0.3055   -4.2598 H         1 <0>         0.0607
     43 H22         8.3763    1.6602   -2.8277 H         1 <0>         0.0604
     44 H23         8.7436    0.6946   -1.3783 H         1 <0>         0.0604
     45 H24         6.9122   -0.8731   -1.9587 H         1 <0>         0.0620
     46 H25         6.5449    0.0925   -3.4081 H         1 <0>         0.0620
     47 H26         6.0615    2.0582   -1.9760 H         1 <0>         0.0617
     48 H27         6.4287    1.0926   -0.5266 H         1 <0>         0.0618
     49 H28         4.5973   -0.4751   -1.1070 H         1 <0>         0.0693
     50 H29         4.2301    0.4905   -2.5565 H         1 <0>         0.0692
     51 H30         3.7466    2.4563   -1.1244 H         1 <0>         0.0927
     52 H31         4.1138    1.4906    0.3251 H         1 <0>         0.0927
     53 H32         1.5832    2.4038    0.4817 H         1 <0>         0.3997
     54 H33         0.0021   -0.0041    0.0020 H         1 <0>         0.0873
     55 H34        -0.7675    2.6825   -1.2255 H         1 <0>         0.0563
     56 H35        -0.2425    1.2411   -2.1283 H         1 <0>         0.0599
     57 H36        -1.7753    1.2154   -1.2238 H         1 <0>         0.0661
     58 H37        -0.7436    2.6691    1.2728 H         1 <0>         0.0610
     59 H38        -1.7514    1.2020    1.2746 H         1 <0>         0.0733
     60 H39        -0.2017    1.2182    2.1499 H         1 <0>         0.0615
@<TRIPOS>BOND
     1    1    2 1
     2    1   22 1
     3    1   23 1
     4    1   24 1
     5    2    3 1
     6    2   25 1
     7    2   26 1
     8    3    4 1
     9    3   27 1
    10    3   28 1
    11    4    5 1
    12    4   29 1
    13    4   30 1
    14    5    6 1
    15    5   31 1
    16    5   32 1
    17    6    7 1
    18    6   33 1
    19    6   34 1
    20    7    8 1
    21    7   35 1
    22    7   36 1
    23    8    9 1
    24    8   37 1
    25    8   38 1
    26    9   10 1
    27    9   39 1
    28    9   40 1
    29   10   11 1
    30   10   41 1
    31   10   42 1
    32   11   12 1
    33   11   43 1
    34   11   44 1
    35   12   13 1
    36   12   45 1
    37   12   46 1
    38   13   14 1
    39   13   47 1
    40   13   48 1
    41   14   15 1
    42   14   49 1
    43   14   50 1
    44   15   16 1
    45   15   51 1
    46   15   52 1
    47   16   17 2
    48   16   18 am
    49   18   19 1
    50   18   53 1
    51   19   20 1
    52   19   21 1
    53   19   54 1
    54   20   55 1
    55   20   56 1
    56   20   57 1
    57   21   58 1
    58   21   59 1
    59   21   60 1
@<TRIPOS>MOLECULE
ZINC34803408
   64    65     0     0     0
SMALL
USER_CHARGES

@<TRIPOS>ATOM
      1 C1         -1.1397    1.2836   -0.4782 C.3       1 <0>        -0.1543
      2 C2         -0.8688   -0.2185   -0.3713 C.3       1 <0>        -0.1261
      3 C3         -0.1322   -0.6943   -1.6251 C.3       1 <0>        -0.1214
      4 C4          0.1388   -2.1963   -1.5181 C.3       1 <0>        -0.1211
      5 C5          0.8754   -2.6722   -2.7719 C.3       1 <0>        -0.1206
      6 C6          1.1463   -4.1742   -2.6650 C.3       1 <0>        -0.1205
      7 C7          1.8829   -4.6501   -3.9187 C.3       1 <0>        -0.1139
      8 C8          2.1539   -6.1521   -3.8118 C.3       1 <0>        -0.1017
      9 C9          2.8794   -6.6208   -5.0467 C.2       1 <0>        -0.1598
     10 C10         3.9944   -7.2990   -4.9336 C.2       1 <0>        -0.1601
     11 C11         4.4631   -7.7574   -3.5766 C.3       1 <0>        -0.1020
     12 C12         4.7180   -9.2657   -3.6078 C.3       1 <0>        -0.1140
     13 C13         5.1939   -9.7310   -2.2301 C.3       1 <0>        -0.1205
     14 C14         5.4488  -11.2393   -2.2612 C.3       1 <0>        -0.1207
     15 C15         5.9247  -11.7047   -0.8836 C.3       1 <0>        -0.1197
     16 C16         6.1795  -13.2130   -0.9147 C.3       1 <0>        -0.1154
     17 C17         6.6554  -13.6783    0.4629 C.3       1 <0>        -0.1404
     18 C18         6.9065  -15.1640    0.4323 C.2       1 <0>         0.4493
     19 O1          6.7229  -15.7887   -0.5903 O.2       1 <0>        -0.4056
     20 C19         7.3750  -15.8572    1.6452 C.2       1 <0>         0.1967
     21 N1          7.5990  -15.2821    2.7996 N.2       1 <0>        -0.4080
     22 C20         8.0159  -16.2120    3.6802 C.ar      1 <0>         0.2203
     23 C21         8.0401  -17.4381    2.9883 C.ar      1 <0>        -0.0344
     24 O2          7.6305  -17.1775    1.7310 O.3       1 <0>        -0.1794
     25 C22         8.4367  -18.5896    3.6585 C.ar      1 <0>        -0.0413
     26 C23         8.7945  -18.4815    4.9901 C.ar      1 <0>        -0.1389
     27 C24         8.7481  -17.2410    5.6128 C.ar      1 <0>         0.1340
     28 N2          8.3707  -16.1632    4.9635 N.ar      1 <0>        -0.4302
     29 H1         -0.1940    1.8178   -0.5688 H         1 <0>         0.0533
     30 H2         -1.7538    1.4803   -1.3570 H         1 <0>         0.0532
     31 H3         -1.6645    1.6226    0.4150 H         1 <0>         0.0534
     32 H4         -0.2547   -0.4152    0.5075 H         1 <0>         0.0603
     33 H5         -1.8145   -0.7527   -0.2808 H         1 <0>         0.0602
     34 H6         -0.7462   -0.4976   -2.5039 H         1 <0>         0.0605
     35 H7          0.8136   -0.1601   -1.7156 H         1 <0>         0.0606
     36 H8          0.7528   -2.3931   -0.6393 H         1 <0>         0.0606
     37 H9         -0.8070   -2.7306   -1.4276 H         1 <0>         0.0606
     38 H10         0.2613   -2.4754   -3.6507 H         1 <0>         0.0606
     39 H11         1.8211   -2.1379   -2.8625 H         1 <0>         0.0607
     40 H12         1.7604   -4.3710   -1.7862 H         1 <0>         0.0609
     41 H13         0.2006   -4.7085   -2.5744 H         1 <0>         0.0610
     42 H14         1.2689   -4.4533   -4.7976 H         1 <0>         0.0611
     43 H15         2.8287   -4.1158   -4.0093 H         1 <0>         0.0615
     44 H16         2.7679   -6.3489   -2.9330 H         1 <0>         0.0760
     45 H17         1.2081   -6.6864   -3.7213 H         1 <0>         0.0678
     46 H18         2.4800   -6.3976   -6.0250 H         1 <0>         0.1070
     47 H19         4.5778   -7.5297   -5.8127 H         1 <0>         0.1072
     48 H20         5.3856   -7.2383   -3.3164 H         1 <0>         0.0678
     49 H21         3.6981   -7.5335   -2.8332 H         1 <0>         0.0759
     50 H22         3.7956   -9.7848   -3.8680 H         1 <0>         0.0618
     51 H23         5.4831   -9.4896   -4.3512 H         1 <0>         0.0614
     52 H24         6.1164   -9.2120   -1.9699 H         1 <0>         0.0620
     53 H25         4.4289   -9.5071   -1.4867 H         1 <0>         0.0617
     54 H26         4.5263  -11.7584   -2.5214 H         1 <0>         0.0628
     55 H27         6.2138  -11.4633   -3.0047 H         1 <0>         0.0628
     56 H28         6.8471  -11.1856   -0.6234 H         1 <0>         0.0661
     57 H29         5.1596  -11.4808   -0.1402 H         1 <0>         0.0661
     58 H30         5.2571  -13.7321   -1.1749 H         1 <0>         0.0729
     59 H31         6.9446  -13.4369   -1.6582 H         1 <0>         0.0729
     60 H32         7.5779  -13.1593    0.7231 H         1 <0>         0.1162
     61 H33         5.8904  -13.4544    1.2063 H         1 <0>         0.1162
     62 H34         8.4643  -19.5435    3.1528 H         1 <0>         0.1539
     63 H35         9.1074  -19.3556    5.5419 H         1 <0>         0.1622
     64 H36         9.0280  -17.1608    6.6528 H         1 <0>         0.1804
@<TRIPOS>BOND
     1    1    2 1
     2    1   29 1
     3    1   30 1
     4    1   31 1
     5    2    3 1
     6    2   32 1
     7    2   33 1
     8    3    4 1
     9    3   34 1
    10    3   35 1
    11    4    5 1
    12    4   36 1
    13    4   37 1
    14    5    6 1
    15    5   38 1
    16    5   39 1
    17    6    7 1
    18    6   40 1
    19    6   41 1
    20    7    8 1
    21    7   42 1
    22    7   43 1
    23    8    9 1
    24    8   44 1
    25    8   45 1
    26    9   10 2
    27    9   46 1
    28   10   11 1
    29   10   47 1
    30   11   12 1
    31   11   48 1
    32   11   49 1
    33   12   13 1
    34   12   50 1
    35   12   51 1
    36   13   14 1
    37   13   52 1
    38   13   53 1
    39   14   15 1
    40   14   54 1
    41   14   55 1
    42   15   16 1
    43   15   56 1
    44   15   57 1
    45   16   17 1
    46   16   58 1
    47   16   59 1
    48   17   18 1
    49   17   60 1
    50   17   61 1
    51   18   19 2
    52   18   20 1
    53   20   24 1
    54   20   21 2
    55   21   22 1
    56   22   28 ar
    57   22   23 ar
    58   23   24 1
    59   23   25 ar
    60   25   26 ar
    61   25   62 1
    62   26   27 ar
    63   26   63 1
    64   27   28 ar
    65   27   64 1
@<TRIPOS>MOLECULE
ZINC13611905
   43    45     0     0     0
SMALL
USER_CHARGES
1-oxazolo[4,5-b]pyridin-2-yl-7-phenyl-heptan-1-one
@<TRIPOS>ATOM
      1 C1         12.2828    7.8174   -0.0769 C.ar      1 <0>        -0.1263
      2 C2         11.9640    7.2036    1.1200 C.ar      1 <0>        -0.1182
      3 C3         11.3017    5.9903    1.1197 C.ar      1 <0>        -0.1190
      4 C4         10.9584    5.3905   -0.0775 C.ar      1 <0>        -0.0817
      5 C5         11.2822    6.0015   -1.2745 C.ar      1 <0>        -0.1191
      6 C6         11.9399    7.2174   -1.2742 C.ar      1 <0>        -0.1182
      7 C7         10.2367    4.0676   -0.0778 C.3       1 <0>        -0.0826
      8 C8          8.7262    4.3106   -0.0610 C.3       1 <0>        -0.1134
      9 C9          7.9935    2.9675   -0.0613 C.3       1 <0>        -0.1205
     10 C10         6.4830    3.2106   -0.0445 C.3       1 <0>        -0.1201
     11 C11         5.7503    1.8674   -0.0448 C.3       1 <0>        -0.1169
     12 C12         4.2398    2.1105   -0.0280 C.3       1 <0>        -0.1294
     13 C13         3.5181    0.7875   -0.0283 C.2       1 <0>         0.4486
     14 O1          4.1494   -0.2473   -0.0407 O.2       1 <0>        -0.4044
     15 C14         2.0450    0.7518   -0.0134 C.2       1 <0>         0.1962
     16 N1          1.2685    1.8055   -0.0004 N.2       1 <0>        -0.4079
     17 C15        -0.0170    1.4038    0.0098 C.ar      1 <0>         0.2203
     18 C16         0.0021   -0.0041    0.0020 C.ar      1 <0>        -0.0341
     19 O2          1.2990   -0.3703   -0.0123 O.3       1 <0>        -0.1790
     20 C17        -1.2008   -0.7007    0.0098 C.ar      1 <0>        -0.0413
     21 C18        -2.3778    0.0258    0.0249 C.ar      1 <0>        -0.1387
     22 C19        -2.3256    1.4135    0.0319 C.ar      1 <0>         0.1341
     23 N2         -1.1792    2.0550    0.0292 N.ar      1 <0>        -0.4301
     24 H1         12.8000    8.7655   -0.0767 H         1 <0>         0.1207
     25 H2         12.2322    7.6723    2.0553 H         1 <0>         0.1212
     26 H3         11.0526    5.5108    2.0548 H         1 <0>         0.1205
     27 H4         11.0179    5.5308   -2.2099 H         1 <0>         0.1205
     28 H5         12.1893    7.6967   -2.2093 H         1 <0>         0.1212
     29 H6         10.5229    3.4974    0.8060 H         1 <0>         0.0720
     30 H7         10.5047    3.5077   -0.9739 H         1 <0>         0.0720
     31 H8          8.4401    4.8808   -0.9448 H         1 <0>         0.0638
     32 H9          8.4583    4.8705    0.8350 H         1 <0>         0.0638
     33 H10         8.2797    2.3973    0.8225 H         1 <0>         0.0643
     34 H11         8.2615    2.4077   -0.9574 H         1 <0>         0.0641
     35 H12         6.1969    3.7807   -0.9283 H         1 <0>         0.0665
     36 H13         6.2151    3.7704    0.8516 H         1 <0>         0.0668
     37 H14         6.0365    1.2972    0.8390 H         1 <0>         0.0740
     38 H15         6.0183    1.3076   -0.9408 H         1 <0>         0.0736
     39 H16         3.9774    2.6336   -0.8388 H         1 <0>         0.1033
     40 H17         3.9719    2.6703    0.8681 H         1 <0>         0.1164
     41 H18        -1.2161   -1.7805    0.0045 H         1 <0>         0.1540
     42 H19        -3.3306   -0.4826    0.0309 H         1 <0>         0.1623
     43 H20        -3.2467    1.9771    0.0437 H         1 <0>         0.1805
@<TRIPOS>BOND
     1    1    6 ar
     2    1    2 ar
     3    1   24 1
     4    2    3 ar
     5    2   25 1
     6    3    4 ar
     7    3   26 1
     8    4    5 ar
     9    4    7 1
    10    5    6 ar
    11    5   27 1
    12    6   28 1
    13    7    8 1
    14    7   29 1
    15    7   30 1
    16    8    9 1
    17    8   31 1
    18    8   32 1
    19    9   10 1
    20    9   33 1
    21    9   34 1
    22   10   11 1
    23   10   35 1
    24   10   36 1
    25   11   12 1
    26   11   37 1
    27   11   38 1
    28   12   13 1
    29   12   39 1
    30   12   40 1
    31   13   14 2
    32   13   15 1
    33   15   19 1
    34   15   16 2
    35   16   17 1
    36   17   23 ar
    37   17   18 ar
    38   18   19 1
    39   18   20 ar
    40   20   21 ar
    41   20   41 1
    42   21   22 ar
    43   21   42 1
    44   22   23 ar
    45   22   43 1
@<TRIPOS>MOLECULE
ZINC34803437
   56    55     0     0     0
SMALL
USER_CHARGES

@<TRIPOS>ATOM
      1 C1          0.1245    1.2913    1.2265 C.3       1 <0>        -0.1544
      2 C2          0.1194   -0.2123    0.9436 C.3       1 <0>        -0.1261
      3 C3         -1.3223   -0.7245    0.9342 C.3       1 <0>        -0.1214
      4 C4         -1.3274   -2.2282    0.6513 C.3       1 <0>        -0.1210
      5 C5         -2.7691   -2.7404    0.6419 C.3       1 <0>        -0.1206
      6 C6         -2.7742   -4.2440    0.3590 C.3       1 <0>        -0.1205
      7 C7         -4.2159   -4.7563    0.3496 C.3       1 <0>        -0.1140
      8 C8         -4.2210   -6.2599    0.0667 C.3       1 <0>        -0.1018
      9 C9         -5.6410   -6.7645    0.0574 C.2       1 <0>        -0.1593
     10 C10        -6.0832   -7.4576   -0.9625 C.2       1 <0>        -0.1607
     11 C11        -5.1311   -7.8959   -2.0452 C.3       1 <0>        -0.1018
     12 C12        -5.2475   -9.4083   -2.2451 C.3       1 <0>        -0.1142
     13 C13        -4.2809   -9.8534   -3.3444 C.3       1 <0>        -0.1203
     14 C14        -4.3973  -11.3658   -3.5443 C.3       1 <0>        -0.1210
     15 C15        -3.4307  -11.8109   -4.6435 C.3       1 <0>        -0.1198
     16 C16        -3.5471  -13.3233   -4.8434 C.3       1 <0>        -0.1143
     17 C17        -2.5805  -13.7684   -5.9427 C.3       1 <0>        -0.1631
     18 C18        -2.6952  -15.2580   -6.1396 C.2       1 <0>         0.3285
     19 O1         -3.4701  -15.8977   -5.4698 O.2       1 <0>        -0.3737
     20 C19        -1.8428  -15.9494   -7.1723 C.3       1 <0>         0.4164
     21 F1         -2.1257  -17.3195   -7.1690 F         1 <0>        -0.1648
     22 F2         -2.1201  -15.4191   -8.4368 F         1 <0>        -0.1663
     23 F3         -0.4913  -15.7516   -6.8698 F         1 <0>        -0.1663
     24 H1          1.1516    1.6563    1.2332 H         1 <0>         0.0535
     25 H2         -0.4399    1.8089    0.4508 H         1 <0>         0.0533
     26 H3         -0.3345    1.4800    2.1969 H         1 <0>         0.0533
     27 H4          0.5784   -0.4010   -0.0269 H         1 <0>         0.0602
     28 H5          0.6838   -0.7299    1.7192 H         1 <0>         0.0603
     29 H6         -1.7813   -0.5358    1.9046 H         1 <0>         0.0606
     30 H7         -1.8867   -0.2070    0.1585 H         1 <0>         0.0606
     31 H8         -0.8684   -2.4169   -0.3192 H         1 <0>         0.0606
     32 H9         -0.7630   -2.7457    1.4270 H         1 <0>         0.0606
     33 H10        -3.2281   -2.5517    1.6123 H         1 <0>         0.0607
     34 H11        -3.3335   -2.2229   -0.1338 H         1 <0>         0.0607
     35 H12        -2.3152   -4.4327   -0.6115 H         1 <0>         0.0608
     36 H13        -2.2098   -4.7616    1.1347 H         1 <0>         0.0611
     37 H14        -4.6749   -4.5676    1.3201 H         1 <0>         0.0612
     38 H15        -4.7803   -4.2387   -0.4261 H         1 <0>         0.0616
     39 H16        -3.7620   -6.4486   -0.9038 H         1 <0>         0.0758
     40 H17        -3.6566   -6.7775    0.8424 H         1 <0>         0.0679
     41 H18        -6.2941   -6.5546    0.8916 H         1 <0>         0.1073
     42 H19        -7.1301   -7.7148   -1.0273 H         1 <0>         0.1073
     43 H20        -5.3798   -7.3862   -2.9760 H         1 <0>         0.0678
     44 H21        -4.1107   -7.6453   -1.7551 H         1 <0>         0.0759
     45 H22        -4.9988   -9.9181   -1.3143 H         1 <0>         0.0620
     46 H23        -6.2679   -9.6590   -2.5352 H         1 <0>         0.0616
     47 H24        -4.5296   -9.3437   -4.2752 H         1 <0>         0.0621
     48 H25        -3.2605   -9.6028   -3.0543 H         1 <0>         0.0618
     49 H26        -4.1486  -11.8756   -2.6135 H         1 <0>         0.0631
     50 H27        -5.4177  -11.6165   -3.8344 H         1 <0>         0.0632
     51 H28        -3.6794  -11.3012   -5.5743 H         1 <0>         0.0663
     52 H29        -2.4103  -11.5602   -4.3534 H         1 <0>         0.0662
     53 H30        -3.2984  -13.8330   -3.9126 H         1 <0>         0.0735
     54 H31        -4.5675  -13.5740   -5.1335 H         1 <0>         0.0735
     55 H32        -2.8292  -13.2586   -6.8735 H         1 <0>         0.1182
     56 H33        -1.5601  -13.5177   -5.6526 H         1 <0>         0.1181
@<TRIPOS>BOND
     1    1    2 1
     2    1   24 1
     3    1   25 1
     4    1   26 1
     5    2    3 1
     6    2   27 1
     7    2   28 1
     8    3    4 1
     9    3   29 1
    10    3   30 1
    11    4    5 1
    12    4   31 1
    13    4   32 1
    14    5    6 1
    15    5   33 1
    16    5   34 1
    17    6    7 1
    18    6   35 1
    19    6   36 1
    20    7    8 1
    21    7   37 1
    22    7   38 1
    23    8    9 1
    24    8   39 1
    25    8   40 1
    26    9   10 2
    27    9   41 1
    28   10   11 1
    29   10   42 1
    30   11   12 1
    31   11   43 1
    32   11   44 1
    33   12   13 1
    34   12   45 1
    35   12   46 1
    36   13   14 1
    37   13   47 1
    38   13   48 1
    39   14   15 1
    40   14   49 1
    41   14   50 1
    42   15   16 1
    43   15   51 1
    44   15   52 1
    45   16   17 1
    46   16   53 1
    47   16   54 1
    48   17   18 1
    49   17   55 1
    50   17   56 1
    51   18   19 2
    52   18   20 1
    53   20   21 1
    54   20   22 1
    55   20   23 1
@<TRIPOS>MOLECULE
ZINC03816417
   43    45     0     0     0
SMALL
USER_CHARGES
(3-phenylphenyl) cyclohexylaminoformate
@<TRIPOS>ATOM
      1 C1         -3.5810    4.4988   -9.9320 C.ar      1 <0>        -0.1161
      2 C2         -3.8905    3.2076  -10.3197 C.ar      1 <0>        -0.1174
      3 C3         -3.4239    2.1342   -9.5883 C.ar      1 <0>        -0.1079
      4 C4         -2.6393    2.3530   -8.4579 C.ar      1 <0>        -0.0482
      5 C5         -2.3346    3.6558   -8.0692 C.ar      1 <0>        -0.1081
      6 C6         -2.8021    4.7218   -8.8109 C.ar      1 <0>        -0.1169
      7 C7         -2.1352    1.2028   -7.6673 C.ar      1 <0>        -0.0301
      8 C8         -2.4456   -0.1001   -8.0531 C.ar      1 <0>        -0.1058
      9 C9         -1.9759   -1.1683   -7.3158 C.ar      1 <0>        -0.1011
     10 C10        -1.1927   -0.9502   -6.1976 C.ar      1 <0>        -0.1158
     11 C11        -0.8839    0.3442   -5.8036 C.ar      1 <0>         0.1053
     12 C12        -1.3512    1.4221   -6.5377 C.ar      1 <0>        -0.1055
     13 O1         -0.1182    0.5542   -4.7001 O.3       1 <0>        -0.3058
     14 C13        -0.7545    0.9471   -3.5800 C.2       1 <0>         0.6427
     15 O2         -1.9459    1.1843   -3.6096 O.2       1 <0>        -0.5508
     16 N1         -0.0699    1.0770   -2.4264 N.am      1 <0>        -0.7024
     17 C14        -0.7621    1.5044   -1.2080 C.3       1 <0>         0.1616
     18 C15         0.0011    0.9964    0.0169 C.3       1 <0>        -0.1270
     19 C16        -0.7218    1.4427    1.2894 C.3       1 <0>        -0.1159
     20 C17        -0.7896    2.9707    1.3282 C.3       1 <0>        -0.1238
     21 C18        -1.5528    3.4786    0.1033 C.3       1 <0>        -0.1173
     22 C19        -0.8299    3.0324   -1.1692 C.3       1 <0>        -0.1327
     23 H1         -3.9484    5.3359  -10.5070 H         1 <0>         0.1242
     24 H2         -4.4988    3.0392  -11.1961 H         1 <0>         0.1261
     25 H3         -3.6663    1.1264   -9.8919 H         1 <0>         0.1268
     26 H4         -1.7305    3.8312   -7.1912 H         1 <0>         0.1236
     27 H5         -2.5627    5.7319   -8.5131 H         1 <0>         0.1254
     28 H6         -3.0538   -0.2738   -8.9285 H         1 <0>         0.1330
     29 H7         -2.2172   -2.1773   -7.6159 H         1 <0>         0.1363
     30 H8         -0.8236   -1.7894   -5.6267 H         1 <0>         0.1327
     31 H9         -1.1077    2.4298   -6.2350 H         1 <0>         0.1307
     32 H10         0.8811    0.8876   -2.4029 H         1 <0>         0.4077
     33 H11        -1.7725    1.0956   -1.2018 H         1 <0>         0.0931
     34 H12         0.0494   -0.0921   -0.0107 H         1 <0>         0.0720
     35 H13         1.0115    1.4052    0.0107 H         1 <0>         0.0717
     36 H14        -1.7322    1.0339    1.2956 H         1 <0>         0.0668
     37 H15        -0.1781    1.0809    2.1620 H         1 <0>         0.0706
     38 H16         0.2209    3.3795    1.3220 H         1 <0>         0.0640
     39 H17        -1.3046    3.2887    2.2347 H         1 <0>         0.0662
     40 H18        -1.6011    4.5672    0.1309 H         1 <0>         0.0674
     41 H19        -2.5632    3.0698    0.1095 H         1 <0>         0.0659
     42 H20         0.1805    3.4412   -1.1754 H         1 <0>         0.0666
     43 H21        -1.3736    3.3942   -2.0419 H         1 <0>         0.0686
@<TRIPOS>BOND
     1    1    6 ar
     2    1    2 ar
     3    1   23 1
     4    2    3 ar
     5    2   24 1
     6    3    4 ar
     7    3   25 1
     8    4    5 ar
     9    4    7 1
    10    5    6 ar
    11    5   26 1
    12    6   27 1
    13    7   12 ar
    14    7    8 ar
    15    8    9 ar
    16    8   28 1
    17    9   10 ar
    18    9   29 1
    19   10   11 ar
    20   10   30 1
    21   11   12 ar
    22   11   13 1
    23   12   31 1
    24   13   14 1
    25   14   15 2
    26   14   16 am
    27   16   17 1
    28   16   32 1
    29   17   22 1
    30   17   18 1
    31   17   33 1
    32   18   19 1
    33   18   34 1
    34   18   35 1
    35   19   20 1
    36   19   36 1
    37   19   37 1
    38   20   21 1
    39   20   38 1
    40   20   39 1
    41   21   22 1
    42   21   40 1
    43   21   41 1
    44   22   42 1
    45   22   43 1
@<TRIPOS>MOLECULE
ZINC27646193
   59    61     0     0     0
SMALL
USER_CHARGES
[3-(3-carbamoylphenyl)phenyl] N-(6-phenylhexyl)carbamate
@<TRIPOS>ATOM
      1 C1          7.3834  -11.3815    1.0954 C.ar      1 <0>        -0.1260
      2 C2          7.4519  -10.7817   -0.1481 C.ar      1 <0>        -0.1180
      3 C3          7.5042   -9.4040   -0.2491 C.ar      1 <0>        -0.1191
      4 C4          7.4884   -8.6262    0.8936 C.ar      1 <0>        -0.0820
      5 C5          7.4257   -9.2262    2.1373 C.ar      1 <0>        -0.1192
      6 C6          7.3681  -10.6037    2.2381 C.ar      1 <0>        -0.1181
      7 C7          7.5459   -7.1243    0.7836 C.3       1 <0>        -0.0830
      8 C8          6.1248   -6.5649    0.6917 C.3       1 <0>        -0.1147
      9 C9          6.1831   -5.0401    0.5800 C.3       1 <0>        -0.1194
     10 C10         4.7620   -4.4807    0.4881 C.3       1 <0>        -0.1180
     11 C11         4.8203   -2.9559    0.3765 C.3       1 <0>        -0.1315
     12 C12         3.3992   -2.3966    0.2846 C.3       1 <0>         0.1370
     13 N1          3.4550   -0.9366    0.1776 N.am      1 <0>        -0.7179
     14 C13         2.3151   -0.2236    0.0842 C.2       1 <0>         0.6412
     15 O1          1.2410   -0.7918    0.0887 O.2       1 <0>        -0.5555
     16 O2          2.3664    1.1186   -0.0141 O.3       1 <0>        -0.3051
     17 C14         1.1825    1.7857    0.0205 C.ar      1 <0>         0.1077
     18 C15         0.7005    2.4039   -1.1252 C.ar      1 <0>        -0.1119
     19 C16        -0.5002    3.0876   -1.0933 C.ar      1 <0>        -0.0988
     20 C17        -1.2325    3.1499    0.0756 C.ar      1 <0>        -0.1051
     21 C18        -0.7557    2.5320    1.2298 C.ar      1 <0>        -0.0322
     22 C19         0.4570    1.8480    1.1986 C.ar      1 <0>        -0.1098
     23 C20        -1.5383    2.6022    2.4889 C.ar      1 <0>        -0.0504
     24 C21        -1.0632    1.9783    3.6421 C.ar      1 <0>        -0.0834
     25 C22        -1.7868    2.0465    4.8166 C.ar      1 <0>        -0.1216
     26 C23        -2.9896    2.7233    4.8547 C.ar      1 <0>        -0.0846
     27 C24        -3.4786    3.3472    3.7054 C.ar      1 <0>        -0.1334
     28 C25        -2.7491    3.2854    2.5191 C.ar      1 <0>        -0.0499
     29 C26        -4.7673    4.0711    3.7463 C.2       1 <0>         0.5636
     30 O3         -5.1918    4.6133    2.7447 O.2       1 <0>        -0.5461
     31 N2         -5.4712    4.1297    4.8941 N.am      1 <0>        -0.8728
     32 H1          7.3422  -12.4578    1.1742 H         1 <0>         0.1209
     33 H2          7.4642  -11.3894   -1.0409 H         1 <0>         0.1214
     34 H3          7.5577   -8.9354   -1.2206 H         1 <0>         0.1204
     35 H4          7.4178   -8.6187    3.0302 H         1 <0>         0.1204
     36 H5          7.3149  -11.0723    3.2096 H         1 <0>         0.1214
     37 H6          8.0461   -6.7105    1.6716 H         1 <0>         0.0724
     38 H7          8.1094   -6.8440   -0.1186 H         1 <0>         0.0725
     39 H8          5.6246   -6.9787   -0.1963 H         1 <0>         0.0644
     40 H9          5.5613   -6.8452    1.5939 H         1 <0>         0.0643
     41 H10         6.6833   -4.6263    1.4680 H         1 <0>         0.0642
     42 H11         6.7465   -4.7598   -0.3222 H         1 <0>         0.0644
     43 H12         4.2618   -4.8945   -0.3999 H         1 <0>         0.0675
     44 H13         4.1985   -4.7610    1.3903 H         1 <0>         0.0673
     45 H14         5.3205   -2.5421    1.2645 H         1 <0>         0.0732
     46 H15         5.3838   -2.6755   -0.5257 H         1 <0>         0.0734
     47 H16         2.8990   -2.8105   -0.6034 H         1 <0>         0.0710
     48 H17         2.8358   -2.6769    1.1868 H         1 <0>         0.0709
     49 H18         4.4273   -0.4222    0.1735 H         1 <0>         0.4320
     50 H19         1.2676    2.3542   -2.0430 H         1 <0>         0.1341
     51 H20        -0.8686    3.5710   -1.9860 H         1 <0>         0.1379
     52 H21        -2.1726    3.6811    0.0963 H         1 <0>         0.1350
     53 H22         0.8309    1.3678    2.0908 H         1 <0>         0.1300
     54 H23        -0.1250    1.4438    3.6178 H         1 <0>         0.1296
     55 H24        -1.4124    1.5647    5.7077 H         1 <0>         0.1337
     56 H25        -3.5531    2.7699    5.7748 H         1 <0>         0.1287
     57 H26        -3.1226    3.7665    1.6272 H         1 <0>         0.1410
     58 H27        -6.4299    4.6682    4.9245 H         1 <0>         0.4279
     59 H28        -5.0870    3.6390    5.8005 H         1 <0>         0.4183
@<TRIPOS>BOND
     1    1    6 ar
     2    1    2 ar
     3    1   32 1
     4    2    3 ar
     5    2   33 1
     6    3    4 ar
     7    3   34 1
     8    4    5 ar
     9    4    7 1
    10    5    6 ar
    11    5   35 1
    12    6   36 1
    13    7    8 1
    14    7   37 1
    15    7   38 1
    16    8    9 1
    17    8   39 1
    18    8   40 1
    19    9   10 1
    20    9   41 1
    21    9   42 1
    22   10   11 1
    23   10   43 1
    24   10   44 1
    25   11   12 1
    26   11   45 1
    27   11   46 1
    28   12   13 1
    29   12   47 1
    30   12   48 1
    31   13   14 am
    32   13   49 1
    33   14   15 2
    34   14   16 1
    35   16   17 1
    36   17   22 ar
    37   17   18 ar
    38   18   19 ar
    39   18   50 1
    40   19   20 ar
    41   19   51 1
    42   20   21 ar
    43   20   52 1
    44   21   22 ar
    45   21   23 1
    46   22   53 1
    47   23   28 ar
    48   23   24 ar
    49   24   25 ar
    50   24   54 1
    51   25   26 ar
    52   25   55 1
    53   26   27 ar
    54   26   56 1
    55   27   28 ar
    56   27   29 1
    57   28   57 1
    58   29   30 2
    59   29   31 am
    60   31   58 1
    61   31   59 1
@<TRIPOS>MOLECULE
ZINC40861329
   46    47     0     0     0
SMALL
USER_CHARGES

@<TRIPOS>ATOM
      1 C1         -0.0178    1.4608    0.0101 C.3       1 <0>         0.0881
      2 N1          0.0021   -0.0041    0.0020 N.am      1 <0>        -0.7310
      3 C2          0.5851   -0.6645   -1.0180 C.2       1 <0>         0.5141
      4 O1          1.0933   -0.0461   -1.9292 O.2       1 <0>        -0.5154
      5 C3          0.6055   -2.1713   -1.0263 C.3       1 <0>         0.0678
      6 O2          1.2744   -2.6322   -2.2020 O.3       1 <0>        -0.3405
      7 C4          1.3792   -3.9648   -2.3629 C.2       1 <0>         0.6524
      8 O3          0.9155   -4.7160   -1.5279 O.2       1 <0>        -0.5713
      9 N2          1.9985   -4.4656   -3.4502 N.am      1 <0>        -0.5893
     10 C5          2.5696   -3.5701   -4.4653 C.3       1 <0>         0.1084
     11 C6          2.0077   -3.9574   -5.8368 C.3       1 <0>        -0.1305
     12 C7          2.2707   -5.4436   -6.0902 C.3       1 <0>        -0.0889
     13 C8          1.5590   -6.2785   -5.0232 C.3       1 <0>        -0.1327
     14 C9          2.1208   -5.9175   -3.6397 C.3       1 <0>         0.1255
     15 C10         1.7415   -5.8263   -7.4738 C.3       1 <0>        -0.1083
     16 C11         2.1142   -7.2785   -7.7787 C.3       1 <0>        -0.0839
     17 C12         1.5929   -7.6554   -9.1415 C.ar      1 <0>        -0.0765
     18 C13         0.3249   -8.1903   -9.2726 C.ar      1 <0>        -0.1055
     19 C14        -0.1537   -8.5362  -10.5222 C.ar      1 <0>        -0.1079
     20 C15         0.6364   -8.3470  -11.6420 C.ar      1 <0>        -0.0400
     21 C16         1.9053   -7.8116  -11.5102 C.ar      1 <0>        -0.1079
     22 C17         2.3807   -7.4608  -10.2607 C.ar      1 <0>        -0.1055
     23 Cl1         0.0361   -8.7817  -13.2118 Cl        1 <0>        -0.0709
     24 H1          1.0048    1.8381    0.0023 H         1 <0>         0.0631
     25 H2         -0.5450    1.8219   -0.8730 H         1 <0>         0.0630
     26 H3         -0.5280    1.8123    0.9069 H         1 <0>         0.0806
     27 H4         -0.4044   -0.4986    0.7308 H         1 <0>         0.4057
     28 H5          1.1327   -2.5324   -0.1432 H         1 <0>         0.1010
     29 H6         -0.4171   -2.5486   -1.0185 H         1 <0>         0.1007
     30 H7          2.2986   -2.5392   -4.2373 H         1 <0>         0.0973
     31 H8          3.6549   -3.6716   -4.4732 H         1 <0>         0.0732
     32 H9          0.9342   -3.7694   -5.8564 H         1 <0>         0.0690
     33 H10         2.4955   -3.3645   -6.6105 H         1 <0>         0.0801
     34 H11         3.3428   -5.6353   -6.0459 H         1 <0>         0.0765
     35 H12         0.4897   -6.0687   -5.0505 H         1 <0>         0.0699
     36 H13         1.7274   -7.3377   -5.2178 H         1 <0>         0.0828
     37 H14         3.1702   -6.2065   -3.5816 H         1 <0>         0.0749
     38 H15         1.5535   -6.4359   -2.8668 H         1 <0>         0.0975
     39 H16         0.6570   -5.7183   -7.4906 H         1 <0>         0.0656
     40 H17         2.1834   -5.1722   -8.2255 H         1 <0>         0.0674
     41 H18         3.1987   -7.3864   -7.7619 H         1 <0>         0.0757
     42 H19         1.6723   -7.9325   -7.0270 H         1 <0>         0.0775
     43 H20        -0.2916   -8.3383   -8.3983 H         1 <0>         0.1310
     44 H21        -1.1442   -8.9544  -10.6244 H         1 <0>         0.1329
     45 H22         2.5227   -7.6639  -12.3840 H         1 <0>         0.1331
     46 H23         3.3694   -7.0385  -10.1582 H         1 <0>         0.1314
@<TRIPOS>BOND
     1    1    2 1
     2    1   24 1
     3    1   25 1
     4    1   26 1
     5    2    3 am
     6    2   27 1
     7    3    4 2
     8    3    5 1
     9    5    6 1
    10    5   28 1
    11    5   29 1
    12    6    7 1
    13    7    8 2
    14    7    9 am
    15    9   14 1
    16    9   10 1
    17   10   11 1
    18   10   30 1
    19   10   31 1
    20   11   12 1
    21   11   32 1
    22   11   33 1
    23   12   13 1
    24   12   15 1
    25   12   34 1
    26   13   14 1
    27   13   35 1
    28   13   36 1
    29   14   37 1
    30   14   38 1
    31   15   16 1
    32   15   39 1
    33   15   40 1
    34   16   17 1
    35   16   41 1
    36   16   42 1
    37   17   22 ar
    38   17   18 ar
    39   18   19 ar
    40   18   43 1
    41   19   20 ar
    42   19   44 1
    43   20   21 ar
    44   20   23 1
    45   21   22 ar
    46   21   45 1
    47   22   46 1
@<TRIPOS>MOLECULE
ZINC01028145
   45    48     0     0     0
SMALL
USER_CHARGES

@<TRIPOS>ATOM
      1 C1          0.7229    1.3570    2.1633 C.ar      1 <0>        -0.0985
      2 C2          1.7063    2.0820    1.5147 C.ar      1 <0>        -0.1270
      3 C3          2.8227    1.4425    1.0153 C.ar      1 <0>        -0.0757
      4 C4          2.9583    0.0637    1.1659 C.ar      1 <0>        -0.0318
      5 C5          1.9647   -0.6616    1.8206 C.ar      1 <0>        -0.0691
      6 C6          0.8523   -0.0117    2.3155 C.ar      1 <0>        -0.1286
      7 C7          4.1559   -0.6294    0.6307 C.2       1 <0>         0.3411
      8 N1          4.3013   -1.9374    0.7588 N.2       1 <0>        -0.5850
      9 C8          5.3941   -2.4846    0.2571 C.2       1 <0>         0.3219
     10 S1          6.2062   -1.1629   -0.3883 S.3       1 <0>         0.2270
     11 N2          5.1059    0.0377    0.0080 N.2       1 <0>        -0.4895
     12 N3          5.7749   -3.8140    0.2623 N.pl3     1 <0>        -0.5538
     13 C9          4.9167   -4.8355    0.8786 C.3       1 <0>         0.1094
     14 C10         4.6259   -5.9241   -0.1619 C.3       1 <0>         0.1147
     15 N4          5.8958   -6.3408   -0.7731 N.am      1 <0>        -0.6273
     16 C11         6.7540   -5.3193   -1.3894 C.3       1 <0>         0.0951
     17 C12         7.0422   -4.2315   -0.3539 C.3       1 <0>         0.1071
     18 C13         6.2669   -7.6364   -0.7680 C.2       1 <0>         0.7097
     19 O1          5.5987   -8.4579   -0.1704 O.2       1 <0>        -0.5625
     20 N5          7.3787   -8.0215   -1.4254 N.am      1 <0>        -0.6862
     21 C14         7.6848   -9.3818   -1.5455 C.ar      1 <0>         0.1614
     22 C15         6.6647  -10.3169   -1.6610 C.ar      1 <0>        -0.1198
     23 C16         6.9701  -11.6586   -1.7799 C.ar      1 <0>        -0.0991
     24 C17         8.2899  -12.0711   -1.7839 C.ar      1 <0>        -0.1355
     25 C18         9.3080  -11.1424   -1.6685 C.ar      1 <0>        -0.0992
     26 C19         9.0093   -9.7987   -1.5551 C.ar      1 <0>        -0.1479
     27 H1         -0.1471    1.8621    2.5562 H         1 <0>         0.1267
     28 H2          1.6001    3.1505    1.3986 H         1 <0>         0.1293
     29 H3          3.5895    2.0094    0.5084 H         1 <0>         0.1330
     30 H4          2.0648   -1.7303    1.9400 H         1 <0>         0.1350
     31 H5          0.0814   -0.5729    2.8227 H         1 <0>         0.1289
     32 H6          5.4284   -5.2751    1.7348 H         1 <0>         0.0814
     33 H7          3.9810   -4.3800    1.2029 H         1 <0>         0.1113
     34 H8          4.1561   -6.7790    0.3246 H         1 <0>         0.1143
     35 H9          3.9626   -5.5275   -0.9306 H         1 <0>         0.0774
     36 H10         7.6897   -5.7747   -1.7137 H         1 <0>         0.0961
     37 H11         6.2423   -4.8797   -2.2456 H         1 <0>         0.0853
     38 H12         7.5098   -3.3772   -0.8434 H         1 <0>         0.1004
     39 H13         7.7087   -4.6271    0.4125 H         1 <0>         0.0906
     40 H14         7.9667   -7.3558   -1.8152 H         1 <0>         0.4048
     41 H15         5.6337   -9.9954   -1.6576 H         1 <0>         0.1331
     42 H16         6.1772  -12.3864   -1.8694 H         1 <0>         0.1261
     43 H17         8.5261  -13.1208   -1.8769 H         1 <0>         0.1240
     44 H18        10.3378  -11.4677   -1.6716 H         1 <0>         0.1269
     45 H19         9.8050   -9.0734   -1.4698 H         1 <0>         0.1243
@<TRIPOS>BOND
     1    1    6 ar
     2    1    2 ar
     3    1   27 1
     4    2    3 ar
     5    2   28 1
     6    3    4 ar
     7    3   29 1
     8    4    5 ar
     9    4    7 1
    10    5    6 ar
    11    5   30 1
    12    6   31 1
    13    7   11 2
    14    7    8 1
    15    8    9 2
    16    9   10 1
    17    9   12 1
    18   10   11 1
    19   12   17 1
    20   12   13 1
    21   13   14 1
    22   13   32 1
    23   13   33 1
    24   14   15 1
    25   14   34 1
    26   14   35 1
    27   15   16 1
    28   15   18 am
    29   16   17 1
    30   16   36 1
    31   16   37 1
    32   17   38 1
    33   17   39 1
    34   18   19 2
    35   18   20 am
    36   20   21 1
    37   20   40 1
    38   21   26 ar
    39   21   22 ar
    40   22   23 ar
    41   22   41 1
    42   23   24 ar
    43   23   42 1
    44   24   25 ar
    45   24   43 1
    46   25   26 ar
    47   25   44 1
    48   26   45 1
@<TRIPOS>MOLECULE
ZINC00953335
   56    60     0     0     0
SMALL
USER_CHARGES

@<TRIPOS>ATOM
      1 C1         -0.1223    1.4738   -0.1176 C.3       1 <0>        -0.1151
      2 C2          0.1064    0.0893    0.4321 C.ar      1 <0>        -0.0579
      3 C3          0.9400   -0.1019    1.5254 C.ar      1 <0>        -0.1120
      4 C4          1.1659   -1.3384    2.0436 C.ar      1 <0>        -0.0548
      5 C5          0.5536   -2.4838    1.4808 C.ar      1 <0>         0.0724
      6 C6         -0.2902   -2.2564    0.3678 C.ar      1 <0>        -0.1352
      7 C7         -0.5164   -1.0022   -0.1440 C.ar      1 <0>        -0.0712
      8 S1         -0.8448   -3.8970   -0.0283 S.3       1 <0>        -0.0068
      9 C8          0.0469   -4.7525    1.2631 C.2       1 <0>         0.2061
     10 N1          0.6719   -3.7678    1.8715 N.2       1 <0>        -0.4989
     11 C9          0.0749   -6.1979    1.5694 C.ar      1 <0>        -0.0429
     12 C10        -0.6631   -7.0923    0.7914 C.ar      1 <0>        -0.0629
     13 C11        -0.6349   -8.4392    1.0795 C.ar      1 <0>        -0.1216
     14 C12         0.1269   -8.9082    2.1440 C.ar      1 <0>         0.1723
     15 C13         0.8625   -8.0201    2.9208 C.ar      1 <0>        -0.1482
     16 C14         0.8439   -6.6728    2.6338 C.ar      1 <0>        -0.0429
     17 N2          0.1530  -10.2744    2.4338 N.am      1 <0>        -0.6745
     18 C15         0.0648  -11.1766    1.4364 C.2       1 <0>         0.5184
     19 O1          0.0593  -10.8056    0.2818 O.2       1 <0>        -0.5078
     20 C16        -0.0269  -12.6465    1.7560 C.3       1 <0>        -0.1041
     21 C17         1.2168  -13.0770    2.5371 C.3       1 <0>        -0.1267
     22 C18         1.1040  -14.5634    2.8901 C.3       1 <0>         0.1179
     23 N3          0.8726  -15.3263    1.6560 N.pl3     1 <0>        -0.9958
     24 C19        -0.2440  -14.9372    0.7839 C.3       1 <0>         0.1164
     25 C20        -0.1162  -13.4466    0.4545 C.3       1 <0>        -0.1136
     26 S2          1.8519  -16.6001    1.2552 S.o2      1 <0>         2.7237
     27 O2          1.7612  -16.7544   -0.1544 O.2       1 <0>        -0.9427
     28 O3          3.0894  -16.3859    1.9201 O.2       1 <0>        -0.9446
     29 C21         1.1418  -18.0472    1.9669 C.2       1 <0>        -0.7671
     30 C22         0.2405  -18.9071    1.4326 C.2       1 <0>        -0.0053
     31 C23        -0.1802  -19.9891    2.1830 C.2       1 <0>        -0.1928
     32 C24         0.3211  -20.1582    3.4309 C.2       1 <0>        -0.1302
     33 S3          1.4287  -18.7656    3.5759 S.3       1 <0>         0.1626
     34 H1         -0.9761    1.9279    0.3853 H         1 <0>         0.0775
     35 H2          0.7654    2.0832    0.0518 H         1 <0>         0.0734
     36 H3         -0.3217    1.4116   -1.1874 H         1 <0>         0.0714
     37 H4          1.4218    0.7534    1.9756 H         1 <0>         0.1353
     38 H5          1.8210   -1.4481    2.8952 H         1 <0>         0.1343
     39 H6         -1.1716   -0.8703   -0.9924 H         1 <0>         0.1346
     40 H7         -1.2556   -6.7286   -0.0351 H         1 <0>         0.1324
     41 H8         -1.2055   -9.1315    0.4782 H         1 <0>         0.1438
     42 H9          1.4527   -8.3874    3.7474 H         1 <0>         0.1365
     43 H10         1.4196   -5.9841    3.2344 H         1 <0>         0.1416
     44 H11         0.2345  -10.5738    3.3528 H         1 <0>         0.4139
     45 H12        -0.9161  -12.8324    2.3583 H         1 <0>         0.1082
     46 H13         2.1046  -12.9145    1.9259 H         1 <0>         0.0810
     47 H14         1.2925  -12.4903    3.4527 H         1 <0>         0.0840
     48 H15         2.0291  -14.8988    3.3590 H         1 <0>         0.1013
     49 H16         0.2694  -14.7141    3.5748 H         1 <0>         0.0777
     50 H17        -0.2084  -15.5193   -0.1370 H         1 <0>         0.1009
     51 H18        -1.1886  -15.1184    1.2968 H         1 <0>         0.0755
     52 H19        -0.9892  -13.1231   -0.1123 H         1 <0>         0.0893
     53 H20         0.7842  -13.2807   -0.1371 H         1 <0>         0.0811
     54 H21        -0.1436  -18.7490    0.4357 H         1 <0>         0.1479
     55 H22        -0.8978  -20.6890    1.7810 H         1 <0>         0.1465
     56 H23         0.1087  -20.9360    4.1495 H         1 <0>         0.1974
@<TRIPOS>BOND
     1    1    2 1
     2    1   34 1
     3    1   35 1
     4    1   36 1
     5    2    7 ar
     6    2    3 ar
     7    3    4 ar
     8    3   37 1
     9    4    5 ar
    10    4   38 1
    11    5   10 1
    12    5    6 ar
    13    6    7 ar
    14    6    8 1
    15    7   39 1
    16    8    9 1
    17    9   10 2
    18    9   11 1
    19   11   16 ar
    20   11   12 ar
    21   12   13 ar
    22   12   40 1
    23   13   14 ar
    24   13   41 1
    25   14   15 ar
    26   14   17 1
    27   15   16 ar
    28   15   42 1
    29   16   43 1
    30   17   18 am
    31   17   44 1
    32   18   19 2
    33   18   20 1
    34   20   25 1
    35   20   21 1
    36   20   45 1
    37   21   22 1
    38   21   46 1
    39   21   47 1
    40   22   23 1
    41   22   48 1
    42   22   49 1
    43   23   24 1
    44   23   26 1
    45   24   25 1
    46   24   50 1
    47   24   51 1
    48   25   52 1
    49   25   53 1
    50   26   27 2
    51   26   28 2
    52   26   29 1
    53   29   33 1
    54   29   30 2
    55   30   31 1
    56   30   54 1
    57   31   32 2
    58   31   55 1
    59   32   33 1
    60   32   56 1
@<TRIPOS>MOLECULE
ZINC01028142
   49    52     0     0     0
SMALL
USER_CHARGES
4-(3-phenyl-1,2,4-thiadiazol-5-yl)-N-[4-(trifluoromethoxy)phenyl]piperazine-1-carboxamide
@<TRIPOS>ATOM
      1 C1          7.8511   -6.4104   -4.0153 C.ar      1 <0>        -0.0963
      2 C2          8.6526   -5.3351   -4.3537 C.ar      1 <0>        -0.1263
      3 C3          8.3583   -4.0743   -3.8757 C.ar      1 <0>        -0.0753
      4 C4          7.2512   -3.8858   -3.0505 C.ar      1 <0>        -0.0372
      5 C5          6.4505   -4.9737   -2.7082 C.ar      1 <0>        -0.0681
      6 C6          6.7510   -6.2291   -3.1966 C.ar      1 <0>        -0.1281
      7 C7          6.9297   -2.5328   -2.5336 C.2       1 <0>         0.3264
      8 N1          5.8849   -2.3512   -1.7478 N.2       1 <0>        -0.5398
      9 C8          5.6258   -1.1293   -1.3088 C.2       1 <0>         0.2948
     10 S1          6.9144   -0.2165   -2.0267 S.3       1 <0>         0.1595
     11 N2          7.6885   -1.5017   -2.8507 N.2       1 <0>        -0.4441
     12 N3          4.6005   -0.6957   -0.4883 N.pl3     1 <0>        -0.4204
     13 C9          4.6958    0.7501   -0.2460 C.3       1 <0>         0.0267
     14 C10         3.6580    1.1580    0.8051 C.3       1 <0>         0.1370
     15 N4          2.3363    0.6872    0.3639 N.am      1 <0>        -0.6308
     16 C11         2.1939   -0.7247   -0.0225 C.3       1 <0>         0.1135
     17 C12         3.2907   -1.0572   -1.0466 C.3       1 <0>         0.0461
     18 C13         1.2823    1.5260    0.3202 C.2       1 <0>         0.7131
     19 O1          1.4441    2.7161    0.5101 O.2       1 <0>        -0.5612
     20 N5          0.0489    1.0458    0.0661 N.am      1 <0>        -0.6786
     21 C14        -1.0697    1.8787    0.2048 C.ar      1 <0>         0.1474
     22 C15        -0.9192    3.2579    0.1540 C.ar      1 <0>        -0.1036
     23 C16        -2.0226    4.0779    0.2855 C.ar      1 <0>        -0.1659
     24 C17        -3.2795    3.5241    0.4797 C.ar      1 <0>         0.0818
     25 C18        -3.4298    2.1462    0.5359 C.ar      1 <0>        -0.0989
     26 C19        -2.3280    1.3250    0.3988 C.ar      1 <0>        -0.1173
     27 O2         -4.3647    4.3321    0.6148 O.3       1 <0>        -0.3108
     28 C20        -4.1368    5.7412    0.5467 C.3       1 <0>         0.6038
     29 F1         -3.5799    6.0641   -0.6954 F         1 <0>        -0.1649
     30 F2         -5.3511    6.4181    0.7035 F         1 <0>        -0.1310
     31 F3         -3.2563    6.1209    1.5654 F         1 <0>        -0.1643
     32 H1          8.0849   -7.3952   -4.3920 H         1 <0>         0.1277
     33 H2          9.5101   -5.4823   -4.9936 H         1 <0>         0.1301
     34 H3          8.9846   -3.2353   -4.1408 H         1 <0>         0.1331
     35 H4          5.5939   -4.8340   -2.0655 H         1 <0>         0.1363
     36 H5          6.1288   -7.0723   -2.9353 H         1 <0>         0.1299
     37 H6          4.5040    1.2879   -1.1745 H         1 <0>         0.0727
     38 H7          5.6949    0.9931    0.1158 H         1 <0>         0.1092
     39 H8          3.6454    2.2434    0.9052 H         1 <0>         0.1161
     40 H9          3.9067    0.7047    1.7646 H         1 <0>         0.0879
     41 H10         2.3061   -1.3583    0.8573 H         1 <0>         0.0934
     42 H11         1.2128   -0.8848   -0.4698 H         1 <0>         0.0924
     43 H12         3.1184   -0.4942   -1.9639 H         1 <0>         0.0646
     44 H13         3.2709   -2.1247   -1.2659 H         1 <0>         0.1141
     45 H14        -0.0642    0.1248   -0.2166 H         1 <0>         0.4085
     46 H15         0.0599    3.6893    0.0072 H         1 <0>         0.1763
     47 H16        -1.9063    5.1507    0.2411 H         1 <0>         0.1365
     48 H17        -4.4086    1.7156    0.6871 H         1 <0>         0.1439
     49 H18        -2.4453    0.2522    0.4422 H         1 <0>         0.1402
@<TRIPOS>BOND
     1    1    6 ar
     2    1    2 ar
     3    1   32 1
     4    2    3 ar
     5    2   33 1
     6    3    4 ar
     7    3   34 1
     8    4    5 ar
     9    4    7 1
    10    5    6 ar
    11    5   35 1
    12    6   36 1
    13    7   11 2
    14    7    8 1
    15    8    9 2
    16    9   10 1
    17    9   12 1
    18   10   11 1
    19   12   17 1
    20   12   13 1
    21   13   14 1
    22   13   37 1
    23   13   38 1
    24   14   15 1
    25   14   39 1
    26   14   40 1
    27   15   16 1
    28   15   18 am
    29   16   17 1
    30   16   41 1
    31   16   42 1
    32   17   43 1
    33   17   44 1
    34   18   19 2
    35   18   20 am
    36   20   21 1
    37   20   45 1
    38   21   26 ar
    39   21   22 ar
    40   22   23 ar
    41   22   46 1
    42   23   24 ar
    43   23   47 1
    44   24   25 ar
    45   24   27 1
    46   25   26 ar
    47   25   48 1
    48   26   49 1
    49   27   28 1
    50   28   29 1
    51   28   30 1
    52   28   31 1
@<TRIPOS>MOLECULE
ZINC13813297
   40    42     0     0     0
SMALL
USER_CHARGES

@<TRIPOS>ATOM
      1 C1          0.1070    1.2655   -0.1922 C.3       1 <0>         0.0964
      2 N1         -0.1191   -0.1668    0.0166 N.am      1 <0>        -0.5974
      3 C2          1.0113   -1.0983   -0.0088 C.3       1 <0>         0.0695
      4 C3         -1.3672   -0.6276    0.2322 C.2       1 <0>         0.7241
      5 O1         -2.3157    0.1269    0.1504 O.2       1 <0>        -0.5212
      6 N2         -1.5629   -1.9254    0.5384 N.am      1 <0>        -0.3860
      7 C4         -2.7468   -2.5653    0.6926 C.2       1 <0>         0.3167
      8 N3         -2.4786   -3.8098    0.9844 N.2       1 <0>        -0.3193
      9 N4         -1.2098   -4.0030    1.0257 N.2       1 <0>        -0.0089
     10 N5         -0.5821   -2.9083    0.7605 N.2       1 <0>        -0.0667
     11 C5         -4.1177   -1.9550    0.5539 C.3       1 <0>        -0.0121
     12 C6         -4.5793   -2.0763   -0.8755 C.ar      1 <0>        -0.0964
     13 C7         -4.2874   -1.0726   -1.7814 C.ar      1 <0>        -0.1006
     14 C8         -4.7077   -1.1786   -3.0918 C.ar      1 <0>        -0.1142
     15 C9         -5.4273   -2.2992   -3.5014 C.ar      1 <0>        -0.0348
     16 C10        -5.7186   -3.3072   -2.5846 C.ar      1 <0>        -0.1126
     17 C11        -5.2885   -3.1936   -1.2781 C.ar      1 <0>        -0.0936
     18 C12        -5.8823   -2.4184   -4.9088 C.ar      1 <0>        -0.0502
     19 C13        -5.5865   -1.4129   -5.8269 C.ar      1 <0>        -0.1098
     20 C14        -6.0117   -1.5291   -7.1348 C.ar      1 <0>        -0.1178
     21 C15        -6.7307   -2.6411   -7.5347 C.ar      1 <0>        -0.1168
     22 C16        -7.0275   -3.6421   -6.6274 C.ar      1 <0>        -0.1174
     23 C17        -6.6019   -3.5391   -5.3185 C.ar      1 <0>        -0.1089
     24 H1          1.1704    1.4463   -0.3492 H         1 <0>         0.0901
     25 H2         -0.4511    1.5976   -1.0676 H         1 <0>         0.0728
     26 H3         -0.2299    1.8182    0.6848 H         1 <0>         0.0714
     27 H4          1.3529   -1.2830    1.0097 H         1 <0>         0.0716
     28 H5          0.6975   -2.0382   -0.4629 H         1 <0>         0.0873
     29 H6          1.8247   -0.6667   -0.5921 H         1 <0>         0.0840
     30 H7         -4.8161   -2.4783    1.2069 H         1 <0>         0.1221
     31 H8         -4.0769   -0.9025    0.8345 H         1 <0>         0.1262
     32 H9         -3.7299   -0.2043   -1.4627 H         1 <0>         0.1375
     33 H10        -4.4796   -0.3942   -3.7982 H         1 <0>         0.1269
     34 H11        -6.2764   -4.1778   -2.8968 H         1 <0>         0.1296
     35 H12        -5.5096   -3.9765   -0.5678 H         1 <0>         0.1327
     36 H13        -5.0258   -0.5439   -5.5155 H         1 <0>         0.1248
     37 H14        -5.7829   -0.7503   -7.8472 H         1 <0>         0.1251
     38 H15        -7.0618   -2.7279   -8.5590 H         1 <0>         0.1239
     39 H16        -7.5895   -4.5080   -6.9449 H         1 <0>         0.1256
     40 H17        -6.8304   -4.3233   -4.6120 H         1 <0>         0.1262
@<TRIPOS>BOND
     1    1    2 1
     2    1   24 1
     3    1   25 1
     4    1   26 1
     5    2    3 1
     6    2    4 am
     7    3   27 1
     8    3   28 1
     9    3   29 1
    10    4    5 2
    11    4    6 am
    12    6   10 1
    13    6    7 1
    14    7    8 2
    15    7   11 1
    16    8    9 1
    17    9   10 2
    18   11   12 1
    19   11   30 1
    20   11   31 1
    21   12   17 ar
    22   12   13 ar
    23   13   14 ar
    24   13   32 1
    25   14   15 ar
    26   14   33 1
    27   15   16 ar
    28   15   18 1
    29   16   17 ar
    30   16   34 1
    31   17   35 1
    32   18   23 ar
    33   18   19 ar
    34   19   20 ar
    35   19   36 1
    36   20   21 ar
    37   20   37 1
    38   21   22 ar
    39   21   38 1
    40   22   23 ar
    41   22   39 1
    42   23   40 1
@<TRIPOS>MOLECULE
ZINC27647183
   48    51     0     0     0
SMALL
USER_CHARGES
N-phenyl-4-(2-quinolylmethyl)piperazine-1-carboxamide
@<TRIPOS>ATOM
      1 C1          1.0470    6.1920    0.2441 C.ar      1 <0>        -0.1403
      2 C2          2.2387    5.5210    0.0396 C.ar      1 <0>        -0.0992
      3 C3          2.2492    4.1434   -0.0585 C.ar      1 <0>        -0.1519
      4 C4          1.0614    3.4321    0.0485 C.ar      1 <0>         0.1712
      5 C5         -0.1344    4.1093    0.2481 C.ar      1 <0>        -0.1245
      6 C6         -0.1375    5.4866    0.3511 C.ar      1 <0>        -0.0988
      7 N1          1.0686    2.0361   -0.0504 N.am      1 <0>        -0.7001
      8 C7          0.0170    1.3938   -0.5963 C.2       1 <0>         0.7097
      9 O1         -0.8741    2.0282   -1.1272 O.2       1 <0>        -0.5725
     10 N2         -0.0495    0.0485   -0.5489 N.am      1 <0>        -0.6271
     11 C8         -1.2465   -0.6652   -1.0191 C.3       1 <0>         0.1329
     12 C9         -0.8009   -1.7554   -2.0065 C.3       1 <0>         0.0371
     13 N3          0.2153   -2.6020   -1.3672 N.3       1 <0>        -0.5240
     14 C10         1.4226   -1.8314   -1.0412 C.3       1 <0>         0.0404
     15 C11         1.0705   -0.7445   -0.0199 C.3       1 <0>         0.1159
     16 C12         0.5416   -3.7602   -2.2100 C.3       1 <0>         0.1023
     17 C13        -0.7313   -4.3814   -2.7247 C.ar      1 <0>         0.1597
     18 C14        -1.2083   -4.0093   -3.9798 C.ar      1 <0>        -0.1714
     19 C15        -2.3574   -4.5659   -4.4647 C.ar      1 <0>        -0.0546
     20 C16        -3.0333   -5.5018   -3.6592 C.ar      1 <0>        -0.1033
     21 C17        -4.2236   -6.1111   -4.0881 C.ar      1 <0>        -0.0975
     22 C18        -4.8477   -7.0114   -3.2798 C.ar      1 <0>        -0.1140
     23 C19        -4.3209   -7.3369   -2.0313 C.ar      1 <0>        -0.1000
     24 C20        -3.1696   -6.7656   -1.5844 C.ar      1 <0>        -0.0911
     25 C21        -2.4958   -5.8312   -2.3904 C.ar      1 <0>         0.1284
     26 N4         -1.3632   -5.2536   -1.9775 N.ar      1 <0>        -0.4511
     27 H1          1.0414    7.2693    0.3201 H         1 <0>         0.1225
     28 H2          3.1623    6.0747   -0.0431 H         1 <0>         0.1253
     29 H3          3.1802    3.6199   -0.2186 H         1 <0>         0.1231
     30 H4         -1.0605    3.5592    0.3270 H         1 <0>         0.1329
     31 H5         -1.0666    6.0135    0.5104 H         1 <0>         0.1245
     32 H6          1.9325    1.4631    0.3174 H         1 <0>         0.4250
     33 H7         -1.7622   -1.1211   -0.1611 H         1 <0>         0.0765
     34 H8         -1.9230    0.0434   -1.5193 H         1 <0>         0.0999
     35 H9         -1.6680   -2.3703   -2.2896 H         1 <0>         0.0888
     36 H10        -0.3761   -1.2846   -2.9054 H         1 <0>         0.0426
     37 H11         2.1828   -2.5033   -0.6161 H         1 <0>         0.0952
     38 H12         1.8169   -1.3634   -1.9553 H         1 <0>         0.0431
     39 H13         1.9384   -0.0890    0.1447 H         1 <0>         0.0807
     40 H14         0.7744   -1.2070    0.9332 H         1 <0>         0.0846
     41 H15         1.1595   -3.4332   -3.0592 H         1 <0>         0.0556
     42 H16         1.0971   -4.5010   -1.6161 H         1 <0>         0.1008
     43 H17        -0.6677   -3.2845   -4.5704 H         1 <0>         0.1344
     44 H18        -2.7394   -4.2921   -5.4371 H         1 <0>         0.1406
     45 H19        -4.6413   -5.8672   -5.0537 H         1 <0>         0.1306
     46 H20        -5.7633   -7.4793   -3.6102 H         1 <0>         0.1290
     47 H21        -4.8349   -8.0538   -1.4083 H         1 <0>         0.1314
     48 H22        -2.7751   -7.0288   -0.6141 H         1 <0>         0.1367
@<TRIPOS>BOND
     1    1    6 ar
     2    1    2 ar
     3    1   27 1
     4    2    3 ar
     5    2   28 1
     6    3    4 ar
     7    3   29 1
     8    4    5 ar
     9    4    7 1
    10    5    6 ar
    11    5   30 1
    12    6   31 1
    13    7    8 am
    14    7   32 1
    15    8    9 2
    16    8   10 am
    17   10   15 1
    18   10   11 1
    19   11   12 1
    20   11   33 1
    21   11   34 1
    22   12   13 1
    23   12   35 1
    24   12   36 1
    25   13   14 1
    26   13   16 1
    27   14   15 1
    28   14   37 1
    29   14   38 1
    30   15   39 1
    31   15   40 1
    32   16   17 1
    33   16   41 1
    34   16   42 1
    35   17   26 ar
    36   17   18 ar
    37   18   19 ar
    38   18   43 1
    39   19   20 ar
    40   19   44 1
    41   20   25 ar
    42   20   21 ar
    43   21   22 ar
    44   21   45 1
    45   22   23 ar
    46   22   46 1
    47   23   24 ar
    48   23   47 1
    49   24   25 ar
    50   24   48 1
    51   25   26 ar
@<TRIPOS>MOLECULE
ZINC27647183
   49    52     0     0     0
SMALL
USER_CHARGES
N-phenyl-4-(2-quinolylmethyl)piperazine-1-carboxamide
@<TRIPOS>ATOM
      1 C1          1.0470    6.1920    0.2441 C.ar      1 <0>        -0.1282
      2 C2          2.2387    5.5210    0.0396 C.ar      1 <0>        -0.0974
      3 C3          2.2492    4.1434   -0.0585 C.ar      1 <0>        -0.1444
      4 C4          1.0614    3.4321    0.0485 C.ar      1 <0>         0.1531
      5 C5         -0.1344    4.1093    0.2481 C.ar      1 <0>        -0.1215
      6 C6         -0.1375    5.4866    0.3511 C.ar      1 <0>        -0.0975
      7 N1          1.0686    2.0361   -0.0504 N.am      1 <0>        -0.6907
      8 C7          0.0170    1.3938   -0.5963 C.2       1 <0>         0.7125
      9 O1         -0.8741    2.0282   -1.1272 O.2       1 <0>        -0.5500
     10 N2         -0.0495    0.0485   -0.5489 N.am      1 <0>        -0.6434
     11 C8         -1.2465   -0.6652   -1.0191 C.3       1 <0>         0.1069
     12 C9         -0.8009   -1.7554   -2.0065 C.3       1 <0>        -0.0222
     13 N3          0.2153   -2.6020   -1.3672 N.4       1 <0>        -0.3957
     14 C10         1.4226   -1.8314   -1.0412 C.3       1 <0>        -0.0166
     15 C11         1.0705   -0.7445   -0.0199 C.3       1 <0>         0.0858
     16 C12         0.5416   -3.7602   -2.2100 C.3       1 <0>         0.0579
     17 C13        -0.7313   -4.3814   -2.7247 C.ar      1 <0>         0.0889
     18 C14        -1.2083   -4.0093   -3.9798 C.ar      1 <0>        -0.1740
     19 C15        -2.3574   -4.5659   -4.4647 C.ar      1 <0>        -0.0360
     20 C16        -3.0333   -5.5018   -3.6592 C.ar      1 <0>        -0.0837
     21 C17        -4.2236   -6.1111   -4.0881 C.ar      1 <0>        -0.1011
     22 C18        -4.8477   -7.0114   -3.2798 C.ar      1 <0>        -0.0915
     23 C19        -4.3209   -7.3369   -2.0313 C.ar      1 <0>        -0.0866
     24 C20        -3.1696   -6.7656   -1.5844 C.ar      1 <0>        -0.0914
     25 C21        -2.4958   -5.8312   -2.3904 C.ar      1 <0>         0.1250
     26 N4         -1.3632   -5.2536   -1.9775 N.ar      1 <0>        -0.4448
     27 H1          1.0414    7.2693    0.3201 H         1 <0>         0.1279
     28 H2          3.1623    6.0747   -0.0431 H         1 <0>         0.1301
     29 H3          3.1802    3.6199   -0.2186 H         1 <0>         0.1246
     30 H4         -1.0605    3.5592    0.3270 H         1 <0>         0.1315
     31 H5         -1.0666    6.0135    0.5104 H         1 <0>         0.1287
     32 H6          1.9325    1.4631    0.3174 H         1 <0>         0.4240
     33 H7         -1.7622   -1.1211   -0.1611 H         1 <0>         0.0962
     34 H8         -1.9230    0.0434   -1.5193 H         1 <0>         0.1399
     35 H9         -1.6680   -2.3703   -2.2896 H         1 <0>         0.1404
     36 H10        -0.3761   -1.2846   -2.9054 H         1 <0>         0.1346
     37 H11         2.1828   -2.5033   -0.6161 H         1 <0>         0.1497
     38 H12         1.8169   -1.3634   -1.9553 H         1 <0>         0.1342
     39 H13         1.9384   -0.0890    0.1447 H         1 <0>         0.1217
     40 H14         0.7744   -1.2070    0.9332 H         1 <0>         0.1035
     41 H15         1.1595   -3.4332   -3.0592 H         1 <0>         0.1433
     42 H16         1.0971   -4.5010   -1.6161 H         1 <0>         0.1503
     43 H17        -0.6677   -3.2845   -4.5704 H         1 <0>         0.1435
     44 H18        -2.7394   -4.2921   -5.4371 H         1 <0>         0.1518
     45 H19        -4.6413   -5.8672   -5.0537 H         1 <0>         0.1405
     46 H20        -5.7633   -7.4793   -3.6102 H         1 <0>         0.1396
     47 H21        -4.8349   -8.0538   -1.4083 H         1 <0>         0.1412
     48 H22        -2.7751   -7.0288   -0.6141 H         1 <0>         0.1424
     49 H23        -0.2072   -2.9768   -0.4232 H         1 <0>         0.4468
@<TRIPOS>BOND
     1    1    6 ar
     2    1    2 ar
     3    1   27 1
     4    2    3 ar
     5    2   28 1
     6    3    4 ar
     7    3   29 1
     8    4    5 ar
     9    4    7 1
    10    5    6 ar
    11    5   30 1
    12    6   31 1
    13    7    8 am
    14    7   32 1
    15    8    9 2
    16    8   10 am
    17   10   15 1
    18   10   11 1
    19   11   12 1
    20   11   33 1
    21   11   34 1
    22   12   13 1
    23   12   35 1
    24   12   36 1
    25   13   14 1
    26   13   16 1
    27   13   49 1
    28   14   15 1
    29   14   37 1
    30   14   38 1
    31   15   39 1
    32   15   40 1
    33   16   17 1
    34   16   41 1
    35   16   42 1
    36   17   26 ar
    37   17   18 ar
    38   18   19 ar
    39   18   43 1
    40   19   20 ar
    41   19   44 1
    42   20   25 ar
    43   20   21 ar
    44   21   22 ar
    45   21   45 1
    46   22   23 ar
    47   22   46 1
    48   23   24 ar
    49   23   47 1
    50   24   25 ar
    51   24   48 1
    52   25   26 ar
@<TRIPOS>MOLECULE
ZINC27647183
   49    52     0     0     0
SMALL
USER_CHARGES
N-phenyl-4-(2-quinolylmethyl)piperazine-1-carboxamide
@<TRIPOS>ATOM
      1 C1          1.0470    6.1920    0.2441 C.ar      1 <0>        -0.1341
      2 C2          2.2387    5.5210    0.0396 C.ar      1 <0>        -0.0979
      3 C3          2.2492    4.1434   -0.0585 C.ar      1 <0>        -0.1486
      4 C4          1.0614    3.4321    0.0485 C.ar      1 <0>         0.1621
      5 C5         -0.1344    4.1093    0.2481 C.ar      1 <0>        -0.1234
      6 C6         -0.1375    5.4866    0.3511 C.ar      1 <0>        -0.0983
      7 N1          1.0686    2.0361   -0.0504 N.am      1 <0>        -0.6963
      8 C7          0.0170    1.3938   -0.5963 C.2       1 <0>         0.7103
      9 O1         -0.8741    2.0282   -1.1272 O.2       1 <0>        -0.5661
     10 N2         -0.0495    0.0485   -0.5489 N.am      1 <0>        -0.6325
     11 C8         -1.2465   -0.6652   -1.0191 C.3       1 <0>         0.1332
     12 C9         -0.8009   -1.7554   -2.0065 C.3       1 <0>         0.0261
     13 N3          0.2153   -2.6020   -1.3672 N.3       1 <0>        -0.5301
     14 C10         1.4226   -1.8314   -1.0412 C.3       1 <0>         0.0390
     15 C11         1.0705   -0.7445   -0.0199 C.3       1 <0>         0.1141
     16 C12         0.5416   -3.7602   -2.2100 C.3       1 <0>         0.0565
     17 C13        -0.7313   -4.3814   -2.7247 C.ar      1 <0>         0.2436
     18 C14        -1.2083   -4.0093   -3.9798 C.ar      1 <0>        -0.1730
     19 C15        -2.3574   -4.5659   -4.4647 C.ar      1 <0>         0.0468
     20 C16        -3.0333   -5.5018   -3.6592 C.ar      1 <0>        -0.0864
     21 C17        -4.2236   -6.1111   -4.0881 C.ar      1 <0>        -0.0646
     22 C18        -4.8477   -7.0114   -3.2798 C.ar      1 <0>        -0.0963
     23 C19        -4.3209   -7.3369   -2.0313 C.ar      1 <0>        -0.0329
     24 C20        -3.1696   -6.7656   -1.5844 C.ar      1 <0>        -0.1410
     25 C21        -2.4958   -5.8312   -2.3904 C.ar      1 <0>         0.1403
     26 N4         -1.3632   -5.2536   -1.9775 N.ar      1 <0>        -0.4611
     27 H1          1.0414    7.2693    0.3201 H         1 <0>         0.1255
     28 H2          3.1623    6.0747   -0.0431 H         1 <0>         0.1280
     29 H3          3.1802    3.6199   -0.2186 H         1 <0>         0.1236
     30 H4         -1.0605    3.5592    0.3270 H         1 <0>         0.1315
     31 H5         -1.0666    6.0135    0.5104 H         1 <0>         0.1265
     32 H6          1.9325    1.4631    0.3174 H         1 <0>         0.4245
     33 H7         -1.7622   -1.1211   -0.1611 H         1 <0>         0.0769
     34 H8         -1.9230    0.0434   -1.5193 H         1 <0>         0.1073
     35 H9         -1.6680   -2.3703   -2.2896 H         1 <0>         0.0812
     36 H10        -0.3761   -1.2846   -2.9054 H         1 <0>         0.0586
     37 H11         2.1828   -2.5033   -0.6161 H         1 <0>         0.1031
     38 H12         1.8169   -1.3634   -1.9553 H         1 <0>         0.0562
     39 H13         1.9384   -0.0890    0.1447 H         1 <0>         0.0897
     40 H14         0.7744   -1.2070    0.9332 H         1 <0>         0.0865
     41 H15         1.1595   -3.4332   -3.0592 H         1 <0>         0.0986
     42 H16         1.0971   -4.5010   -1.6161 H         1 <0>         0.1213
     43 H17        -0.6677   -3.2845   -4.5704 H         1 <0>         0.1808
     44 H18        -2.7394   -4.2921   -5.4371 H         1 <0>         0.1792
     45 H19        -4.6413   -5.8672   -5.0537 H         1 <0>         0.1599
     46 H20        -5.7633   -7.4793   -3.6102 H         1 <0>         0.1545
     47 H21        -4.8349   -8.0538   -1.4083 H         1 <0>         0.1566
     48 H22        -2.7751   -7.0288   -0.6141 H         1 <0>         0.1568
     49 H23        -0.9629   -5.5234   -0.9891 H         1 <0>         0.4839
@<TRIPOS>BOND
     1    1    6 ar
     2    1    2 ar
     3    1   27 1
     4    2    3 ar
     5    2   28 1
     6    3    4 ar
     7    3   29 1
     8    4    5 ar
     9    4    7 1
    10    5    6 ar
    11    5   30 1
    12    6   31 1
    13    7    8 am
    14    7   32 1
    15    8    9 2
    16    8   10 am
    17   10   15 1
    18   10   11 1
    19   11   12 1
    20   11   33 1
    21   11   34 1
    22   12   13 1
    23   12   35 1
    24   12   36 1
    25   13   14 1
    26   13   16 1
    27   14   15 1
    28   14   37 1
    29   14   38 1
    30   15   39 1
    31   15   40 1
    32   16   17 1
    33   16   41 1
    34   16   42 1
    35   17   26 ar
    36   17   18 ar
    37   18   19 ar
    38   18   43 1
    39   19   20 ar
    40   19   44 1
    41   20   25 ar
    42   20   21 ar
    43   21   22 ar
    44   21   45 1
    45   22   23 ar
    46   22   46 1
    47   23   24 ar
    48   23   47 1
    49   24   25 ar
    50   24   48 1
    51   25   26 ar
    52   26   49 1
@<TRIPOS>MOLECULE
ZINC27647189
   49    52     0     0     0
SMALL
USER_CHARGES
N-phenyl-4-(3-quinolylmethyl)piperidine-1-carboxamide
@<TRIPOS>ATOM
      1 C1         -8.4529    3.9277    1.2472 C.ar      1 <0>        -0.1405
      2 C2         -7.7947    3.6921    2.4402 C.ar      1 <0>        -0.0990
      3 C3         -6.5320    3.1326    2.4352 C.ar      1 <0>        -0.1520
      4 C4         -5.9234    2.8065    1.2303 C.ar      1 <0>         0.1711
      5 C5         -6.5849    3.0492    0.0337 C.ar      1 <0>        -0.1248
      6 C6         -7.8496    3.6042    0.0457 C.ar      1 <0>        -0.0989
      7 N1         -4.6439    2.2399    1.2218 N.am      1 <0>        -0.7007
      8 C7         -3.7945    2.5088    0.2105 C.2       1 <0>         0.7093
      9 O1         -4.0844    3.3482   -0.6199 O.2       1 <0>        -0.5727
     10 N2         -2.6238    1.8473    0.1198 N.am      1 <0>        -0.6243
     11 C8         -1.7421    2.0414   -1.0394 C.3       1 <0>         0.1255
     12 C9         -0.3457    2.4229   -0.5383 C.3       1 <0>        -0.1306
     13 C10         0.1432    1.3643    0.4528 C.3       1 <0>        -0.0803
     14 C11        -0.8037    1.3122    1.6540 C.3       1 <0>        -0.1345
     15 C12        -2.2051    0.9179    1.1780 C.3       1 <0>         0.1118
     16 C13         1.5518    1.7241    0.9295 C.3       1 <0>        -0.0742
     17 C14         2.0820    0.6207    1.8083 C.ar      1 <0>        -0.1337
     18 C15         2.7807   -0.4160    1.2576 C.ar      1 <0>        -0.0571
     19 C16         3.2575   -1.4250    2.1150 C.ar      1 <0>        -0.0985
     20 C17         3.9825   -2.5218    1.6215 C.ar      1 <0>        -0.0990
     21 C18         4.4273   -3.4770    2.4834 C.ar      1 <0>        -0.1140
     22 C19         4.1718   -3.3819    3.8501 C.ar      1 <0>        -0.1019
     23 C20         3.4717   -2.3335    4.3624 C.ar      1 <0>        -0.0927
     24 C21         2.9961   -1.3263    3.5043 C.ar      1 <0>         0.1209
     25 N3          2.3053   -0.2852    3.9787 N.ar      1 <0>        -0.4709
     26 C22         1.8649    0.6598    3.1837 C.ar      1 <0>         0.1357
     27 H1         -9.4401    4.3657    1.2537 H         1 <0>         0.1224
     28 H2         -8.2687    3.9456    3.3770 H         1 <0>         0.1253
     29 H3         -6.0183    2.9491    3.3674 H         1 <0>         0.1231
     30 H4         -6.1124    2.8009   -0.9052 H         1 <0>         0.1327
     31 H5         -8.3662    3.7894   -0.8845 H         1 <0>         0.1244
     32 H6         -4.3314    1.5750    2.0405 H         1 <0>         0.4250
     33 H7         -1.6882    1.1083   -1.6194 H         1 <0>         0.0678
     34 H8         -2.1429    2.8452   -1.6745 H         1 <0>         0.0977
     35 H9          0.3475    2.4772   -1.3906 H         1 <0>         0.0800
     36 H10        -0.3901    3.4020   -0.0389 H         1 <0>         0.0713
     37 H11         0.1628    0.3816   -0.0412 H         1 <0>         0.0759
     38 H12        -0.4379    0.5685    2.3772 H         1 <0>         0.0792
     39 H13        -0.8427    2.3015    2.1334 H         1 <0>         0.0726
     40 H14        -2.9138    0.9746    2.0173 H         1 <0>         0.0759
     41 H15        -2.1892   -0.1075    0.7802 H         1 <0>         0.0736
     42 H16         2.2127    1.8491    0.0591 H         1 <0>         0.0798
     43 H17         1.5167    2.6632    1.5011 H         1 <0>         0.0797
     44 H18         2.9624   -0.4599    0.1939 H         1 <0>         0.1378
     45 H19         4.1871   -2.6063    0.5644 H         1 <0>         0.1301
     46 H20         4.9851   -4.3200    2.1030 H         1 <0>         0.1286
     47 H21         4.5350   -4.1530    4.5134 H         1 <0>         0.1308
     48 H22         3.2819   -2.2755    5.4240 H         1 <0>         0.1355
     49 H23         1.3150    1.4880    3.6057 H         1 <0>         0.1566
@<TRIPOS>BOND
     1    1    6 ar
     2    1    2 ar
     3    1   27 1
     4    2    3 ar
     5    2   28 1
     6    3    4 ar
     7    3   29 1
     8    4    5 ar
     9    4    7 1
    10    5    6 ar
    11    5   30 1
    12    6   31 1
    13    7    8 am
    14    7   32 1
    15    8    9 2
    16    8   10 am
    17   10   15 1
    18   10   11 1
    19   11   12 1
    20   11   33 1
    21   11   34 1
    22   12   13 1
    23   12   35 1
    24   12   36 1
    25   13   14 1
    26   13   16 1
    27   13   37 1
    28   14   15 1
    29   14   38 1
    30   14   39 1
    31   15   40 1
    32   15   41 1
    33   16   17 1
    34   16   42 1
    35   16   43 1
    36   17   26 ar
    37   17   18 ar
    38   18   19 ar
    39   18   44 1
    40   19   24 ar
    41   19   20 ar
    42   20   21 ar
    43   20   45 1
    44   21   22 ar
    45   21   46 1
    46   22   23 ar
    47   22   47 1
    48   23   24 ar
    49   23   48 1
    50   24   25 ar
    51   25   26 ar
    52   26   49 1
@<TRIPOS>MOLECULE
ZINC27645447
   62    62     0     0     0
SMALL
USER_CHARGES
1-[(5Z,8Z,11Z,14Z)-icosa-5,8,11,14-tetraenyl]pyrrole-2,5-dione
@<TRIPOS>ATOM
      1 C1         16.7756   -7.7089   -3.5979 C.3       1 <0>        -0.1556
      2 C2         15.4043   -7.9716   -2.9723 C.3       1 <0>        -0.1265
      3 C3         14.3322   -7.9446   -4.0635 C.3       1 <0>        -0.1219
      4 C4         12.9609   -8.2074   -3.4379 C.3       1 <0>        -0.1149
      5 C5         11.8889   -8.1804   -4.5292 C.3       1 <0>        -0.1031
      6 C6         10.5382   -8.4392   -3.9130 C.2       1 <0>        -0.1600
      7 C7          9.5460   -7.6144   -4.1395 C.2       1 <0>        -0.1550
      8 C8          9.7054   -6.5015   -5.1431 C.3       1 <0>        -0.0842
      9 C9          8.5848   -6.5675   -6.1485 C.2       1 <0>        -0.1528
     10 C10         7.8496   -5.5083   -6.3804 C.2       1 <0>        -0.1541
     11 C11         8.2302   -4.1803   -5.7780 C.3       1 <0>        -0.0845
     12 C12         8.3113   -3.1402   -6.8655 C.2       1 <0>        -0.1530
     13 C13         7.6308   -2.0260   -6.7582 C.2       1 <0>        -0.1537
     14 C14         6.8988   -1.7103   -5.4793 C.3       1 <0>        -0.0849
     15 C15         7.2934   -0.3369   -5.0006 C.2       1 <0>        -0.1520
     16 C16         6.3711    0.5574   -4.7442 C.2       1 <0>        -0.1614
     17 C17         4.9157    0.1672   -4.7684 C.3       1 <0>        -0.1014
     18 C18         4.2506    0.5968   -3.4592 C.3       1 <0>        -0.1102
     19 C19         2.7730    0.2006   -3.4838 C.3       1 <0>        -0.1379
     20 C20         2.1080    0.6302   -2.1746 C.3       1 <0>         0.1116
     21 N1          0.6931    0.2509   -2.1982 N.am      1 <0>        -0.5877
     22 C21        -0.3088    1.0212   -2.6589 C.2       1 <0>         0.5461
     23 O1         -0.1913    2.1379   -3.1206 O.2       1 <0>        -0.4536
     24 C22        -1.5783    0.2762   -2.5083 C.2       1 <0>        -0.1549
     25 C23        -1.2691   -0.9108   -1.9611 C.2       1 <0>        -0.1550
     26 C24         0.1972   -0.9215   -1.7633 C.2       1 <0>         0.5461
     27 O2          0.8431   -1.8336   -1.2893 O.2       1 <0>        -0.4534
     28 H1         17.5463   -7.7283   -2.8133 H         1 <0>         0.0539
     29 H2         16.7734   -6.7228   -4.0854 H         1 <0>         0.0537
     30 H3         16.9929   -8.4867   -4.3448 H         1 <0>         0.0538
     31 H4         15.4065   -8.9577   -2.4848 H         1 <0>         0.0609
     32 H5         15.1869   -7.1938   -2.2254 H         1 <0>         0.0608
     33 H6         14.3299   -6.9585   -4.5509 H         1 <0>         0.0612
     34 H7         14.5496   -8.7223   -4.8104 H         1 <0>         0.0616
     35 H8         12.9632   -9.1935   -2.9504 H         1 <0>         0.0619
     36 H9         12.7435   -7.4297   -2.6910 H         1 <0>         0.0622
     37 H10        11.8867   -7.1943   -5.0167 H         1 <0>         0.0763
     38 H11        12.1063   -8.9581   -5.2761 H         1 <0>         0.0689
     39 H12        10.3855   -9.3207   -3.2730 H         1 <0>         0.1105
     40 H13         8.5965   -7.7341   -3.5972 H         1 <0>         0.1102
     41 H14         9.6754   -5.5323   -4.6237 H         1 <0>         0.0833
     42 H15        10.6697   -6.6102   -5.6611 H         1 <0>         0.0845
     43 H16         8.3842   -7.5051   -6.6877 H         1 <0>         0.1114
     44 H17         6.9545   -5.5882   -7.0148 H         1 <0>         0.1114
     45 H18         7.4709   -3.8812   -5.0404 H         1 <0>         0.0839
     46 H19         9.2080   -4.2693   -5.2821 H         1 <0>         0.0841
     47 H20         8.9419   -3.3166   -7.7494 H         1 <0>         0.1116
     48 H21         7.5937   -1.3208   -7.6016 H         1 <0>         0.1114
     49 H22         5.8143   -1.7377   -5.6612 H         1 <0>         0.0841
     50 H23         7.1610   -2.4550   -4.7133 H         1 <0>         0.0841
     51 H24         8.3558   -0.0853   -4.8665 H         1 <0>         0.1111
     52 H25         6.6590    1.5932   -4.5112 H         1 <0>         0.1120
     53 H26         4.4168    0.6643   -5.6134 H         1 <0>         0.0706
     54 H27         4.8303   -0.9235   -4.8823 H         1 <0>         0.0776
     55 H28         4.7495    0.0998   -2.6142 H         1 <0>         0.0686
     56 H29         4.3359    1.6876   -3.3453 H         1 <0>         0.0684
     57 H30         2.2741    0.6977   -4.3288 H         1 <0>         0.0706
     58 H31         2.6877   -0.8901   -3.5978 H         1 <0>         0.0702
     59 H32         2.6069    0.1331   -1.3296 H         1 <0>         0.0977
     60 H33         2.1934    1.7209   -2.0606 H         1 <0>         0.0977
     61 H34        -2.6248    0.5153   -2.7482 H         1 <0>         0.1889
     62 H35        -2.0624   -1.6438   -1.7529 H         1 <0>         0.1889
@<TRIPOS>BOND
     1    1    2 1
     2    1   28 1
     3    1   29 1
     4    1   30 1
     5    2    3 1
     6    2   31 1
     7    2   32 1
     8    3    4 1
     9    3   33 1
    10    3   34 1
    11    4    5 1
    12    4   35 1
    13    4   36 1
    14    5    6 1
    15    5   37 1
    16    5   38 1
    17    6    7 2
    18    6   39 1
    19    7    8 1
    20    7   40 1
    21    8    9 1
    22    8   41 1
    23    8   42 1
    24    9   10 2
    25    9   43 1
    26   10   11 1
    27   10   44 1
    28   11   12 1
    29   11   45 1
    30   11   46 1
    31   12   13 2
    32   12   47 1
    33   13   14 1
    34   13   48 1
    35   14   15 1
    36   14   49 1
    37   14   50 1
    38   15   16 2
    39   15   51 1
    40   16   17 1
    41   16   52 1
    42   17   18 1
    43   17   53 1
    44   17   54 1
    45   18   19 1
    46   18   55 1
    47   18   56 1
    48   19   20 1
    49   19   57 1
    50   19   58 1
    51   20   21 1
    52   20   59 1
    53   20   60 1
    54   21   26 am
    55   21   22 am
    56   22   23 2
    57   22   24 1
    58   24   25 2
    59   24   61 1
    60   25   26 1
    61   25   62 1
    62   26   27 2
@<TRIPOS>MOLECULE
ZINC01677060
   30    31     0     0     0
SMALL
USER_CHARGES
1-[4-(2,5-dioxopyrrol-1-yl)butyl]pyrrole-2,5-dione
@<TRIPOS>ATOM
      1 C1          1.3393    0.9668   -4.2410 C.2       1 <0>        -0.1404
      2 C2          0.5788   -0.1403   -4.2397 C.2       1 <0>        -0.1404
      3 C3         -0.3263   -0.0359   -3.0738 C.2       1 <0>         0.5392
      4 O1         -1.1610   -0.8547   -2.7473 O.2       1 <0>        -0.4522
      5 N1         -0.0670    1.1202   -2.4368 N.am      1 <0>        -0.5903
      6 C4          0.9144    1.7788   -3.0793 C.2       1 <0>         0.5392
      7 O2          1.3749    2.8554   -2.7589 O.2       1 <0>        -0.4522
      8 C5         -0.7527    1.5927   -1.2315 C.3       1 <0>         0.1150
      9 C6         -0.0127    1.0858    0.0080 C.3       1 <0>        -0.1330
     10 C7         -0.7288    1.5792    1.2668 C.3       1 <0>        -0.1330
     11 C8          0.0111    1.0724    2.5063 C.3       1 <0>         0.1149
     12 N2         -0.6746    1.5449    3.7117 N.am      1 <0>        -0.5902
     13 C9         -0.4113    2.6982    4.3520 C.2       1 <0>         0.5392
     14 O3          0.4280    3.5139    4.0293 O.2       1 <0>        -0.4523
     15 C10        -1.3203    2.8054    5.5145 C.2       1 <0>        -0.1404
     16 C11        -2.0809    1.6982    5.5158 C.2       1 <0>        -0.1404
     17 C12        -1.6599    0.8890    4.3508 C.2       1 <0>         0.5392
     18 O4         -2.1251   -0.1845    4.0266 O.2       1 <0>        -0.4522
     19 H1          2.1101    1.2178   -4.9547 H         1 <0>         0.1845
     20 H2          0.6204   -0.9510   -4.9521 H         1 <0>         0.1845
     21 H3         -1.7753    1.2154   -1.2238 H         1 <0>         0.0974
     22 H4         -0.7675    2.6825   -1.2255 H         1 <0>         0.0975
     23 H5          0.0021   -0.0041    0.0020 H         1 <0>         0.0756
     24 H6          1.0099    1.4631    0.0003 H         1 <0>         0.0756
     25 H7         -0.7436    2.6691    1.2728 H         1 <0>         0.0756
     26 H8         -1.7514    1.2020    1.2746 H         1 <0>         0.0756
     27 H9          0.0259   -0.0175    2.5003 H         1 <0>         0.0974
     28 H10         1.0337    1.4497    2.4986 H         1 <0>         0.0975
     29 H11        -1.3619    3.6160    6.2269 H         1 <0>         0.1845
     30 H12        -2.8517    1.4473    6.2295 H         1 <0>         0.1845
@<TRIPOS>BOND
     1    1    6 1
     2    1    2 2
     3    1   19 1
     4    2    3 1
     5    2   20 1
     6    3    4 2
     7    3    5 am
     8    5    6 am
     9    5    8 1
    10    6    7 2
    11    8    9 1
    12    8   21 1
    13    8   22 1
    14    9   10 1
    15    9   23 1
    16    9   24 1
    17   10   11 1
    18   10   25 1
    19   10   26 1
    20   11   12 1
    21   11   27 1
    22   11   28 1
    23   12   17 am
    24   12   13 am
    25   13   14 2
    26   13   15 1
    27   15   16 2
    28   15   29 1
    29   16   17 1
    30   16   30 1
    31   17   18 2
@<TRIPOS>MOLECULE
ZINC00186459
   30    32     0     0     0
SMALL
USER_CHARGES
1-(4-phenylphenyl)pyrrole-2,5-dione
@<TRIPOS>ATOM
      1 C1          1.1321    6.3384    0.0235 C.ar      1 <0>        -0.1175
      2 C2          2.3394    5.6635    0.0092 C.ar      1 <0>        -0.1170
      3 C3          2.3615    4.2835    0.0020 C.ar      1 <0>        -0.1103
      4 C4          1.1643    3.5701    0.0096 C.ar      1 <0>        -0.0472
      5 C5         -0.0491    4.2554    0.0187 C.ar      1 <0>        -0.1103
      6 C6         -0.0592    5.6354    0.0307 C.ar      1 <0>        -0.1169
      7 C7          1.1816    2.0867    0.0020 C.ar      1 <0>        -0.0505
      8 C8         -0.0166    1.3746    0.0096 C.ar      1 <0>        -0.0889
      9 C9          0.0021   -0.0041    0.0020 C.ar      1 <0>        -0.1348
     10 C10         1.2139   -0.6835   -0.0137 C.ar      1 <0>         0.1283
     11 C11         2.4095    0.0241   -0.0213 C.ar      1 <0>        -0.1348
     12 C12         2.3961    1.4028   -0.0128 C.ar      1 <0>        -0.0889
     13 N1          1.2302   -2.0841   -0.0223 N.am      1 <0>        -0.5323
     14 C13         0.1402   -2.8724   -0.0107 C.2       1 <0>         0.5391
     15 O1         -1.0120   -2.4905    0.0087 O.2       1 <0>        -0.4395
     16 C14         0.5840   -4.2837   -0.0285 C.2       1 <0>        -0.1335
     17 C15         1.9274   -4.2680   -0.0416 C.2       1 <0>        -0.1334
     18 C16         2.3382   -2.8466   -0.0375 C.2       1 <0>         0.5390
     19 O2          3.4813   -2.4379   -0.0467 O.2       1 <0>        -0.4395
     20 H1          1.1195    7.4183    0.0288 H         1 <0>         0.1237
     21 H2          3.2665    6.2174    0.0034 H         1 <0>         0.1253
     22 H3          3.3047    3.7576   -0.0098 H         1 <0>         0.1259
     23 H4         -0.9798    3.7075    0.0198 H         1 <0>         0.1259
     24 H5         -0.9989    6.1675    0.0414 H         1 <0>         0.1253
     25 H6         -0.9589    1.9022    0.0169 H         1 <0>         0.1353
     26 H7         -0.9260   -0.5563    0.0079 H         1 <0>         0.1553
     27 H8          3.3503   -0.5063   -0.0335 H         1 <0>         0.1553
     28 H9          3.3258    1.9523   -0.0188 H         1 <0>         0.1353
     29 H10        -0.0499   -5.1582   -0.0279 H         1 <0>         0.1908
     30 H11         2.5815   -5.1274   -0.0523 H         1 <0>         0.1908
@<TRIPOS>BOND
     1    1    6 ar
     2    1    2 ar
     3    1   20 1
     4    2    3 ar
     5    2   21 1
     6    3    4 ar
     7    3   22 1
     8    4    5 ar
     9    4    7 1
    10    5    6 ar
    11    5   23 1
    12    6   24 1
    13    7   12 ar
    14    7    8 ar
    15    8    9 ar
    16    8   25 1
    17    9   10 ar
    18    9   26 1
    19   10   11 ar
    20   10   13 1
    21   11   12 ar
    22   11   27 1
    23   12   28 1
    24   13   18 am
    25   13   14 am
    26   14   15 2
    27   14   16 1
    28   16   17 2
    29   16   29 1
    30   17   18 1
    31   17   30 1
    32   18   19 2
@<TRIPOS>MOLECULE
ZINC00592819
   43    45     0     0     0
SMALL
USER_CHARGES
benzyl [4-(5-methoxy-2-oxo-1,3,4-oxadiazol-3-yl)-2-methyl-phenyl]aminoformate
@<TRIPOS>ATOM
      1 C1         -1.2814   -0.7754    0.0159 C.3       1 <0>        -0.1125
      2 C2          0.0103    0.0008    0.0170 C.ar      1 <0>        -0.0884
      3 C3          1.2178   -0.6684    0.0140 C.ar      1 <0>        -0.0992
      4 C4          2.4081    0.0469    0.0150 C.ar      1 <0>         0.1637
      5 C5          2.3836    1.4359    0.0191 C.ar      1 <0>        -0.1200
      6 C6          1.1764    2.1047    0.0226 C.ar      1 <0>        -0.0966
      7 C7         -0.0140    1.3891    0.0215 C.ar      1 <0>         0.1526
      8 N1         -1.2395    2.0681    0.0192 N.am      1 <0>        -0.6450
      9 C8         -1.3147    3.3210   -0.4720 C.2       1 <0>         0.6496
     10 O1         -0.3455    3.8237   -1.0053 O.2       1 <0>        -0.5484
     11 O2         -2.4640    4.0155   -0.3718 O.3       1 <0>        -0.3596
     12 C9         -2.4725    5.3589   -0.9228 C.3       1 <0>         0.1298
     13 C10        -3.8322    5.9763   -0.7201 C.ar      1 <0>        -0.1040
     14 C11        -4.8095    5.8286   -1.6865 C.ar      1 <0>        -0.0925
     15 C12        -6.0582    6.3909   -1.4984 C.ar      1 <0>        -0.1234
     16 C13        -6.3265    7.1094   -0.3483 C.ar      1 <0>        -0.1056
     17 C14        -5.3474    7.2620    0.6155 C.ar      1 <0>        -0.1233
     18 C15        -4.1003    6.6953    0.4297 C.ar      1 <0>        -0.0923
     19 N2          3.6336   -0.6321    0.0115 N.am      1 <0>        -0.3849
     20 C16         4.8632   -0.0744    0.0065 C.2       1 <0>         0.6200
     21 O3          5.1146    1.1165    0.0042 O.2       1 <0>        -0.4528
     22 O4          5.7583   -1.0770    0.0072 O.3       1 <0>        -0.2529
     23 C17         5.0972   -2.2518    0.0039 C.2       1 <0>         0.4428
     24 N3          3.8196   -2.0225    0.0063 N.2       1 <0>        -0.3079
     25 O5          5.6747   -3.4776   -0.0016 O.3       1 <0>        -0.2578
     26 C18         4.7994   -4.6071   -0.0050 C.3       1 <0>         0.0351
     27 H1         -1.5939   -0.9593   -1.0120 H         1 <0>         0.0779
     28 H2         -1.1338   -1.7271    0.5265 H         1 <0>         0.0769
     29 H3         -2.0507   -0.2014    0.5324 H         1 <0>         0.0643
     30 H4          1.2367   -1.7483    0.0112 H         1 <0>         0.1444
     31 H5          3.3092    1.9924    0.0202 H         1 <0>         0.1554
     32 H6          1.1573    3.1845    0.0258 H         1 <0>         0.1588
     33 H7         -2.0337    1.6366    0.3711 H         1 <0>         0.4181
     34 H8         -1.7197    5.9637   -0.4173 H         1 <0>         0.0844
     35 H9         -2.2483    5.3159   -1.9886 H         1 <0>         0.0842
     36 H10        -4.5985    5.2706   -2.5869 H         1 <0>         0.1254
     37 H11        -6.8230    6.2720   -2.2516 H         1 <0>         0.1269
     38 H12        -7.3009    7.5519   -0.2030 H         1 <0>         0.1258
     39 H13        -5.5569    7.8237    1.5139 H         1 <0>         0.1269
     40 H14        -3.3354    6.8145    1.1828 H         1 <0>         0.1256
     41 H15         4.1717   -4.5831    0.8859 H         1 <0>         0.0759
     42 H16         4.1696   -4.5761   -0.8941 H         1 <0>         0.0759
     43 H17         5.3891   -5.5238   -0.0093 H         1 <0>         0.1263
@<TRIPOS>BOND
     1    1    2 1
     2    1   27 1
     3    1   28 1
     4    1   29 1
     5    2    7 ar
     6    2    3 ar
     7    3    4 ar
     8    3   30 1
     9    4    5 ar
    10    4   19 1
    11    5    6 ar
    12    5   31 1
    13    6    7 ar
    14    6   32 1
    15    7    8 1
    16    8    9 am
    17    8   33 1
    18    9   10 2
    19    9   11 1
    20   11   12 1
    21   12   13 1
    22   12   34 1
    23   12   35 1
    24   13   18 ar
    25   13   14 ar
    26   14   15 ar
    27   14   36 1
    28   15   16 ar
    29   15   37 1
    30   16   17 ar
    31   16   38 1
    32   17   18 ar
    33   17   39 1
    34   18   40 1
    35   19   24 1
    36   19   20 am
    37   20   21 2
    38   20   22 1
    39   22   23 1
    40   23   24 2
    41   23   25 1
    42   25   26 1
    43   26   41 1
    44   26   42 1
    45   26   43 1
@<TRIPOS>MOLECULE
ZINC43202741
   62    67     0     0     0
SMALL
USER_CHARGES

@<TRIPOS>ATOM
      1 C1          7.5670   10.7707    3.8481 C.ar      1 <0>        -0.0372
      2 C2          7.6272    9.4738    3.3759 C.ar      1 <0>        -0.1194
      3 C3          8.5176    9.1459    2.3639 C.ar      1 <0>         0.1620
      4 C4          9.3456   10.1218    1.8286 C.ar      1 <0>        -0.1154
      5 C5          9.2816   11.4172    2.3042 C.ar      1 <0>        -0.0380
      6 C6          8.3933   11.7415    3.3129 C.ar      1 <0>        -0.0483
      7 N1          8.3268   13.1303    3.8206 N.pl3     1 <0>         0.0323
      8 O1          7.5504   13.4150    4.7026 O.2       1 <0>        -0.1524
      9 O2          9.0488   13.9800    3.3533 O.3       1 <0>        -0.1520
     10 O3          8.5790    7.8704    1.8979 O.3       1 <0>        -0.3064
     11 C7          7.6147    7.4591    1.0525 C.2       1 <0>         0.6524
     12 O4          6.7564    8.2368    0.6851 O.2       1 <0>        -0.5499
     13 N2          7.6018    6.1847    0.6138 N.am      1 <0>        -0.5848
     14 C8          8.6292    5.2311    1.0539 C.3       1 <0>         0.1075
     15 C9          9.2785    4.6007   -0.1821 C.3       1 <0>        -0.1267
     16 C10         8.1913    3.9887   -1.0685 C.3       1 <0>        -0.1069
     17 C11         7.2322    5.0867   -1.5338 C.3       1 <0>        -0.1373
     18 C12         6.5564    5.7212   -0.3087 C.3       1 <0>         0.1290
     19 C13         8.8391    3.3279   -2.2869 C.3       1 <0>         0.2392
     20 C14         9.8018    2.2630   -1.8283 C.ar      1 <0>        -0.0618
     21 C15         9.3995    1.3246   -0.8961 C.ar      1 <0>        -0.1020
     22 C16        10.2788    0.3455   -0.4727 C.ar      1 <0>        -0.0983
     23 C17        11.5666    0.3030   -0.9818 C.ar      1 <0>         0.0355
     24 C18        11.9719    1.2483   -1.9207 C.ar      1 <0>         0.0319
     25 C19        11.0835    2.2232   -2.3448 C.ar      1 <0>        -0.0713
     26 O5         13.2690    0.9954   -2.2626 O.3       1 <0>        -0.3073
     27 C20        13.7803    0.1390   -1.2241 C.3       1 <0>         0.2127
     28 O6         12.6097   -0.5423   -0.7355 O.3       1 <0>        -0.3082
     29 C21         7.7709    2.7027   -3.1466 C.ar      1 <0>        -0.1022
     30 C22         6.8326    1.8614   -2.5780 C.ar      1 <0>        -0.0985
     31 C23         5.8505    1.2859   -3.3624 C.ar      1 <0>        -0.0964
     32 C24         5.8046    1.5511   -4.7215 C.ar      1 <0>         0.0360
     33 C25         6.7498    2.3986   -5.2942 C.ar      1 <0>         0.0368
     34 C26         7.7278    2.9763   -4.5009 C.ar      1 <0>        -0.0879
     35 O7          6.4932    2.4980   -6.6312 O.3       1 <0>        -0.3071
     36 C27         5.6342    1.3849   -6.9417 C.3       1 <0>         0.2128
     37 O8          4.9559    1.1196   -5.6996 O.3       1 <0>        -0.3076
     38 O9          9.5442    4.3131   -3.0446 O.3       1 <0>        -0.5432
     39 H1          6.8708   11.0274    4.6328 H         1 <0>         0.1630
     40 H2          6.9818    8.7158    3.7945 H         1 <0>         0.1533
     41 H3         10.0399    9.8689    1.0409 H         1 <0>         0.1568
     42 H4          9.9260   12.1773    1.8877 H         1 <0>         0.1642
     43 H5          9.3866    5.7537    1.6381 H         1 <0>         0.0949
     44 H6          8.1686    4.4525    1.6619 H         1 <0>         0.0777
     45 H7          9.8156    5.3666   -0.7416 H         1 <0>         0.0796
     46 H8          9.9746    3.8220    0.1298 H         1 <0>         0.0853
     47 H9          7.6385    3.2403   -0.5007 H         1 <0>         0.0910
     48 H10         7.7885    5.8481   -2.0805 H         1 <0>         0.0744
     49 H11         6.4717    4.6541   -2.1839 H         1 <0>         0.0888
     50 H12         5.9302    4.9817    0.1905 H         1 <0>         0.0807
     51 H13         5.9457    6.5673   -0.6238 H         1 <0>         0.1013
     52 H14         8.3962    1.3567   -0.4977 H         1 <0>         0.1383
     53 H15         9.9618   -0.3863    0.2555 H         1 <0>         0.1391
     54 H16        11.3936    2.9549   -3.0761 H         1 <0>         0.1458
     55 H17        14.4957   -0.5743   -1.6335 H         1 <0>         0.1332
     56 H18        14.2384    0.7302   -0.4312 H         1 <0>         0.0863
     57 H19         6.8673    1.6530   -1.5189 H         1 <0>         0.1388
     58 H20         5.1188    0.6291   -2.9156 H         1 <0>         0.1389
     59 H21         8.4593    3.6374   -4.9416 H         1 <0>         0.1426
     60 H22         4.9192    1.6578   -7.7179 H         1 <0>         0.1344
     61 H23         6.2231    0.5206   -7.2487 H         1 <0>         0.0866
     62 H24         8.9856    5.0311   -3.3726 H         1 <0>         0.3833
@<TRIPOS>BOND
     1    1    6 ar
     2    1    2 ar
     3    1   39 1
     4    2    3 ar
     5    2   40 1
     6    3    4 ar
     7    3   10 1
     8    4    5 ar
     9    4   41 1
    10    5    6 ar
    11    5   42 1
    12    6    7 1
    13    7    8 2
    14    7    9 1
    15   10   11 1
    16   11   12 2
    17   11   13 am
    18   13   18 1
    19   13   14 1
    20   14   15 1
    21   14   43 1
    22   14   44 1
    23   15   16 1
    24   15   45 1
    25   15   46 1
    26   16   17 1
    27   16   19 1
    28   16   47 1
    29   17   18 1
    30   17   48 1
    31   17   49 1
    32   18   50 1
    33   18   51 1
    34   19   20 1
    35   19   29 1
    36   19   38 1
    37   20   25 ar
    38   20   21 ar
    39   21   22 ar
    40   21   52 1
    41   22   23 ar
    42   22   53 1
    43   23   28 1
    44   23   24 ar
    45   24   25 ar
    46   24   26 1
    47   25   54 1
    48   26   27 1
    49   27   28 1
    50   27   55 1
    51   27   56 1
    52   29   34 ar
    53   29   30 ar
    54   30   31 ar
    55   30   57 1
    56   31   32 ar
    57   31   58 1
    58   32   37 1
    59   32   33 ar
    60   33   34 ar
    61   33   35 1
    62   34   59 1
    63   35   36 1
    64   36   37 1
    65   36   60 1
    66   36   61 1
    67   38   62 1
@<TRIPOS>MOLECULE
ZINC00291237
   34    35     0     0     0
SMALL
USER_CHARGES

@<TRIPOS>ATOM
      1 C1          0.2235   -0.6008    1.2974 C.3       1 <0>         0.0257
      2 O1          0.0285   -0.0008    0.0152 O.3       1 <0>        -0.3166
      3 C2          0.6261   -0.6050   -1.0464 C.ar      1 <0>         0.1171
      4 C3          1.3790   -1.7544   -0.8564 C.ar      1 <0>        -0.1865
      5 C4          1.9861   -2.3685   -1.9341 C.ar      1 <0>        -0.0776
      6 C5          1.8424   -1.8354   -3.2079 C.ar      1 <0>         0.1204
      7 C6          1.0883   -0.6852   -3.3975 C.ar      1 <0>        -0.0986
      8 C7          0.4777   -0.0749   -2.3196 C.ar      1 <0>        -0.1308
      9 N1          2.4586   -2.4579   -4.3019 N.am      1 <0>        -0.6495
     10 C8          2.5965   -3.7984   -4.3249 C.2       1 <0>         0.6584
     11 O2          2.1019   -4.4752   -3.4450 O.2       1 <0>        -0.5232
     12 O3          3.2822   -4.3876   -5.3225 O.3       1 <0>        -0.2321
     13 N2          3.3479   -5.7984   -5.2213 N.2       1 <0>        -0.2796
     14 C9          3.9794   -6.4827   -6.1195 C.2       1 <0>         0.1667
     15 C10         4.0480   -7.9535   -6.0140 C.ar      1 <0>        -0.0717
     16 C11         3.4275   -8.6099   -4.9492 C.ar      1 <0>        -0.0717
     17 C12         3.4951   -9.9846   -4.8570 C.ar      1 <0>        -0.1264
     18 C13         4.1761  -10.7129   -5.8163 C.ar      1 <0>        -0.0933
     19 C14         4.7936  -10.0688   -6.8737 C.ar      1 <0>        -0.1264
     20 C15         4.7286   -8.6951   -6.9816 C.ar      1 <0>        -0.0789
     21 H1         -0.1633   -1.6198    1.2844 H         1 <0>         0.0569
     22 H2          1.2879   -0.6192    1.5318 H         1 <0>         0.0564
     23 H3         -0.3052   -0.0211    2.0540 H         1 <0>         0.1015
     24 H4          1.4908   -2.1690    0.1346 H         1 <0>         0.1339
     25 H5          2.5729   -3.2630   -1.7859 H         1 <0>         0.1395
     26 H6          0.9761   -0.2701   -4.3881 H         1 <0>         0.1364
     27 H7         -0.1123    0.8175   -2.4675 H         1 <0>         0.1386
     28 H8          2.7859   -1.9239   -5.0427 H         1 <0>         0.4164
     29 H9          4.4564   -5.9778   -6.9466 H         1 <0>         0.1363
     30 H10         2.8962   -8.0426   -4.1994 H         1 <0>         0.1370
     31 H11         3.0157  -10.4936   -4.0339 H         1 <0>         0.1299
     32 H12         4.2263  -11.7889   -5.7391 H         1 <0>         0.1281
     33 H13         5.3242  -10.6432   -7.6187 H         1 <0>         0.1312
     34 H14         5.2072   -8.1939   -7.8100 H         1 <0>         0.1325
@<TRIPOS>BOND
     1    1    2 1
     2    1   21 1
     3    1   22 1
     4    1   23 1
     5    2    3 1
     6    3    8 ar
     7    3    4 ar
     8    4    5 ar
     9    4   24 1
    10    5    6 ar
    11    5   25 1
    12    6    7 ar
    13    6    9 1
    14    7    8 ar
    15    7   26 1
    16    8   27 1
    17    9   10 am
    18    9   28 1
    19   10   11 2
    20   10   12 1
    21   12   13 1
    22   13   14 2
    23   14   15 1
    24   14   29 1
    25   15   20 ar
    26   15   16 ar
    27   16   17 ar
    28   16   30 1
    29   17   18 ar
    30   17   31 1
    31   18   19 ar
    32   18   32 1
    33   19   20 ar
    34   19   33 1
    35   20   34 1
@<TRIPOS>MOLECULE
ZINC04475082
   32    34     0     0     0
SMALL
USER_CHARGES

@<TRIPOS>ATOM
      1 C1         -0.0160    1.3564    0.0398 C.ar      1 <0>        -0.1178
      2 C2          1.1689    2.0904    0.0326 C.ar      1 <0>        -0.1075
      3 C3          2.3787    1.4677    0.0074 C.ar      1 <0>        -0.1178
      4 C4          2.4379    0.0636   -0.0111 C.ar      1 <0>        -0.0348
      5 C5          1.2329   -0.6828   -0.0033 C.ar      1 <0>        -0.0520
      6 C6          0.0023   -0.0042    0.0223 C.ar      1 <0>        -0.1008
      7 C7          1.2920   -2.0865   -0.0213 C.ar      1 <0>        -0.0965
      8 C8          2.5021   -2.7094   -0.0460 C.ar      1 <0>        -0.1142
      9 C9          3.6866   -1.9757   -0.0532 C.ar      1 <0>        -0.0899
     10 C10         3.6681   -0.6146   -0.0367 C.ar      1 <0>        -0.0695
     11 C11         4.9603    0.1606   -0.0459 C.3       1 <0>        -0.0952
     12 H1          4.7473    1.2259   -0.1346 H         1 <0>         0.1282
     13 C12         5.8239   -0.2920   -1.2300 C.3       1 <0>        -0.1107
     14 C13         7.1929    0.3935   -1.1345 C.3       1 <0>        -0.1331
     15 C14         7.7763    0.1137    0.2332 C.2       1 <0>         0.0962
     16 C15         9.0041   -0.3456    0.3674 C.2       1 <0>        -0.1785
     17 Br1        10.0666   -0.6652   -1.1639 Br        1 <0>        -0.0243
     18 O1          6.9897    0.3527    1.3254 O.3       1 <0>        -0.3002
     19 C16         5.7183   -0.1006    1.2368 C.2       1 <0>         0.4909
     20 O2          5.2051   -0.6996    2.1522 O.2       1 <0>        -0.4155
     21 H2         -0.9629    1.8753    0.0640 H         1 <0>         0.1253
     22 H3          1.1262    3.1694    0.0468 H         1 <0>         0.1251
     23 H4          3.2886    2.0495    0.0014 H         1 <0>         0.1254
     24 H5         -0.9239   -0.5597    0.0286 H         1 <0>         0.1294
     25 H6          0.3820   -2.6682   -0.0153 H         1 <0>         0.1303
     26 H7          2.5447   -3.7884   -0.0598 H         1 <0>         0.1273
     27 H8          4.6336   -2.4945   -0.0726 H         1 <0>         0.1198
     28 H9          5.9538   -1.3737   -1.1949 H         1 <0>         0.0827
     29 H10         5.3388   -0.0105   -2.1646 H         1 <0>         0.1004
     30 H11         7.8557   -0.0035   -1.9035 H         1 <0>         0.1141
     31 H12         7.0742    1.4686   -1.2690 H         1 <0>         0.1042
     32 H13         9.4035   -0.5395    1.3519 H         1 <0>         0.1590
@<TRIPOS>BOND
     1    1    6 ar
     2    1    2 ar
     3    1   21 1
     4    2    3 ar
     5    2   22 1
     6    3    4 ar
     7    3   23 1
     8    4   10 ar
     9    4    5 ar
    10    5    6 ar
    11    5    7 ar
    12    6   24 1
    13    7    8 ar
    14    7   25 1
    15    8    9 ar
    16    8   26 1
    17    9   10 ar
    18    9   27 1
    19   10   11 1
    20   11   12 1
    21   11   19 1
    22   11   13 1
    23   13   14 1
    24   13   28 1
    25   13   29 1
    26   14   15 1
    27   14   30 1
    28   14   31 1
    29   15   16 2
    30   15   18 1
    31   16   17 1
    32   16   32 1
    33   18   19 1
    34   19   20 2
@<TRIPOS>MOLECULE
ZINC04475083
   32    34     0     0     0
SMALL
USER_CHARGES

@<TRIPOS>ATOM
      1 C1          0.0079    1.3085   -0.6433 C.ar      1 <0>        -0.1178
      2 C2          1.1928    2.0423   -0.6543 C.ar      1 <0>        -0.1075
      3 C3          2.3950    1.4351   -0.4592 C.ar      1 <0>        -0.1178
      4 C4          2.4460    0.0474   -0.2425 C.ar      1 <0>        -0.0348
      5 C5          1.2409   -0.6989   -0.2308 C.ar      1 <0>        -0.0520
      6 C6          0.0185   -0.0366   -0.4366 C.ar      1 <0>        -0.1008
      7 C7          1.2918   -2.0861   -0.0137 C.ar      1 <0>        -0.0965
      8 C8          2.4942   -2.6935    0.1820 C.ar      1 <0>        -0.1142
      9 C9          3.6787   -1.9599    0.1709 C.ar      1 <0>        -0.0899
     10 C10         3.6681   -0.6146   -0.0367 C.ar      1 <0>        -0.0695
     11 C11         4.9603    0.1606   -0.0459 C.3       1 <0>        -0.0952
     12 H1          4.7469    1.2268   -0.1220 H         1 <0>         0.1282
     13 C12         5.7371   -0.1179    1.2471 C.3       1 <0>        -0.1107
     14 C13         7.1127    0.5542    1.1524 C.3       1 <0>        -0.1331
     15 C14         7.7886    0.0889   -0.1188 C.2       1 <0>         0.0962
     16 C15         9.0202   -0.3794   -0.1015 C.2       1 <0>        -0.1784
     17 Br1         9.9714   -0.4779    1.5299 Br        1 <0>        -0.0243
     18 O1          7.0812    0.1692   -1.2858 O.3       1 <0>        -0.3002
     19 C16         5.8046   -0.2735   -1.2236 C.2       1 <0>         0.4909
     20 O2          5.3535   -0.9970   -2.0798 O.2       1 <0>        -0.4155
     21 H2         -0.9332    1.8156   -0.7967 H         1 <0>         0.1253
     22 H3          1.1564    3.1088   -0.8206 H         1 <0>         0.1251
     23 H4          3.3051    2.0165   -0.4711 H         1 <0>         0.1255
     24 H5         -0.9077   -0.5921   -0.4304 H         1 <0>         0.1294
     25 H6          0.3817   -2.6674   -0.0019 H         1 <0>         0.1303
     26 H7          2.5305   -3.7599    0.3486 H         1 <0>         0.1273
     27 H8          4.6194   -2.4663    0.3292 H         1 <0>         0.1198
     28 H9          5.1894    0.2890    2.0971 H         1 <0>         0.1004
     29 H10         5.8638   -1.1932    1.3726 H         1 <0>         0.0827
     30 H11         6.9902    1.6370    1.1267 H         1 <0>         0.1042
     31 H12         7.7183    0.2718    2.0136 H         1 <0>         0.1141
     32 H13         9.4863   -0.7069   -1.0190 H         1 <0>         0.1590
@<TRIPOS>BOND
     1    1    6 ar
     2    1    2 ar
     3    1   21 1
     4    2    3 ar
     5    2   22 1
     6    3    4 ar
     7    3   23 1
     8    4   10 ar
     9    4    5 ar
    10    5    6 ar
    11    5    7 ar
    12    6   24 1
    13    7    8 ar
    14    7   25 1
    15    8    9 ar
    16    8   26 1
    17    9   10 ar
    18    9   27 1
    19   10   11 1
    20   11   12 1
    21   11   19 1
    22   11   13 1
    23   13   14 1
    24   13   28 1
    25   13   29 1
    26   14   15 1
    27   14   30 1
    28   14   31 1
    29   15   16 2
    30   15   18 1
    31   16   17 1
    32   16   32 1
    33   18   19 1
    34   19   20 2
@<TRIPOS>MOLECULE
ZINC01738803
   39    41     0     0     0
SMALL
USER_CHARGES
2-naphthyl cyclohexylaminoformate
@<TRIPOS>ATOM
      1 C1         -3.5457   -1.5334   -9.5765 C.ar      1 <0>        -0.1125
      2 C2         -3.0810   -2.6260   -8.8466 C.ar      1 <0>        -0.1124
      3 C3         -2.3117   -2.4515   -7.7376 C.ar      1 <0>        -0.1035
      4 C4         -1.9785   -1.1514   -7.3196 C.ar      1 <0>        -0.0419
      5 C5         -1.1870   -0.9330   -6.1800 C.ar      1 <0>        -0.1019
      6 C6         -0.8838    0.3442   -5.8034 C.ar      1 <0>         0.1090
      7 C7         -1.3555    1.4389   -6.5346 C.ar      1 <0>        -0.1152
      8 C8         -2.1193    1.2608   -7.6455 C.ar      1 <0>        -0.0882
      9 C9         -2.4509   -0.0403   -8.0623 C.ar      1 <0>        -0.0504
     10 C10        -3.2433   -0.2604   -9.2017 C.ar      1 <0>        -0.1042
     11 O1         -0.1182    0.5542   -4.7001 O.3       1 <0>        -0.3073
     12 C11        -0.7545    0.9472   -3.5801 C.2       1 <0>         0.6432
     13 O2         -1.9459    1.1844   -3.6096 O.2       1 <0>        -0.5513
     14 N1         -0.0698    1.0774   -2.4265 N.am      1 <0>        -0.7027
     15 C12        -0.7620    1.5049   -1.2081 C.3       1 <0>         0.1615
     16 C13         0.0013    0.9972    0.0168 C.3       1 <0>        -0.1271
     17 C14        -0.7216    1.4436    1.2893 C.3       1 <0>        -0.1159
     18 C15        -0.7895    2.9717    1.3278 C.3       1 <0>        -0.1238
     19 C16        -1.5527    3.4793    0.1028 C.3       1 <0>        -0.1173
     20 C17        -0.8299    3.0329   -1.1696 C.3       1 <0>        -0.1327
     21 H1         -4.1552   -1.6994  -10.4525 H         1 <0>         0.1261
     22 H2         -3.3355   -3.6259   -9.1656 H         1 <0>         0.1264
     23 H3         -1.9592   -3.3075   -7.1814 H         1 <0>         0.1296
     24 H4         -0.8206   -1.7703   -5.6047 H         1 <0>         0.1362
     25 H5         -1.1063    2.4400   -6.2148 H         1 <0>         0.1292
     26 H6         -2.4733    2.1154   -8.2029 H         1 <0>         0.1365
     27 H7         -3.6106    0.5765   -9.7772 H         1 <0>         0.1303
     28 H8          0.8812    0.8881   -2.4030 H         1 <0>         0.4077
     29 H9         -1.7724    1.0960   -1.2018 H         1 <0>         0.0930
     30 H10         0.0496   -0.0914   -0.0106 H         1 <0>         0.0719
     31 H11         1.0117    1.4060    0.0105 H         1 <0>         0.0717
     32 H12        -1.7320    1.0348    1.2956 H         1 <0>         0.0668
     33 H13        -0.1779    1.0820    2.1620 H         1 <0>         0.0705
     34 H14         0.2209    3.3805    1.3215 H         1 <0>         0.0640
     35 H15        -1.3045    3.2897    2.2343 H         1 <0>         0.0661
     36 H16        -1.6011    4.5679    0.1303 H         1 <0>         0.0674
     37 H17        -2.5631    3.0705    0.1092 H         1 <0>         0.0658
     38 H18         0.1805    3.4417   -1.1759 H         1 <0>         0.0666
     39 H19        -1.3736    3.3946   -2.0423 H         1 <0>         0.0688
@<TRIPOS>BOND
     1    1   10 ar
     2    1    2 ar
     3    1   21 1
     4    2    3 ar
     5    2   22 1
     6    3    4 ar
     7    3   23 1
     8    4    9 ar
     9    4    5 ar
    10    5    6 ar
    11    5   24 1
    12    6    7 ar
    13    6   11 1
    14    7    8 ar
    15    7   25 1
    16    8    9 ar
    17    8   26 1
    18    9   10 ar
    19   10   27 1
    20   11   12 1
    21   12   13 2
    22   12   14 am
    23   14   15 1
    24   14   28 1
    25   15   20 1
    26   15   16 1
    27   15   29 1
    28   16   17 1
    29   16   30 1
    30   16   31 1
    31   17   18 1
    32   17   32 1
    33   17   33 1
    34   18   19 1
    35   18   34 1
    36   18   35 1
    37   19   20 1
    38   19   36 1
    39   19   37 1
    40   20   38 1
    41   20   39 1
@<TRIPOS>MOLECULE
ZINC13520725
   43    45     0     0     0
SMALL
USER_CHARGES
cyclohexyl N-(3-phenylphenyl)carbamate
@<TRIPOS>ATOM
      1 C1          0.6155    1.1878   -3.0006 C.ar      1 <0>        -0.1175
      2 C2         -0.4340    0.6998   -2.2431 C.ar      1 <0>        -0.1173
      3 C3         -0.2790   -0.4595   -1.5105 C.ar      1 <0>        -0.1085
      4 C4          0.9375   -1.1386   -1.5348 C.ar      1 <0>        -0.0464
      5 C5          1.9913   -0.6425   -2.2996 C.ar      1 <0>        -0.1104
      6 C6          1.8252    0.5177   -3.0284 C.ar      1 <0>        -0.1176
      7 C7          1.1102   -2.3853   -0.7487 C.ar      1 <0>        -0.0243
      8 C8          0.0575   -2.8776    0.0210 C.ar      1 <0>        -0.1221
      9 C9          0.2180   -4.0404    0.7475 C.ar      1 <0>        -0.0943
     10 C10         1.4245   -4.7143    0.7231 C.ar      1 <0>        -0.1182
     11 C11         2.4809   -4.2278   -0.0367 C.ar      1 <0>         0.1631
     12 C12         2.3258   -3.0632   -0.7735 C.ar      1 <0>        -0.1336
     13 N1          3.7014   -4.9125   -0.0582 N.am      1 <0>        -0.6522
     14 C13         3.7217   -6.2568    0.0365 C.2       1 <0>         0.6492
     15 O1          2.6793   -6.8812    0.0432 O.2       1 <0>        -0.5503
     16 O2          4.8971   -6.9079    0.1237 O.3       1 <0>        -0.3616
     17 C14         4.8430   -8.3555    0.2230 C.3       1 <0>         0.1089
     18 C15         4.7730   -8.7634    1.6960 C.3       1 <0>        -0.1366
     19 C16         4.7160  -10.2887    1.8006 C.3       1 <0>        -0.1163
     20 C17         5.9700  -10.8909    1.1637 C.3       1 <0>        -0.1253
     21 C18         6.0400  -10.4830   -0.3093 C.3       1 <0>        -0.1164
     22 C19         6.0970   -8.9576   -0.4139 C.3       1 <0>        -0.1168
     23 H1          0.4899    2.0953   -3.5725 H         1 <0>         0.1235
     24 H2         -1.3778    1.2246   -2.2285 H         1 <0>         0.1254
     25 H3         -1.0989   -0.8394   -0.9191 H         1 <0>         0.1268
     26 H4          2.9363   -1.1648   -2.3217 H         1 <0>         0.1243
     27 H5          2.6413    0.9029   -3.6218 H         1 <0>         0.1248
     28 H6         -0.8853   -2.3514    0.0457 H         1 <0>         0.1289
     29 H7         -0.6001   -4.4222    1.3403 H         1 <0>         0.1311
     30 H8          1.5464   -5.6214    1.2965 H         1 <0>         0.1368
     31 H9          3.1459   -2.6831   -1.3646 H         1 <0>         0.1310
     32 H10         4.5327   -4.4196   -0.1413 H         1 <0>         0.4178
     33 H11         3.9588   -8.7226   -0.2981 H         1 <0>         0.0902
     34 H12         5.6572   -8.3963    2.2170 H         1 <0>         0.0730
     35 H13         3.8795   -8.3344    2.1497 H         1 <0>         0.0696
     36 H14         3.8318  -10.6559    1.2795 H         1 <0>         0.0667
     37 H15         4.6661  -10.5793    2.8500 H         1 <0>         0.0708
     38 H16         5.9294  -11.9776    1.2383 H         1 <0>         0.0681
     39 H17         6.8542  -10.5237    1.6848 H         1 <0>         0.0658
     40 H18         5.1558  -10.8501   -0.8303 H         1 <0>         0.0669
     41 H19         6.9334  -10.9119   -0.7630 H         1 <0>         0.0742
     42 H20         6.1469   -8.6670   -1.4633 H         1 <0>         0.0727
     43 H21         6.9812   -8.5905    0.1072 H         1 <0>         0.0760
@<TRIPOS>BOND
     1    1    6 ar
     2    1    2 ar
     3    1   23 1
     4    2    3 ar
     5    2   24 1
     6    3    4 ar
     7    3   25 1
     8    4    5 ar
     9    4    7 1
    10    5    6 ar
    11    5   26 1
    12    6   27 1
    13    7   12 ar
    14    7    8 ar
    15    8    9 ar
    16    8   28 1
    17    9   10 ar
    18    9   29 1
    19   10   11 ar
    20   10   30 1
    21   11   12 ar
    22   11   13 1
    23   12   31 1
    24   13   14 am
    25   13   32 1
    26   14   15 2
    27   14   16 1
    28   16   17 1
    29   17   22 1
    30   17   18 1
    31   17   33 1
    32   18   19 1
    33   18   34 1
    34   18   35 1
    35   19   20 1
    36   19   36 1
    37   19   37 1
    38   20   21 1
    39   20   38 1
    40   20   39 1
    41   21   22 1
    42   21   40 1
    43   21   41 1
    44   22   42 1
    45   22   43 1
@<TRIPOS>MOLECULE
ZINC06845860
   53    52     0     0     0
SMALL
USER_CHARGES
(Z)-octadec-9-enoic acid
@<TRIPOS>ATOM
      1 C1          0.0625    2.5023   -8.6169 C.3       1 <0>        -0.1537
      2 C2          0.6195    1.7877   -7.3840 C.3       1 <0>        -0.1265
      3 C3         -0.1205    2.2727   -6.1358 C.3       1 <0>        -0.1208
      4 C4          0.4365    1.5582   -4.9028 C.3       1 <0>        -0.1217
      5 C5         -0.3035    2.0432   -3.6546 C.3       1 <0>        -0.1198
      6 C6          0.2535    1.3286   -2.4217 C.3       1 <0>        -0.1215
      7 C7         -0.4865    1.8136   -1.1734 C.3       1 <0>        -0.1127
      8 C8          0.0704    1.0991    0.0595 C.3       1 <0>        -0.1021
      9 C9         -0.6584    1.5768    1.2890 C.2       1 <0>        -0.1657
     10 C10        -1.1961    0.7092    2.1102 C.2       1 <0>        -0.1537
     11 C11        -0.9432   -0.7643    1.9210 C.3       1 <0>        -0.1025
     12 C12        -0.4114   -1.3620    3.2252 C.3       1 <0>        -0.1136
     13 C13        -0.1547   -2.8581    3.0332 C.3       1 <0>        -0.1192
     14 C14         0.3771   -3.4558    4.3373 C.3       1 <0>        -0.1193
     15 C15         0.6338   -4.9518    4.1453 C.3       1 <0>        -0.1197
     16 C16         1.1656   -5.5496    5.4494 C.3       1 <0>        -0.0989
     17 C17         1.4223   -7.0456    5.2574 C.3       1 <0>        -0.1582
     18 C18         1.9461   -7.6343    6.5420 C.2       1 <0>         0.4568
     19 O1          2.0984   -6.9297    7.5116 O.co2     1 <0>        -0.6425
     20 H1          0.2014    3.5778   -8.5072 H         1 <0>         0.0527
     21 H2          0.5897    2.1567   -9.5062 H         1 <0>         0.0528
     22 H3         -1.0002    2.2813   -8.7158 H         1 <0>         0.0530
     23 H4          1.6823    2.0087   -7.2852 H         1 <0>         0.0603
     24 H5          0.4807    0.7122   -7.4938 H         1 <0>         0.0607
     25 H6         -1.1833    2.0518   -6.2346 H         1 <0>         0.0603
     26 H7          0.0183    3.3483   -6.0260 H         1 <0>         0.0599
     27 H8          1.4993    1.7791   -4.8040 H         1 <0>         0.0607
     28 H9          0.2977    0.4826   -5.0126 H         1 <0>         0.0612
     29 H10        -1.3663    1.8222   -3.7534 H         1 <0>         0.0603
     30 H11        -0.1647    3.1187   -3.5449 H         1 <0>         0.0598
     31 H12         1.3162    1.5496   -2.3228 H         1 <0>         0.0611
     32 H13         0.1146    0.2531   -2.5314 H         1 <0>         0.0618
     33 H14        -1.5493    1.5927   -1.2723 H         1 <0>         0.0609
     34 H15        -0.3477    2.8892   -1.0637 H         1 <0>         0.0597
     35 H16        -0.0684    0.0235   -0.0502 H         1 <0>         0.0772
     36 H17         1.1332    1.3200    0.1583 H         1 <0>         0.0673
     37 H18        -0.7375    2.6344    1.4931 H         1 <0>         0.1055
     38 H19        -1.8206    1.0500    2.9228 H         1 <0>         0.1068
     39 H20        -1.8742   -1.2605    1.6470 H         1 <0>         0.0676
     40 H21        -0.2081   -0.9081    1.1292 H         1 <0>         0.0753
     41 H22         0.5196   -0.8659    3.4992 H         1 <0>         0.0612
     42 H23        -1.1465   -1.2183    4.0171 H         1 <0>         0.0609
     43 H24        -1.0857   -3.3543    2.7591 H         1 <0>         0.0595
     44 H25         0.5804   -3.0019    2.2413 H         1 <0>         0.0591
     45 H26         1.3081   -2.9596    4.6114 H         1 <0>         0.0598
     46 H27        -0.3580   -3.3120    5.1292 H         1 <0>         0.0598
     47 H28        -0.2972   -5.4480    3.8712 H         1 <0>         0.0555
     48 H29         1.3689   -5.0956    3.3534 H         1 <0>         0.0554
     49 H30         2.0966   -5.0534    5.7235 H         1 <0>         0.0584
     50 H31         0.4305   -5.4058    6.2413 H         1 <0>         0.0584
     51 H32         0.4913   -7.5418    4.9834 H         1 <0>         0.0612
     52 H33         2.1574   -7.1894    4.4655 H         1 <0>         0.0612
     53 O2          2.2434   -8.9416    6.6090 O.co2     1 <0>        -0.7802
@<TRIPOS>BOND
     1    1    2 1
     2    1   20 1
     3    1   21 1
     4    1   22 1
     5    2    3 1
     6    2   23 1
     7    2   24 1
     8    3    4 1
     9    3   25 1
    10    3   26 1
    11    4    5 1
    12    4   27 1
    13    4   28 1
    14    5    6 1
    15    5   29 1
    16    5   30 1
    17    6    7 1
    18    6   31 1
    19    6   32 1
    20    7    8 1
    21    7   33 1
    22    7   34 1
    23    8    9 1
    24    8   35 1
    25    8   36 1
    26    9   10 2
    27    9   37 1
    28   10   11 1
    29   10   38 1
    30   11   12 1
    31   11   39 1
    32   11   40 1
    33   12   13 1
    34   12   41 1
    35   12   42 1
    36   13   14 1
    37   13   43 1
    38   13   44 1
    39   14   15 1
    40   14   45 1
    41   14   46 1
    42   15   16 1
    43   15   47 1
    44   15   48 1
    45   16   17 1
    46   16   49 1
    47   16   50 1
    48   17   18 1
    49   17   51 1
    50   17   52 1
    51   18   19 2
    52   18   53 1
