@<TRIPOS>MOLECULE
ZINC00390960
   38    39     0     0     0
SMALL
USER_CHARGES

@<TRIPOS>ATOM
      1 C1          6.1519   -2.6941    4.3398 C.3       1 <0>        -0.1165
      2 C2          4.7999   -2.0967    4.6337 C.ar      1 <0>        -0.0633
      3 C3          4.7081   -0.9001    5.3212 C.ar      1 <0>        -0.1355
      4 C4          3.4696   -0.3488    5.5928 C.ar      1 <0>        -0.0924
      5 C5          2.3197   -0.9919    5.1779 C.ar      1 <0>        -0.1502
      6 C6          2.4085   -2.1932    4.4875 C.ar      1 <0>         0.1608
      7 C7          3.6543   -2.7416    4.2113 C.ar      1 <0>        -0.1299
      8 N1          1.2453   -2.8473    4.0658 N.am      1 <0>        -0.6433
      9 C8          1.2496   -4.1835    3.8900 C.2       1 <0>         0.6476
     10 O1          2.2276   -4.8341    4.2013 O.2       1 <0>        -0.5317
     11 O2          0.1700   -4.7977    3.3693 O.3       1 <0>        -0.2984
     12 C9          0.1763   -6.1556    3.3073 C.ar      1 <0>         0.1229
     13 C10         0.1851   -6.7945    2.0751 C.ar      1 <0>        -0.1253
     14 C11         0.1915   -8.1747    2.0106 C.ar      1 <0>        -0.0810
     15 C12         0.1896   -8.9232    3.1720 C.ar      1 <0>        -0.1350
     16 C13         0.1808   -8.2892    4.4076 C.ar      1 <0>         0.1751
     17 C14         0.1796   -6.9029    4.4744 C.ar      1 <0>        -0.1201
     18 N2          0.1784   -9.0473    5.5840 N.am      1 <0>        -0.6491
     19 C15        -0.4932   -8.6086    6.6670 C.2       1 <0>         0.6473
     20 O3         -1.1770   -7.6068    6.5933 O.2       1 <0>        -0.5492
     21 O4         -0.4066   -9.2804    7.8307 O.3       1 <0>        -0.3600
     22 C16        -1.1448   -8.7588    8.9375 C.3       1 <0>         0.0521
     23 H1          6.5136   -2.3207    3.3817 H         1 <0>         0.0728
     24 H2          6.8519   -2.4136    5.1268 H         1 <0>         0.0690
     25 H3          6.0679   -3.7800    4.2982 H         1 <0>         0.0688
     26 H4          5.6057   -0.3956    5.6469 H         1 <0>         0.1252
     27 H5          3.4012    0.5855    6.1301 H         1 <0>         0.1299
     28 H6          1.3525   -0.5609    5.3906 H         1 <0>         0.1284
     29 H7          3.7268   -3.6737    3.6706 H         1 <0>         0.1439
     30 H8          0.4360   -2.3389    3.9001 H         1 <0>         0.4204
     31 H9          0.1866   -6.2121    1.1657 H         1 <0>         0.1377
     32 H10         0.1977   -8.6693    1.0506 H         1 <0>         0.1430
     33 H11         0.1946  -10.0018    3.1189 H         1 <0>         0.1375
     34 H12         0.1773   -6.4075    5.4340 H         1 <0>         0.1402
     35 H13         0.6601   -9.8885    5.6199 H         1 <0>         0.4217
     36 H14        -2.2059   -8.7386    8.6893 H         1 <0>         0.0646
     37 H15        -0.9877   -9.3927    9.8102 H         1 <0>         0.1087
     38 H16        -0.8037   -7.7471    9.1573 H         1 <0>         0.0636
@<TRIPOS>BOND
     1    1    2 1
     2    1   23 1
     3    1   24 1
     4    1   25 1
     5    2    7 ar
     6    2    3 ar
     7    3    4 ar
     8    3   26 1
     9    4    5 ar
    10    4   27 1
    11    5    6 ar
    12    5   28 1
    13    6    7 ar
    14    6    8 1
    15    7   29 1
    16    8    9 am
    17    8   30 1
    18    9   10 2
    19    9   11 1
    20   11   12 1
    21   12   17 ar
    22   12   13 ar
    23   13   14 ar
    24   13   31 1
    25   14   15 ar
    26   14   32 1
    27   15   16 ar
    28   15   33 1
    29   16   17 ar
    30   16   18 1
    31   17   34 1
    32   18   19 am
    33   18   35 1
    34   19   20 2
    35   19   21 1
    36   21   22 1
    37   22   36 1
    38   22   37 1
    39   22   38 1
@<TRIPOS>MOLECULE
ZINC17654244
   61    60     0     0     0
SMALL
USER_CHARGES
(5Z,8Z,11Z,14Z)-1-(fluoro-methoxy-phosphoryl)icosa-5,8,11,14-tetraene
@<TRIPOS>ATOM
      1 C1        -11.8196   13.2176    9.8711 C.3       1 <0>        -0.1543
      2 C2        -10.9707   13.0657    8.6073 C.3       1 <0>        -0.1259
      3 C3        -11.6929   12.1528    7.6145 C.3       1 <0>        -0.1214
      4 C4        -10.8440   12.0009    6.3507 C.3       1 <0>        -0.1145
      5 C5        -11.5663   11.0879    5.3578 C.3       1 <0>        -0.1025
      6 C6        -10.7302   10.9383    4.1130 C.2       1 <0>        -0.1583
      7 C7        -10.4412    9.7445    3.6577 C.2       1 <0>        -0.1532
      8 C8        -11.0768    8.5271    4.2782 C.3       1 <0>        -0.0835
      9 C9        -11.7351    7.7011    3.2034 C.2       1 <0>        -0.1510
     10 C10       -11.4475    6.4284    3.0870 C.2       1 <0>        -0.1520
     11 C11       -10.5979    5.7494    4.1301 C.3       1 <0>        -0.0842
     12 C12       -11.3122    4.5243    4.6402 C.2       1 <0>        -0.1501
     13 C13       -10.7100    3.3610    4.6246 C.2       1 <0>        -0.1521
     14 C14        -9.2524    3.2720    4.2528 C.3       1 <0>        -0.0854
     15 C15        -8.5067    2.5148    5.3213 C.2       1 <0>        -0.1476
     16 C16        -7.7706    1.4804    4.9984 C.2       1 <0>        -0.1622
     17 C17        -7.5360    1.1459    3.5479 C.3       1 <0>        -0.1044
     18 C18        -6.0339    1.0055    3.2934 C.3       1 <0>        -0.1085
     19 C19        -5.7957    0.6658    1.8207 C.3       1 <0>        -0.1174
     20 C20        -4.2936    0.5254    1.5661 C.3       1 <0>        -0.7259
     21 P1         -4.0098    0.1207   -0.1886 P.3       1 <0>         2.2098
     22 O1         -4.5553    1.2024   -1.0388 O.2       1 <0>        -0.9851
     23 O2         -2.4291   -0.0270   -0.4564 O.3       1 <0>        -0.7306
     24 C21        -1.8831   -0.3417   -1.7390 C.3       1 <0>         0.0716
     25 F1         -4.7739   -1.3173   -0.5588 F         1 <0>        -0.3637
     26 H1        -11.9748   12.2386   10.3244 H         1 <0>         0.0533
     27 H2        -11.3050   13.8680   10.5784 H         1 <0>         0.0535
     28 H3        -12.7837   13.6545    9.6109 H         1 <0>         0.0535
     29 H4        -10.0066   12.6288    8.8676 H         1 <0>         0.0604
     30 H5        -10.8154   14.0448    8.1540 H         1 <0>         0.0607
     31 H6        -12.6570   12.5897    7.3542 H         1 <0>         0.0614
     32 H7        -11.8482   11.1737    8.0677 H         1 <0>         0.0609
     33 H8         -9.8799   11.5640    6.6109 H         1 <0>         0.0617
     34 H9        -10.6888   12.9799    5.8974 H         1 <0>         0.0618
     35 H10       -12.5304   11.5248    5.0976 H         1 <0>         0.0689
     36 H11       -11.7216   10.1089    5.8111 H         1 <0>         0.0754
     37 H12       -10.3692   11.8153    3.5963 H         1 <0>         0.1090
     38 H13        -9.7474    9.6327    2.8376 H         1 <0>         0.1088
     39 H14       -11.8255    8.8394    5.0063 H         1 <0>         0.0838
     40 H15       -10.3116    7.9318    4.7765 H         1 <0>         0.0822
     41 H16       -12.4441    8.1584    2.5291 H         1 <0>         0.1102
     42 H17       -11.8193    5.8657    2.2434 H         1 <0>         0.1106
     43 H18       -10.4195    6.4367    4.9571 H         1 <0>         0.0833
     44 H19        -9.6451    5.4570    3.6886 H         1 <0>         0.0832
     45 H20       -12.3204    4.6055    5.0186 H         1 <0>         0.1105
     46 H21       -11.2583    2.4658    4.8782 H         1 <0>         0.1102
     47 H22        -8.8383    4.2763    4.1630 H         1 <0>         0.0841
     48 H23        -9.1514    2.7509    3.3007 H         1 <0>         0.0847
     49 H24        -8.5793    2.8250    6.3533 H         1 <0>         0.1099
     50 H25        -7.3318    0.8674    5.7718 H         1 <0>         0.1089
     51 H26        -7.9377    1.9425    2.9217 H         1 <0>         0.0806
     52 H27        -8.0347    0.2073    3.3062 H         1 <0>         0.0728
     53 H28        -5.6321    0.2089    3.9195 H         1 <0>         0.0625
     54 H29        -5.5351    1.9441    3.5350 H         1 <0>         0.0648
     55 H30        -6.1974    1.4625    1.1945 H         1 <0>         0.0878
     56 H31        -6.2944   -0.2728    1.5790 H         1 <0>         0.0746
     57 H32        -3.8918   -0.2712    2.1923 H         1 <0>         0.1025
     58 H33        -3.7948    1.4640    1.8078 H         1 <0>         0.1213
     59 H34        -2.2668   -1.3066   -2.0704 H         1 <0>         0.0612
     60 H35        -0.7963   -0.3872   -1.6700 H         1 <0>         0.1019
     61 H36        -2.1698    0.4286   -2.4549 H         1 <0>         0.0714
@<TRIPOS>BOND
     1    1    2 1
     2    1   26 1
     3    1   27 1
     4    1   28 1
     5    2    3 1
     6    2   29 1
     7    2   30 1
     8    3    4 1
     9    3   31 1
    10    3   32 1
    11    4    5 1
    12    4   33 1
    13    4   34 1
    14    5    6 1
    15    5   35 1
    16    5   36 1
    17    6    7 2
    18    6   37 1
    19    7    8 1
    20    7   38 1
    21    8    9 1
    22    8   39 1
    23    8   40 1
    24    9   10 2
    25    9   41 1
    26   10   11 1
    27   10   42 1
    28   11   12 1
    29   11   43 1
    30   11   44 1
    31   12   13 2
    32   12   45 1
    33   13   14 1
    34   13   46 1
    35   14   15 1
    36   14   47 1
    37   14   48 1
    38   15   16 2
    39   15   49 1
    40   16   17 1
    41   16   50 1
    42   17   18 1
    43   17   51 1
    44   17   52 1
    45   18   19 1
    46   18   53 1
    47   18   54 1
    48   19   20 1
    49   19   55 1
    50   19   56 1
    51   20   21 1
    52   20   57 1
    53   20   58 1
    54   21   22 2
    55   21   23 1
    56   21   25 1
    57   23   24 1
    58   24   59 1
    59   24   60 1
    60   24   61 1
@<TRIPOS>MOLECULE
ZINC17654246
   61    60     0     0     0
SMALL
USER_CHARGES
(5Z,8Z,11Z,14Z)-1-(fluoro-methoxy-phosphoryl)icosa-5,8,11,14-tetraene
@<TRIPOS>ATOM
      1 C1        -11.8196   13.2177    9.8709 C.3       1 <0>        -0.1543
      2 C2        -10.9707   13.0658    8.6072 C.3       1 <0>        -0.1259
      3 C3        -11.6930   12.1528    7.6143 C.3       1 <0>        -0.1215
      4 C4        -10.8441   12.0009    6.3505 C.3       1 <0>        -0.1144
      5 C5        -11.5664   11.0880    5.3577 C.3       1 <0>        -0.1027
      6 C6        -10.7302   10.9383    4.1129 C.2       1 <0>        -0.1578
      7 C7        -10.4412    9.7445    3.6576 C.2       1 <0>        -0.1535
      8 C8        -11.0768    8.5271    4.2781 C.3       1 <0>        -0.0836
      9 C9        -11.7352    7.7011    3.2033 C.2       1 <0>        -0.1508
     10 C10       -11.4476    6.4284    3.0869 C.2       1 <0>        -0.1523
     11 C11       -10.5979    5.7494    4.1300 C.3       1 <0>        -0.0837
     12 C12       -11.3122    4.5244    4.6401 C.2       1 <0>        -0.1507
     13 C13       -10.7101    3.3610    4.6245 C.2       1 <0>        -0.1519
     14 C14        -9.2524    3.2720    4.2527 C.3       1 <0>        -0.0847
     15 C15        -8.5067    2.5148    5.3213 C.2       1 <0>        -0.1493
     16 C16        -7.7706    1.4805    4.9984 C.2       1 <0>        -0.1608
     17 C17        -7.5360    1.1459    3.5479 C.3       1 <0>        -0.1046
     18 C18        -6.0339    1.0055    3.2933 C.3       1 <0>        -0.1085
     19 C19        -5.7957    0.6658    1.8207 C.3       1 <0>        -0.1173
     20 C20        -4.2936    0.5254    1.5661 C.3       1 <0>        -0.7260
     21 P1         -4.0098    0.1207   -0.1886 P.3       1 <0>         2.2100
     22 O1         -4.6870   -1.1537   -0.5167 O.2       1 <0>        -0.9853
     23 O2         -2.4291   -0.0270   -0.4564 O.3       1 <0>        -0.7306
     24 C21        -1.8831   -0.3417   -1.7390 C.3       1 <0>         0.0715
     25 F1         -4.6253    1.3412   -1.1480 F         1 <0>        -0.3637
     26 H1        -12.7837   13.6546    9.6107 H         1 <0>         0.0535
     27 H2        -11.9749   12.2387   10.3242 H         1 <0>         0.0533
     28 H3        -11.3050   13.8681   10.5783 H         1 <0>         0.0536
     29 H4        -10.0066   12.6289    8.8674 H         1 <0>         0.0603
     30 H5        -10.8155   14.0448    8.1539 H         1 <0>         0.0606
     31 H6        -12.6571   12.5897    7.3540 H         1 <0>         0.0615
     32 H7        -11.8482   11.1738    8.0676 H         1 <0>         0.0609
     33 H8         -9.8800   11.5640    6.6108 H         1 <0>         0.0617
     34 H9        -10.6888   12.9799    5.8972 H         1 <0>         0.0618
     35 H10       -12.5305   11.5249    5.0974 H         1 <0>         0.0691
     36 H11       -11.7216   10.1089    5.8110 H         1 <0>         0.0755
     37 H12       -10.3693   11.8153    3.5961 H         1 <0>         0.1090
     38 H13        -9.7474    9.6327    2.8375 H         1 <0>         0.1085
     39 H14       -11.8255    8.8394    5.0062 H         1 <0>         0.0839
     40 H15       -10.3117    7.9318    4.7764 H         1 <0>         0.0822
     41 H16       -12.4441    8.1584    2.5290 H         1 <0>         0.1102
     42 H17       -11.8193    5.8657    2.2433 H         1 <0>         0.1105
     43 H18       -10.4195    6.4367    4.9570 H         1 <0>         0.0832
     44 H19        -9.6452    5.4570    3.6886 H         1 <0>         0.0827
     45 H20       -12.3205    4.6055    5.0185 H         1 <0>         0.1106
     46 H21       -11.2583    2.4658    4.8782 H         1 <0>         0.1104
     47 H22        -8.8383    4.2763    4.1630 H         1 <0>         0.0835
     48 H23        -9.1514    2.7509    3.3007 H         1 <0>         0.0843
     49 H24        -8.5793    2.8250    6.3532 H         1 <0>         0.1099
     50 H25        -7.3318    0.8675    5.7718 H         1 <0>         0.1093
     51 H26        -7.9377    1.9425    2.9217 H         1 <0>         0.0794
     52 H27        -8.0347    0.2073    3.3062 H         1 <0>         0.0744
     53 H28        -5.6321    0.2089    3.9195 H         1 <0>         0.0646
     54 H29        -5.5351    1.9441    3.5350 H         1 <0>         0.0628
     55 H30        -6.1974    1.4624    1.1945 H         1 <0>         0.0742
     56 H31        -6.2944   -0.2728    1.5790 H         1 <0>         0.0882
     57 H32        -3.8918   -0.2712    2.1923 H         1 <0>         0.1214
     58 H33        -3.7948    1.4640    1.8078 H         1 <0>         0.1025
     59 H34        -2.2668   -1.3067   -2.0703 H         1 <0>         0.0714
     60 H35        -0.7962   -0.3872   -1.6699 H         1 <0>         0.1019
     61 H36        -2.1698    0.4286   -2.4549 H         1 <0>         0.0612
@<TRIPOS>BOND
     1    1    2 1
     2    1   26 1
     3    1   27 1
     4    1   28 1
     5    2    3 1
     6    2   29 1
     7    2   30 1
     8    3    4 1
     9    3   31 1
    10    3   32 1
    11    4    5 1
    12    4   33 1
    13    4   34 1
    14    5    6 1
    15    5   35 1
    16    5   36 1
    17    6    7 2
    18    6   37 1
    19    7    8 1
    20    7   38 1
    21    8    9 1
    22    8   39 1
    23    8   40 1
    24    9   10 2
    25    9   41 1
    26   10   11 1
    27   10   42 1
    28   11   12 1
    29   11   43 1
    30   11   44 1
    31   12   13 2
    32   12   45 1
    33   13   14 1
    34   13   46 1
    35   14   15 1
    36   14   47 1
    37   14   48 1
    38   15   16 2
    39   15   49 1
    40   16   17 1
    41   16   50 1
    42   17   18 1
    43   17   51 1
    44   17   52 1
    45   18   19 1
    46   18   53 1
    47   18   54 1
    48   19   20 1
    49   19   55 1
    50   19   56 1
    51   20   21 1
    52   20   57 1
    53   20   58 1
    54   21   22 2
    55   21   23 1
    56   21   25 1
    57   23   24 1
    58   24   59 1
    59   24   60 1
    60   24   61 1
@<TRIPOS>MOLECULE
ZINC00005878
   15    15     0     0     0
SMALL
USER_CHARGES

@<TRIPOS>ATOM
      1 C1         -0.0167    1.3789    0.0096 C.ar      1 <0>        -0.1776
      2 C2          1.1808    2.0726    0.0019 C.ar      1 <0>        -0.0153
      3 C3          2.3727    1.3386   -0.0134 C.ar      1 <0>        -0.1949
      4 C4          2.3057   -0.0554   -0.0203 C.ar      1 <0>         0.1353
      5 N1          1.1413   -0.6698   -0.0129 N.ar      1 <0>        -0.4875
      6 C5          0.0021   -0.0041    0.0020 C.ar      1 <0>         0.1245
      7 C6          3.6803    2.0284   -0.0227 C.2       1 <0>         0.5687
      8 O1          3.7267    3.2430   -0.0170 O.2       1 <0>        -0.5353
      9 N2          4.8208    1.3105   -0.0374 N.am      1 <0>        -0.8481
     10 H1         -0.9559    1.9118    0.0259 H         1 <0>         0.1462
     11 H2          1.1954    3.1525    0.0072 H         1 <0>         0.1492
     12 H3          3.2169   -0.6351   -0.0321 H         1 <0>         0.1592
     13 H4         -0.9310   -0.5480    0.0080 H         1 <0>         0.1644
     14 H5          4.7838    0.3412   -0.0419 H         1 <0>         0.4019
     15 H6          5.6787    1.7631   -0.0435 H         1 <0>         0.4092
@<TRIPOS>BOND
     1    1    6 ar
     2    1    2 ar
     3    1   10 1
     4    2    3 ar
     5    2   11 1
     6    3    4 ar
     7    3    7 1
     8    4    5 ar
     9    4   12 1
    10    5    6 ar
    11    6   13 1
    12    7    8 2
    13    7    9 am
    14    9   14 1
    15    9   15 1
@<TRIPOS>MOLECULE
ZINC08689957
   60    59     0     0     0
SMALL
USER_CHARGES

@<TRIPOS>ATOM
      1 C1          0.1443    2.0146   -0.3291 C.3       1 <0>        -0.1543
      2 C2          0.3725    0.5057   -0.2196 C.3       1 <0>        -0.1258
      3 C3          0.8073   -0.0443   -1.5795 C.3       1 <0>        -0.1215
      4 C4          1.0355   -1.5532   -1.4700 C.3       1 <0>        -0.1143
      5 C5          1.4703   -2.1033   -2.8299 C.3       1 <0>        -0.1024
      6 C6          1.6951   -3.5895   -2.7220 C.2       1 <0>        -0.1587
      7 C7          1.1050   -4.4039   -3.5614 C.2       1 <0>        -0.1531
      8 C8          0.3399   -3.8508   -4.7360 C.3       1 <0>        -0.0828
      9 C9          0.8450   -4.4832   -6.0073 C.2       1 <0>        -0.1532
     10 C10         0.0027   -5.0429   -6.8399 C.2       1 <0>        -0.1586
     11 C11        -1.4813   -4.9077   -6.6152 C.3       1 <0>        -0.1022
     12 C12        -2.1412   -4.3593   -7.8820 C.3       1 <0>        -0.1142
     13 C13        -3.6478   -4.2220   -7.6537 C.3       1 <0>        -0.1200
     14 C14        -4.3076   -3.6736   -8.9206 C.3       1 <0>        -0.1205
     15 C15        -5.8143   -3.5363   -8.6923 C.3       1 <0>        -0.1200
     16 C16        -6.4741   -2.9879   -9.9591 C.3       1 <0>        -0.1051
     17 C17        -7.9807   -2.8506   -9.7309 C.3       1 <0>        -0.1404
     18 C18        -8.6306   -2.3105  -10.9787 C.2       1 <0>         0.5101
     19 O1         -7.9553   -2.0600  -11.9544 O.2       1 <0>        -0.5410
     20 N1         -9.9624   -2.1058  -11.0103 N.am      1 <0>        -0.7288
     21 C19       -10.5942   -1.5807  -12.2233 C.3       1 <0>         0.1176
     22 C20       -12.1008   -1.4434  -11.9951 C.3       1 <0>         0.0628
     23 O2        -12.3422   -0.4598  -10.9870 O.3       1 <0>        -0.5723
     24 H1          1.0695    2.5006   -0.6386 H         1 <0>         0.0534
     25 H2         -0.6340    2.2118   -1.0664 H         1 <0>         0.0534
     26 H3         -0.1654    2.4065    0.6397 H         1 <0>         0.0535
     27 H4          1.1508    0.3086    0.5177 H         1 <0>         0.0605
     28 H5         -0.5527    0.0198    0.0900 H         1 <0>         0.0605
     29 H6          0.0290    0.1528   -2.3168 H         1 <0>         0.0611
     30 H7          1.7325    0.4416   -1.8890 H         1 <0>         0.0614
     31 H8          1.8138   -1.7504   -0.7327 H         1 <0>         0.0615
     32 H9          0.1103   -2.0392   -1.1604 H         1 <0>         0.0619
     33 H10         0.6920   -1.9061   -3.5672 H         1 <0>         0.0756
     34 H11         2.3955   -1.6173   -3.1394 H         1 <0>         0.0687
     35 H12         2.3428   -3.9832   -1.9526 H         1 <0>         0.1087
     36 H13         1.1667   -5.4717   -3.4116 H         1 <0>         0.1082
     37 H14        -0.7205   -4.0729   -4.6161 H         1 <0>         0.0831
     38 H15         0.4816   -2.7712   -4.7861 H         1 <0>         0.0832
     39 H16         1.9013   -4.4749   -6.2318 H         1 <0>         0.1081
     40 H17         0.3718   -5.6013   -7.6875 H         1 <0>         0.1087
     41 H18        -1.9036   -5.8845   -6.3793 H         1 <0>         0.0683
     42 H19        -1.6624   -4.2238   -5.7860 H         1 <0>         0.0753
     43 H20        -1.7189   -3.3825   -8.1179 H         1 <0>         0.0621
     44 H21        -1.9601   -5.0432   -8.7112 H         1 <0>         0.0618
     45 H22        -4.0700   -5.1988   -7.4178 H         1 <0>         0.0612
     46 H23        -3.8288   -3.5381   -6.8246 H         1 <0>         0.0609
     47 H24        -3.8854   -2.6968   -9.1564 H         1 <0>         0.0624
     48 H25        -4.1266   -4.3576   -9.7497 H         1 <0>         0.0623
     49 H26        -6.2365   -4.5131   -8.4564 H         1 <0>         0.0619
     50 H27        -5.9953   -2.8524   -7.8631 H         1 <0>         0.0621
     51 H28        -6.0518   -2.0111  -10.1950 H         1 <0>         0.0695
     52 H29        -6.2930   -3.6719  -10.7883 H         1 <0>         0.0694
     53 H30        -8.4030   -3.8275   -9.4950 H         1 <0>         0.0929
     54 H31        -8.1618   -2.1667   -8.9017 H         1 <0>         0.0936
     55 H32       -10.5025   -2.3061  -10.2299 H         1 <0>         0.4035
     56 H33       -10.1719   -0.6039  -12.4592 H         1 <0>         0.0751
     57 H34       -10.4131   -2.2646  -13.0525 H         1 <0>         0.0823
     58 H35       -12.5826   -1.1376  -12.9238 H         1 <0>         0.0647
     59 H36       -12.5083   -2.4016  -11.6727 H         1 <0>         0.0540
     60 H37       -13.2786   -0.3200  -10.7901 H         1 <0>         0.3841
@<TRIPOS>BOND
     1    1    2 1
     2    1   24 1
     3    1   25 1
     4    1   26 1
     5    2    3 1
     6    2   27 1
     7    2   28 1
     8    3    4 1
     9    3   29 1
    10    3   30 1
    11    4    5 1
    12    4   31 1
    13    4   32 1
    14    5    6 1
    15    5   33 1
    16    5   34 1
    17    6    7 2
    18    6   35 1
    19    7    8 1
    20    7   36 1
    21    8    9 1
    22    8   37 1
    23    8   38 1
    24    9   10 2
    25    9   39 1
    26   10   11 1
    27   10   40 1
    28   11   12 1
    29   11   41 1
    30   11   42 1
    31   12   13 1
    32   12   43 1
    33   12   44 1
    34   13   14 1
    35   13   45 1
    36   13   46 1
    37   14   15 1
    38   14   47 1
    39   14   48 1
    40   15   16 1
    41   15   49 1
    42   15   50 1
    43   16   17 1
    44   16   51 1
    45   16   52 1
    46   17   18 1
    47   17   53 1
    48   17   54 1
    49   18   19 2
    50   18   20 am
    51   20   21 1
    52   20   55 1
    53   21   22 1
    54   21   56 1
    55   21   57 1
    56   22   23 1
    57   22   58 1
    58   22   59 1
    59   23   60 1
@<TRIPOS>MOLECULE
ZINC03809850
   62    61     0     0     0
SMALL
USER_CHARGES

@<TRIPOS>ATOM
      1 C1         -2.2312    2.9666    0.4945 C.3       1 <0>        -0.1543
      2 C2         -2.1773    1.4868    0.1097 C.3       1 <0>        -0.1260
      3 C3         -3.4636    0.7944    0.5647 C.3       1 <0>        -0.1214
      4 C4         -3.4097   -0.6855    0.1800 C.3       1 <0>        -0.1146
      5 C5         -4.6960   -1.3779    0.6349 C.3       1 <0>        -0.1025
      6 C6         -4.6429   -2.8355    0.2560 C.2       1 <0>        -0.1582
      7 C7         -4.8635   -3.7561    1.1614 C.2       1 <0>        -0.1534
      8 C8         -5.3306   -3.3617    2.5389 C.3       1 <0>        -0.0837
      9 C9         -6.5867   -4.1212    2.8800 C.2       1 <0>        -0.1511
     10 C10        -6.6608   -4.7947    4.0011 C.2       1 <0>        -0.1520
     11 C11        -5.5599   -4.6791    5.0237 C.3       1 <0>        -0.0839
     12 C12        -6.1510   -4.3020    6.3577 C.2       1 <0>        -0.1519
     13 C13        -5.8856   -5.0225    7.4190 C.2       1 <0>        -0.1513
     14 C14        -4.8547   -6.1194    7.3465 C.3       1 <0>        -0.0836
     15 C15        -3.8385   -5.9270    8.4425 C.2       1 <0>        -0.1524
     16 C16        -3.5758   -6.9066    9.2716 C.2       1 <0>        -0.1566
     17 C17        -4.1634   -8.2737    9.0331 C.3       1 <0>        -0.1019
     18 C18        -3.0466   -9.3192    9.0518 C.3       1 <0>        -0.0985
     19 C19        -3.6432  -10.7071    8.8097 C.3       1 <0>        -0.1408
     20 C20        -2.5431  -11.7370    8.8281 C.2       1 <0>         0.5104
     21 O1         -1.3950  -11.3946    9.0165 O.2       1 <0>        -0.5404
     22 N1         -2.8352  -13.0385    8.6354 N.am      1 <0>        -0.7286
     23 C21        -1.7658  -14.0397    8.6533 C.3       1 <0>         0.1176
     24 C22        -2.3624  -15.4276    8.4112 C.3       1 <0>         0.0628
     25 O2         -2.9130  -15.4861    7.0938 O.3       1 <0>        -0.5722
     26 H1         -1.3148    3.4599    0.1703 H         1 <0>         0.0535
     27 H2         -3.0875    3.4368    0.0110 H         1 <0>         0.0534
     28 H3         -2.3296    3.0574    1.5762 H         1 <0>         0.0534
     29 H4         -2.0789    1.3959   -0.9720 H         1 <0>         0.0605
     30 H5         -1.3210    1.0166    0.5932 H         1 <0>         0.0606
     31 H6         -3.5620    0.8852    1.6464 H         1 <0>         0.0610
     32 H7         -4.3199    1.2645    0.0812 H         1 <0>         0.0613
     33 H8         -3.3113   -0.7763   -0.9018 H         1 <0>         0.0616
     34 H9         -2.5534   -1.1557    0.6635 H         1 <0>         0.0621
     35 H10        -4.7944   -1.2871    1.7167 H         1 <0>         0.0756
     36 H11        -5.5523   -0.9077    0.1514 H         1 <0>         0.0687
     37 H12        -4.4230   -3.1211   -0.7621 H         1 <0>         0.1088
     38 H13        -4.7107   -4.7978    0.9208 H         1 <0>         0.1086
     39 H14        -4.5545   -3.5973    3.2670 H         1 <0>         0.0830
     40 H15        -5.5360   -2.2914    2.5602 H         1 <0>         0.0840
     41 H16        -7.4259   -4.1101    2.2002 H         1 <0>         0.1096
     42 H17        -7.5108   -5.4329    4.1925 H         1 <0>         0.1098
     43 H18        -5.0443   -5.6354    5.1121 H         1 <0>         0.0835
     44 H19        -4.8518   -3.9121    4.7102 H         1 <0>         0.0834
     45 H20        -6.7935   -3.4376    6.4387 H         1 <0>         0.1097
     46 H21        -6.4054   -4.8305    8.3460 H         1 <0>         0.1098
     47 H22        -5.3434   -7.0860    7.4698 H         1 <0>         0.0837
     48 H23        -4.3556   -6.0855    6.3781 H         1 <0>         0.0830
     49 H24        -3.3267   -4.9814    8.5444 H         1 <0>         0.1092
     50 H25        -2.9381   -6.7345   10.1261 H         1 <0>         0.1103
     51 H26        -4.8864   -8.5002    9.8168 H         1 <0>         0.0705
     52 H27        -4.6612   -8.2911    8.0635 H         1 <0>         0.0766
     53 H28        -2.3236   -9.0927    8.2682 H         1 <0>         0.0711
     54 H29        -2.5488   -9.3018   10.0214 H         1 <0>         0.0706
     55 H30        -4.3661  -10.9337    9.5933 H         1 <0>         0.0937
     56 H31        -4.1409  -10.7245    7.8401 H         1 <0>         0.0940
     57 H32        -3.7534  -13.3124    8.4848 H         1 <0>         0.4035
     58 H33        -1.0428  -13.8132    7.8697 H         1 <0>         0.0752
     59 H34        -1.2680  -14.0223    9.6229 H         1 <0>         0.0823
     60 H35        -1.5816  -16.1814    8.5125 H         1 <0>         0.0647
     61 H36        -3.1482  -15.6179    9.1422 H         1 <0>         0.0540
     62 H37        -3.3095  -16.3394    6.8708 H         1 <0>         0.3841
@<TRIPOS>BOND
     1    1    2 1
     2    1   26 1
     3    1   27 1
     4    1   28 1
     5    2    3 1
     6    2   29 1
     7    2   30 1
     8    3    4 1
     9    3   31 1
    10    3   32 1
    11    4    5 1
    12    4   33 1
    13    4   34 1
    14    5    6 1
    15    5   35 1
    16    5   36 1
    17    6    7 2
    18    6   37 1
    19    7    8 1
    20    7   38 1
    21    8    9 1
    22    8   39 1
    23    8   40 1
    24    9   10 2
    25    9   41 1
    26   10   11 1
    27   10   42 1
    28   11   12 1
    29   11   43 1
    30   11   44 1
    31   12   13 2
    32   12   45 1
    33   13   14 1
    34   13   46 1
    35   14   15 1
    36   14   47 1
    37   14   48 1
    38   15   16 2
    39   15   49 1
    40   16   17 1
    41   16   50 1
    42   17   18 1
    43   17   51 1
    44   17   52 1
    45   18   19 1
    46   18   53 1
    47   18   54 1
    48   19   20 1
    49   19   55 1
    50   19   56 1
    51   20   21 2
    52   20   22 am
    53   22   23 1
    54   22   57 1
    55   23   24 1
    56   23   58 1
    57   23   59 1
    58   24   25 1
    59   24   60 1
    60   24   61 1
    61   25   62 1
@<TRIPOS>MOLECULE
ZINC34803574
   62    63     0     0     0
SMALL
USER_CHARGES

@<TRIPOS>ATOM
      1 C1         -0.0187    1.5258    0.0104 C.3       1 <0>        -0.1545
      2 C2          0.0021   -0.0041    0.0020 C.3       1 <0>        -0.1261
      3 C3          0.7182   -0.4975   -1.2568 C.3       1 <0>        -0.1216
      4 C4          0.7390   -2.0273   -1.2652 C.3       1 <0>        -0.1210
      5 C5          1.4551   -2.5207   -2.5240 C.3       1 <0>        -0.1207
      6 C6          1.4758   -4.0506   -2.5324 C.3       1 <0>        -0.1208
      7 C7          2.1920   -4.5440   -3.7912 C.3       1 <0>        -0.1145
      8 C8          2.2127   -6.0738   -3.7996 C.3       1 <0>        -0.0069
      9 C9          2.9017   -6.5485   -5.0107 C.1       1 <0>        -0.1877
     10 C10         3.4512   -6.9272   -5.9766 C.1       1 <0>        -0.1879
     11 C11         4.1402   -7.4019   -7.1877 C.3       1 <0>        -0.0068
     12 C12         4.1610   -8.9317   -7.1961 C.3       1 <0>        -0.1149
     13 C13         4.8771   -9.4251   -8.4549 C.3       1 <0>        -0.1208
     14 C14         4.8979  -10.9550   -8.4633 C.3       1 <0>        -0.1208
     15 C15         5.6140  -11.4484   -9.7221 C.3       1 <0>        -0.1197
     16 C16         5.6347  -12.9782   -9.7305 C.3       1 <0>        -0.1156
     17 C17         6.3509  -13.4716  -10.9894 C.3       1 <0>        -0.1403
     18 C18         6.3713  -14.9785  -10.9976 C.2       1 <0>         0.4494
     19 O1          5.8634  -15.5966  -10.0869 O.2       1 <0>        -0.4055
     20 C19         7.0088  -15.7006  -12.1129 C.2       1 <0>         0.1966
     21 N1          7.5895  -15.1339  -13.1400 N.2       1 <0>        -0.4081
     22 C20         8.0612  -16.0913  -13.9615 C.ar      1 <0>         0.2203
     23 C21         7.7316  -17.3260  -13.3702 C.ar      1 <0>        -0.0344
     24 O2          7.0847  -17.0414  -12.2226 O.3       1 <0>        -0.1794
     25 C22         8.1002  -18.5052  -14.0073 C.ar      1 <0>        -0.0413
     26 C23         8.7820  -18.4152  -15.2073 C.ar      1 <0>        -0.1389
     27 C24         9.0758  -17.1650  -15.7357 C.ar      1 <0>         0.1340
     28 N2          8.7195  -16.0609  -15.1194 N.ar      1 <0>        -0.4302
     29 H1          1.0039    1.9031    0.0027 H         1 <0>         0.0533
     30 H2         -0.5459    1.8868   -0.8726 H         1 <0>         0.0533
     31 H3         -0.5289    1.8773    0.9072 H         1 <0>         0.0534
     32 H4          0.5293   -0.3651    0.8851 H         1 <0>         0.0603
     33 H5         -1.0205   -0.3814    0.0098 H         1 <0>         0.0603
     34 H6          0.1910   -0.1364   -2.1398 H         1 <0>         0.0607
     35 H7          1.7408   -0.1202   -1.2645 H         1 <0>         0.0607
     36 H8          1.2661   -2.3884   -0.3821 H         1 <0>         0.0611
     37 H9         -0.2836   -2.4046   -1.2575 H         1 <0>         0.0611
     38 H10         0.9279   -2.1597   -3.4071 H         1 <0>         0.0614
     39 H11         2.4777   -2.1435   -2.5317 H         1 <0>         0.0614
     40 H12         2.0030   -4.4117   -1.6494 H         1 <0>         0.0639
     41 H13         0.4533   -4.4279   -2.5247 H         1 <0>         0.0639
     42 H14         1.6648   -4.1829   -4.6743 H         1 <0>         0.0649
     43 H15         3.2146   -4.1667   -3.7990 H         1 <0>         0.0649
     44 H16         2.7399   -6.4349   -2.9166 H         1 <0>         0.0844
     45 H17         1.1901   -6.4511   -3.7919 H         1 <0>         0.0844
     46 H18         3.6130   -7.0408   -8.0708 H         1 <0>         0.0845
     47 H19         5.1628   -7.0246   -7.1954 H         1 <0>         0.0845
     48 H20         4.6882   -9.2928   -6.3131 H         1 <0>         0.0651
     49 H21         3.1384   -9.3090   -7.1884 H         1 <0>         0.0651
     50 H22         4.3499   -9.0640   -9.3380 H         1 <0>         0.0649
     51 H23         5.8997   -9.0478   -8.4627 H         1 <0>         0.0649
     52 H24         5.4250  -11.3160   -7.5803 H         1 <0>         0.0635
     53 H25         3.8753  -11.3322   -8.4556 H         1 <0>         0.0635
     54 H26         5.0868  -11.0873  -10.6052 H         1 <0>         0.0667
     55 H27         6.6366  -11.0711   -9.7299 H         1 <0>         0.0667
     56 H28         6.1619  -13.3393   -8.8475 H         1 <0>         0.0730
     57 H29         4.6122  -13.3555   -9.7228 H         1 <0>         0.0730
     58 H30         5.8237  -13.1106  -11.8724 H         1 <0>         0.1163
     59 H31         7.3735  -13.0944  -10.9971 H         1 <0>         0.1163
     60 H32         7.8608  -19.4662  -13.5765 H         1 <0>         0.1539
     61 H33         9.0842  -19.3110  -15.7296 H         1 <0>         0.1622
     62 H34         9.6086  -17.0990  -16.6728 H         1 <0>         0.1804
@<TRIPOS>BOND
     1    1    2 1
     2    1   29 1
     3    1   30 1
     4    1   31 1
     5    2    3 1
     6    2   32 1
     7    2   33 1
     8    3    4 1
     9    3   34 1
    10    3   35 1
    11    4    5 1
    12    4   36 1
    13    4   37 1
    14    5    6 1
    15    5   38 1
    16    5   39 1
    17    6    7 1
    18    6   40 1
    19    6   41 1
    20    7    8 1
    21    7   42 1
    22    7   43 1
    23    8    9 1
    24    8   44 1
    25    8   45 1
    26    9   10 3
    27   10   11 1
    28   11   12 1
    29   11   46 1
    30   11   47 1
    31   12   13 1
    32   12   48 1
    33   12   49 1
    34   13   14 1
    35   13   50 1
    36   13   51 1
    37   14   15 1
    38   14   52 1
    39   14   53 1
    40   15   16 1
    41   15   54 1
    42   15   55 1
    43   16   17 1
    44   16   56 1
    45   16   57 1
    46   17   18 1
    47   17   58 1
    48   17   59 1
    49   18   19 2
    50   18   20 1
    51   20   24 1
    52   20   21 2
    53   21   22 1
    54   22   28 ar
    55   22   23 ar
    56   23   24 1
    57   23   25 ar
    58   25   26 ar
    59   25   60 1
    60   26   27 ar
    61   26   61 1
    62   27   28 ar
    63   27   62 1
@<TRIPOS>MOLECULE
ZINC13611906
   40    42     0     0     0
SMALL
USER_CHARGES
1-oxazolo[4,5-b]pyridin-2-yl-6-phenyl-hexan-1-one
@<TRIPOS>ATOM
      1 C1         12.9435    3.6324   -0.1080 C.ar      1 <0>        -0.1261
      2 C2         12.2489    3.7492   -1.2975 C.ar      1 <0>        -0.1183
      3 C3         10.8841    3.9684   -1.2823 C.ar      1 <0>        -0.1188
      4 C4         10.2140    4.0712   -0.0776 C.ar      1 <0>        -0.0822
      5 C5         10.9095    3.9601    1.1119 C.ar      1 <0>        -0.1188
      6 C6         12.2734    3.7357    1.0967 C.ar      1 <0>        -0.1183
      7 C7          8.7262    4.3106   -0.0610 C.3       1 <0>        -0.0821
      8 C8          7.9935    2.9675   -0.0613 C.3       1 <0>        -0.1136
      9 C9          6.4830    3.2106   -0.0445 C.3       1 <0>        -0.1201
     10 C10         5.7503    1.8674   -0.0448 C.3       1 <0>        -0.1170
     11 C11         4.2398    2.1105   -0.0280 C.3       1 <0>        -0.1291
     12 C12         3.5181    0.7875   -0.0283 C.2       1 <0>         0.4484
     13 O1          4.1494   -0.2473   -0.0407 O.2       1 <0>        -0.4041
     14 C13         2.0450    0.7518   -0.0134 C.2       1 <0>         0.1963
     15 N1          1.2685    1.8055   -0.0004 N.2       1 <0>        -0.4079
     16 C14        -0.0170    1.4038    0.0098 C.ar      1 <0>         0.2203
     17 C15         0.0021   -0.0041    0.0020 C.ar      1 <0>        -0.0341
     18 O2          1.2990   -0.3703   -0.0123 O.3       1 <0>        -0.1790
     19 C16        -1.2008   -0.7007    0.0098 C.ar      1 <0>        -0.0413
     20 C17        -2.3778    0.0258    0.0249 C.ar      1 <0>        -0.1387
     21 C18        -2.3256    1.4135    0.0319 C.ar      1 <0>         0.1341
     22 N2         -1.1792    2.0550    0.0292 N.ar      1 <0>        -0.4301
     23 H1         14.0097    3.4608   -0.1199 H         1 <0>         0.1206
     24 H2         12.7725    3.6689   -2.2387 H         1 <0>         0.1212
     25 H3         10.3415    4.0597   -2.2116 H         1 <0>         0.1207
     26 H4         10.3866    4.0448    2.0531 H         1 <0>         0.1207
     27 H5         12.8162    3.6448    2.0260 H         1 <0>         0.1212
     28 H6          8.4401    4.8808   -0.9448 H         1 <0>         0.0727
     29 H7          8.4583    4.8705    0.8350 H         1 <0>         0.0728
     30 H8          8.2797    2.3973    0.8225 H         1 <0>         0.0652
     31 H9          8.2615    2.4077   -0.9574 H         1 <0>         0.0651
     32 H10         6.1969    3.7807   -0.9283 H         1 <0>         0.0676
     33 H11         6.2151    3.7704    0.8516 H         1 <0>         0.0679
     34 H12         6.0365    1.2972    0.8390 H         1 <0>         0.0742
     35 H13         6.0183    1.3076   -0.9408 H         1 <0>         0.0738
     36 H14         3.9774    2.6336   -0.8388 H         1 <0>         0.1035
     37 H15         3.9719    2.6703    0.8681 H         1 <0>         0.1166
     38 H16        -1.2161   -1.7805    0.0045 H         1 <0>         0.1540
     39 H17        -3.3306   -0.4826    0.0309 H         1 <0>         0.1623
     40 H18        -3.2467    1.9771    0.0437 H         1 <0>         0.1805
@<TRIPOS>BOND
     1    1    6 ar
     2    1    2 ar
     3    1   23 1
     4    2    3 ar
     5    2   24 1
     6    3    4 ar
     7    3   25 1
     8    4    5 ar
     9    4    7 1
    10    5    6 ar
    11    5   26 1
    12    6   27 1
    13    7    8 1
    14    7   28 1
    15    7   29 1
    16    8    9 1
    17    8   30 1
    18    8   31 1
    19    9   10 1
    20    9   32 1
    21    9   33 1
    22   10   11 1
    23   10   34 1
    24   10   35 1
    25   11   12 1
    26   11   36 1
    27   11   37 1
    28   12   13 2
    29   12   14 1
    30   14   18 1
    31   14   15 2
    32   15   16 1
    33   16   22 ar
    34   16   17 ar
    35   17   18 1
    36   17   19 ar
    37   19   20 ar
    38   19   38 1
    39   20   21 ar
    40   20   39 1
    41   21   22 ar
    42   21   40 1
@<TRIPOS>MOLECULE
ZINC59062597
   58    63     0     0     0
SMALL
USER_CHARGES

@<TRIPOS>ATOM
      1 C1         -0.0187    1.5258    0.0104 C.3       1 <0>        -0.1712
      2 C2          0.0021   -0.0041    0.0020 C.3       1 <0>         0.1267
      3 N1          0.7106   -0.4894    1.1889 N.am      1 <0>        -0.5386
      4 C3          2.0783   -0.7378    1.2769 C.ar      1 <0>         0.0924
      5 C4          3.1258   -0.6253    0.3754 C.ar      1 <0>        -0.1046
      6 C5          4.4084   -0.9549    0.7673 C.ar      1 <0>        -0.1086
      7 C6          4.6526   -1.3975    2.0561 C.ar      1 <0>        -0.1089
      8 C7          3.6156   -1.5133    2.9609 C.ar      1 <0>        -0.1038
      9 C8          2.3246   -1.1838    2.5770 C.ar      1 <0>         0.0912
     10 N2          1.0989   -1.1925    3.2385 N.am      1 <0>        -0.5340
     11 C9          0.1517   -0.7657    2.3822 C.2       1 <0>         0.6812
     12 O1         -1.0308   -0.6506    2.6457 O.2       1 <0>        -0.5496
     13 C10         0.8789   -1.5920    4.6307 C.3       1 <0>         0.1547
     14 H1          1.8280   -1.8855    5.0793 H         1 <0>         0.1005
     15 C11         0.2865   -0.4169    5.4118 C.3       1 <0>        -0.1364
     16 C12         0.0868   -0.8228    6.8738 C.3       1 <0>        -0.1289
     17 C13        -0.8967   -1.9952    6.9444 C.3       1 <0>         0.1219
     18 N3         -0.4060   -3.0768    6.0795 N.pl3     1 <0>        -0.5770
     19 C14        -0.0950   -2.7737    4.6758 C.3       1 <0>         0.1172
     20 C15        -0.2393   -4.3574    6.5776 C.ar      1 <0>         0.5807
     21 N4          0.2104   -5.3096    5.7725 N.ar      1 <0>        -0.5677
     22 C16         0.3843   -6.5472    6.2096 C.ar      1 <0>         0.2025
     23 C17         0.0910   -6.8472    7.5273 C.ar      1 <0>        -0.2697
     24 C18        -0.3823   -5.8221    8.3547 C.ar      1 <0>         0.2896
     25 N5         -0.5278   -4.5979    7.8462 N.ar      1 <0>        -0.5554
     26 C19        -0.7099   -6.0906    9.7693 C.2       1 <0>         0.0528
     27 C20        -1.1779   -5.1720   10.6484 C.2       1 <0>        -0.1250
     28 C21        -1.3586   -5.8797   11.9173 C.ar      1 <0>        -0.1424
     29 C22        -1.8028   -5.5048   13.1866 C.ar      1 <0>        -0.0617
     30 C23        -1.8552   -6.4338   14.1878 C.ar      1 <0>        -0.1368
     31 C24        -1.4695   -7.7456   13.9503 C.ar      1 <0>        -0.0837
     32 C25        -1.0281   -8.1352   12.7039 C.ar      1 <0>        -0.1096
     33 C26        -0.9669   -7.2079   11.6707 C.ar      1 <0>         0.0678
     34 O2         -0.5936   -7.2880   10.3779 O.3       1 <0>        -0.1832
     35 H2          1.0039    1.9031    0.0027 H         1 <0>         0.0607
     36 H3         -0.5459    1.8868   -0.8726 H         1 <0>         0.0767
     37 H4         -0.5289    1.8773    0.9072 H         1 <0>         0.0624
     38 H5         -1.0205   -0.3814    0.0098 H         1 <0>         0.0943
     39 H6          0.5123   -0.3556   -0.8948 H         1 <0>         0.0900
     40 H7          2.9391   -0.2810   -0.6310 H         1 <0>         0.1297
     41 H8          5.2244   -0.8673    0.0652 H         1 <0>         0.1336
     42 H9          5.6582   -1.6538    2.3552 H         1 <0>         0.1333
     43 H10         3.8098   -1.8596    3.9653 H         1 <0>         0.1274
     44 H11         0.9669    0.4331    5.3606 H         1 <0>         0.0716
     45 H12        -0.6741   -0.1396    4.9775 H         1 <0>         0.0863
     46 H13         1.0431   -1.1238    7.3016 H         1 <0>         0.0696
     47 H14        -0.3133    0.0220    7.4345 H         1 <0>         0.0873
     48 H15        -0.9666   -2.3521    7.9719 H         1 <0>         0.1030
     49 H16        -1.8786   -1.6696    6.6009 H         1 <0>         0.0717
     50 H17        -1.0116   -2.5121    4.1471 H         1 <0>         0.0854
     51 H18         0.3643   -3.6438    4.2066 H         1 <0>         0.1038
     52 H19         0.7510   -7.3146    5.5440 H         1 <0>         0.1745
     53 H20         0.2236   -7.8488    7.9089 H         1 <0>         0.1504
     54 H21        -1.3770   -4.1286   10.4529 H         1 <0>         0.1683
     55 H22        -2.1034   -4.4850   13.3767 H         1 <0>         0.1310
     56 H23        -2.1987   -6.1450   15.1702 H         1 <0>         0.1326
     57 H24        -1.5154   -8.4691   14.7508 H         1 <0>         0.1384
     58 H25        -0.7305   -9.1589   12.5307 H         1 <0>         0.1354
@<TRIPOS>BOND
     1    1    2 1
     2    1   35 1
     3    1   36 1
     4    1   37 1
     5    2    3 1
     6    2   38 1
     7    2   39 1
     8    3   11 am
     9    3    4 1
    10    4    9 ar
    11    4    5 ar
    12    5    6 ar
    13    5   40 1
    14    6    7 ar
    15    6   41 1
    16    7    8 ar
    17    7   42 1
    18    8    9 ar
    19    8   43 1
    20    9   10 1
    21   10   11 am
    22   10   13 1
    23   11   12 2
    24   13   14 1
    25   13   19 1
    26   13   15 1
    27   15   16 1
    28   15   44 1
    29   15   45 1
    30   16   17 1
    31   16   46 1
    32   16   47 1
    33   17   18 1
    34   17   48 1
    35   17   49 1
    36   18   19 1
    37   18   20 1
    38   19   50 1
    39   19   51 1
    40   20   25 ar
    41   20   21 ar
    42   21   22 ar
    43   22   23 ar
    44   22   52 1
    45   23   24 ar
    46   23   53 1
    47   24   25 ar
    48   24   26 1
    49   26   34 1
    50   26   27 2
    51   27   28 1
    52   27   54 1
    53   28   33 ar
    54   28   29 ar
    55   29   30 ar
    56   29   55 1
    57   30   31 ar
    58   30   56 1
    59   31   32 ar
    60   31   57 1
    61   32   33 ar
    62   32   58 1
    63   33   34 1
@<TRIPOS>MOLECULE
ZINC03949004
   47    49     0     0     0
SMALL
USER_CHARGES
7-phenyl-1-[5-(2-pyridyl)oxazol-2-yl]-heptan-1-one
@<TRIPOS>ATOM
      1 C1         16.2362    9.3508   -0.0966 C.ar      1 <0>        -0.1264
      2 C2         15.8809    8.7580    1.1006 C.ar      1 <0>        -0.1182
      3 C3         15.1481    7.5859    1.1008 C.ar      1 <0>        -0.1191
      4 C4         14.7709    7.0063   -0.0962 C.ar      1 <0>        -0.0815
      5 C5         15.1310    7.5961   -1.2934 C.ar      1 <0>        -0.1191
      6 C6         15.8594    8.7710   -1.2936 C.ar      1 <0>        -0.1182
      7 C7         13.9723    5.7283   -0.0959 C.3       1 <0>        -0.0827
      8 C8         12.4788    6.0601   -0.0804 C.3       1 <0>        -0.1132
      9 C9         11.6680    4.7626   -0.0802 C.3       1 <0>        -0.1206
     10 C10        10.1745    5.0944   -0.0647 C.3       1 <0>        -0.1198
     11 C11         9.3638    3.7969   -0.0645 C.3       1 <0>        -0.1162
     12 C12         7.8703    4.1287   -0.0490 C.3       1 <0>        -0.1287
     13 C13         7.0717    2.8507   -0.0488 C.2       1 <0>         0.4496
     14 O1          7.6414    1.7794   -0.0599 O.2       1 <0>        -0.4203
     15 C14         5.6076    2.9018   -0.0351 C.2       1 <0>         0.1101
     16 N1          4.8813    4.0000   -0.0219 N.2       1 <0>        -0.4181
     17 C15         3.5948    3.6676   -0.0177 C.2       1 <0>         0.0189
     18 C16         3.5211    2.2906   -0.0189 C.2       1 <0>         0.0180
     19 O2          4.7884    1.8333   -0.0335 O.3       1 <0>        -0.1604
     20 C17         2.2904    1.4744   -0.0120 C.ar      1 <0>         0.1894
     21 C18         2.3828    0.0814   -0.0203 C.ar      1 <0>        -0.1443
     22 C19         1.2202   -0.6691   -0.0132 C.ar      1 <0>        -0.0695
     23 C20         0.0021   -0.0041    0.0020 C.ar      1 <0>        -0.1588
     24 C21        -0.0167    1.3796    0.0096 C.ar      1 <0>         0.1126
     25 N2          1.1034    2.0715    0.0026 N.ar      1 <0>        -0.4629
     26 H1         16.8084   10.2667   -0.0967 H         1 <0>         0.1206
     27 H2         16.1756    9.2107    2.0358 H         1 <0>         0.1212
     28 H3         14.8705    7.1227    2.0362 H         1 <0>         0.1205
     29 H4         14.8401    7.1410   -2.2286 H         1 <0>         0.1205
     30 H5         16.1372    9.2340   -2.2289 H         1 <0>         0.1212
     31 H6         14.2236    5.1430    0.7886 H         1 <0>         0.0720
     32 H7         14.2074    5.1529   -0.9913 H         1 <0>         0.0720
     33 H8         12.2274    6.6455   -0.9649 H         1 <0>         0.0636
     34 H9         12.2437    6.6356    0.8149 H         1 <0>         0.0637
     35 H10        11.9194    4.1773    0.8043 H         1 <0>         0.0640
     36 H11        11.9031    4.1872   -0.9756 H         1 <0>         0.0638
     37 H12         9.9232    5.6798   -0.9492 H         1 <0>         0.0658
     38 H13         9.9395    5.6699    0.8307 H         1 <0>         0.0661
     39 H14         9.6151    3.2116    0.8200 H         1 <0>         0.0727
     40 H15         9.5988    3.2215   -0.9598 H         1 <0>         0.0723
     41 H16         7.6397    4.6657   -0.8605 H         1 <0>         0.1005
     42 H17         7.6352    4.7042    0.8464 H         1 <0>         0.1128
     43 H18         2.7589    4.3515   -0.0115 H         1 <0>         0.2054
     44 H19         3.3477   -0.4035   -0.0326 H         1 <0>         0.1420
     45 H20         1.2599   -1.7483   -0.0198 H         1 <0>         0.1446
     46 H21        -0.9229   -0.5615    0.0082 H         1 <0>         0.1447
     47 H22        -0.9634    1.8992    0.0169 H         1 <0>         0.1693
@<TRIPOS>BOND
     1    1    6 ar
     2    1    2 ar
     3    1   26 1
     4    2    3 ar
     5    2   27 1
     6    3    4 ar
     7    3   28 1
     8    4    5 ar
     9    4    7 1
    10    5    6 ar
    11    5   29 1
    12    6   30 1
    13    7    8 1
    14    7   31 1
    15    7   32 1
    16    8    9 1
    17    8   33 1
    18    8   34 1
    19    9   10 1
    20    9   35 1
    21    9   36 1
    22   10   11 1
    23   10   37 1
    24   10   38 1
    25   11   12 1
    26   11   39 1
    27   11   40 1
    28   12   13 1
    29   12   41 1
    30   12   42 1
    31   13   14 2
    32   13   15 1
    33   15   19 1
    34   15   16 2
    35   16   17 1
    36   17   18 2
    37   17   43 1
    38   18   19 1
    39   18   20 1
    40   20   25 ar
    41   20   21 ar
    42   21   22 ar
    43   21   44 1
    44   22   23 ar
    45   22   45 1
    46   23   24 ar
    47   23   46 1
    48   24   25 ar
    49   24   47 1
@<TRIPOS>MOLECULE
ZINC01238258
   47    49     0     0     0
SMALL
USER_CHARGES

@<TRIPOS>ATOM
      1 C1         -0.0527    1.4461   -0.5020 C.ar      1 <0>        -0.1213
      2 C2          1.1355    2.1416   -0.3862 C.ar      1 <0>        -0.0814
      3 C3          2.3435    1.4531   -0.2853 C.ar      1 <0>        -0.0507
      4 C4          2.3522    0.0622   -0.3008 C.ar      1 <0>        -0.0474
      5 C5          1.1512   -0.6352   -0.4172 C.ar      1 <0>        -0.1363
      6 C6         -0.0523    0.0660   -0.5180 C.ar      1 <0>        -0.0837
      7 C7          1.1513   -2.1137   -0.4349 C.2       1 <0>         0.5639
      8 O1          2.1998   -2.7225   -0.3479 O.2       1 <0>        -0.5372
      9 N1         -0.0111   -2.7864   -0.5476 N.am      1 <0>        -0.8500
     10 C8          3.6183    2.2029   -0.1621 C.ar      1 <0>        -0.0318
     11 C9          4.8270    1.5155   -0.0669 C.ar      1 <0>        -0.1051
     12 C10         6.0114    2.2150    0.0471 C.ar      1 <0>        -0.0982
     13 C11         6.0029    3.5974    0.0678 C.ar      1 <0>        -0.1120
     14 C12         4.8036    4.2893   -0.0265 C.ar      1 <0>         0.1097
     15 C13         3.6107    3.5951   -0.1470 C.ar      1 <0>        -0.1110
     16 O2          4.7997    5.6485   -0.0053 O.3       1 <0>        -0.3081
     17 C14         4.3007    6.2625    1.0846 C.2       1 <0>         0.6443
     18 O3          3.9713    5.6074    2.0536 O.2       1 <0>        -0.5505
     19 N2          4.1666    7.6034    1.1005 N.am      1 <0>        -0.7020
     20 C15         3.6238    8.2713    2.2861 C.3       1 <0>         0.1619
     21 C16         4.7495    8.5188    3.2923 C.3       1 <0>        -0.1331
     22 C17         4.1826    9.2162    4.5305 C.3       1 <0>        -0.1173
     23 C18         3.5601   10.5530    4.1226 C.3       1 <0>        -0.1239
     24 C19         2.4344   10.3056    3.1164 C.3       1 <0>        -0.1158
     25 C20         3.0013    9.6081    1.8783 C.3       1 <0>        -0.1270
     26 H1         -0.9860    1.9845   -0.5757 H         1 <0>         0.1344
     27 H2          1.1285    3.2216   -0.3743 H         1 <0>         0.1303
     28 H3          3.2858   -0.4751   -0.2232 H         1 <0>         0.1420
     29 H4         -0.9841   -0.4724   -0.6087 H         1 <0>         0.1291
     30 H5         -0.8478   -2.3006   -0.6171 H         1 <0>         0.4014
     31 H6         -0.0110   -3.7563   -0.5593 H         1 <0>         0.4072
     32 H7          4.8369    0.4356   -0.0821 H         1 <0>         0.1353
     33 H8          6.9473    1.6811    0.1208 H         1 <0>         0.1381
     34 H9          6.9321    4.1403    0.1579 H         1 <0>         0.1343
     35 H10         2.6770    4.1323   -0.2246 H         1 <0>         0.1305
     36 H11         4.4295    8.1264    0.3270 H         1 <0>         0.4079
     37 H12         2.8614    7.6395    2.7419 H         1 <0>         0.0931
     38 H13         5.1929    7.5664    3.5829 H         1 <0>         0.0691
     39 H14         5.5118    9.1505    2.8365 H         1 <0>         0.0668
     40 H15         3.4202    8.5845    4.9863 H         1 <0>         0.0658
     41 H16         4.9846    9.3925    5.2473 H         1 <0>         0.0676
     42 H17         3.1562   11.0499    5.0047 H         1 <0>         0.0662
     43 H18         4.3224   11.1848    3.6668 H         1 <0>         0.0640
     44 H19         1.6720    9.6738    3.5722 H         1 <0>         0.0667
     45 H20         1.9909   11.2579    2.8259 H         1 <0>         0.0706
     46 H21         3.7636   10.2399    1.4224 H         1 <0>         0.0718
     47 H22         2.1993    9.4318    1.1614 H         1 <0>         0.0718
@<TRIPOS>BOND
     1    1    6 ar
     2    1    2 ar
     3    1   26 1
     4    2    3 ar
     5    2   27 1
     6    3    4 ar
     7    3   10 1
     8    4    5 ar
     9    4   28 1
    10    5    6 ar
    11    5    7 1
    12    6   29 1
    13    7    8 2
    14    7    9 am
    15    9   30 1
    16    9   31 1
    17   10   15 ar
    18   10   11 ar
    19   11   12 ar
    20   11   32 1
    21   12   13 ar
    22   12   33 1
    23   13   14 ar
    24   13   34 1
    25   14   15 ar
    26   14   16 1
    27   15   35 1
    28   16   17 1
    29   17   18 2
    30   17   19 am
    31   19   20 1
    32   19   36 1
    33   20   25 1
    34   20   21 1
    35   20   37 1
    36   21   22 1
    37   21   38 1
    38   21   39 1
    39   22   23 1
    40   22   40 1
    41   22   41 1
    42   23   24 1
    43   23   42 1
    44   23   43 1
    45   24   25 1
    46   24   44 1
    47   24   45 1
    48   25   46 1
    49   25   47 1
@<TRIPOS>MOLECULE
ZINC14979684
   76    77     0     0     0
SMALL
USER_CHARGES
(5Z,8Z,11Z,14Z)-N-[2-(5-hydroxy-1H-indol-3-yl)ethyl]icosa-5,8,11,14-tetraenamide
@<TRIPOS>ATOM
      1 C1         16.0376    7.9001  -14.5743 C.3       1 <0>        -0.1543
      2 C2         15.0760    8.3925  -13.4909 C.3       1 <0>        -0.1259
      3 C3         15.7779    8.3577  -12.1318 C.3       1 <0>        -0.1214
      4 C4         14.8163    8.8500  -11.0484 C.3       1 <0>        -0.1145
      5 C5         15.5183    8.8152   -9.6894 C.3       1 <0>        -0.1026
      6 C6         14.5711    9.3002   -8.6222 C.2       1 <0>        -0.1581
      7 C7         14.3626    8.5738   -7.5522 C.2       1 <0>        -0.1533
      8 C8         15.1886    7.3372   -7.3082 C.3       1 <0>        -0.0837
      9 C9         15.8091    7.4100   -5.9368 C.2       1 <0>        -0.1513
     10 C10        15.6477    6.4222   -5.0916 C.2       1 <0>        -0.1520
     11 C11        14.9950    5.1417   -5.5448 C.3       1 <0>        -0.0837
     12 C12        15.8874    3.9757   -5.2057 C.2       1 <0>        -0.1522
     13 C13        15.4146    2.9683   -4.5145 C.2       1 <0>        -0.1511
     14 C14        13.9427    2.8955   -4.1994 C.3       1 <0>        -0.0833
     15 C15        13.4040    1.5536   -4.6238 C.2       1 <0>        -0.1530
     16 C16        12.7512    0.8089   -3.7663 C.2       1 <0>        -0.1563
     17 C17        12.3956    1.3582   -2.4088 C.3       1 <0>        -0.1018
     18 C18        10.8982    1.1690   -2.1583 C.3       1 <0>        -0.0987
     19 C19        10.5372    1.7268   -0.7801 C.3       1 <0>        -0.1415
     20 C20         9.0622    1.5404   -0.5334 C.2       1 <0>         0.5104
     21 O1          8.3681    1.0134   -1.3768 O.2       1 <0>        -0.5380
     22 N1          8.5144    1.9595    0.6246 N.am      1 <0>        -0.7355
     23 C21         7.0806    1.7783    0.8644 C.3       1 <0>         0.1235
     24 C22         6.7196    2.3360    2.2426 C.3       1 <0>        -0.0529
     25 C23         5.2446    2.1497    2.4893 C.2       1 <0>        -0.1744
     26 C24         4.2774    3.0531    2.2650 C.2       1 <0>         0.0674
     27 N2          3.0611    2.5295    2.6086 N.pl3     1 <0>        -0.5937
     28 H1          2.2131    2.9948    2.5351 H         1 <0>         0.4185
     29 C25         3.2205    1.2415    3.0749 C.ar      1 <0>         0.0884
     30 C26         4.5951    0.9487    3.0202 C.ar      1 <0>        -0.0842
     31 C27         5.0596   -0.3007    3.4361 C.ar      1 <0>        -0.0979
     32 C28         4.1624   -1.2423    3.8996 C.ar      1 <0>         0.0792
     33 C29         2.8024   -0.9492    3.9530 C.ar      1 <0>        -0.1210
     34 C30         2.3331    0.2798    3.5453 C.ar      1 <0>        -0.1121
     35 O2          4.6089   -2.4608    4.3060 O.3       1 <0>        -0.4981
     36 H2         15.5376    7.9249  -15.5425 H         1 <0>         0.0535
     37 H3         16.9152    8.5460  -14.6020 H         1 <0>         0.0534
     38 H4         16.3452    6.8787  -14.3502 H         1 <0>         0.0534
     39 H5         14.1984    7.7466  -13.4632 H         1 <0>         0.0606
     40 H6         14.7685    9.4139  -13.7149 H         1 <0>         0.0605
     41 H7         16.6555    9.0036  -12.1595 H         1 <0>         0.0613
     42 H8         16.0855    7.3363  -11.9078 H         1 <0>         0.0611
     43 H9         13.9387    8.2042  -11.0207 H         1 <0>         0.0620
     44 H10        14.5088    9.8715  -11.2724 H         1 <0>         0.0616
     45 H11        16.3959    9.4611   -9.7171 H         1 <0>         0.0688
     46 H12        15.8258    7.7938   -9.4653 H         1 <0>         0.0757
     47 H13        14.0642   10.2466   -8.7396 H         1 <0>         0.1088
     48 H14        13.5988    8.8612   -6.8448 H         1 <0>         0.1085
     49 H15        15.9753    7.2716   -8.0599 H         1 <0>         0.0838
     50 H16        14.5507    6.4557   -7.3721 H         1 <0>         0.0829
     51 H17        16.3869    8.2765   -5.6508 H         1 <0>         0.1096
     52 H18        15.9823    6.5256   -4.0700 H         1 <0>         0.1098
     53 H19        14.8364    5.1765   -6.6227 H         1 <0>         0.0832
     54 H20        14.0361    5.0242   -5.0401 H         1 <0>         0.0835
     55 H21        16.9168    3.9705   -5.5326 H         1 <0>         0.1097
     56 H22        16.0797    2.1900   -4.1705 H         1 <0>         0.1098
     57 H23        13.4167    3.6846   -4.7366 H         1 <0>         0.0829
     58 H24        13.7939    3.0242   -3.1273 H         1 <0>         0.0839
     59 H25        13.5560    1.2059   -5.6350 H         1 <0>         0.1091
     60 H26        12.4679   -0.1988   -4.0322 H         1 <0>         0.1103
     61 H27        12.6389    2.4201   -2.3714 H         1 <0>         0.0764
     62 H28        12.9619    0.8286   -1.6427 H         1 <0>         0.0706
     63 H29        10.6549    0.1072   -2.1957 H         1 <0>         0.0706
     64 H30        10.3319    1.6987   -2.9244 H         1 <0>         0.0707
     65 H31        10.7805    2.7886   -0.7427 H         1 <0>         0.0934
     66 H32        11.1035    1.1971   -0.0141 H         1 <0>         0.0940
     67 H33         9.0696    2.3810    1.2991 H         1 <0>         0.4007
     68 H34         6.8373    0.7164    0.8270 H         1 <0>         0.0677
     69 H35         6.5143    2.3080    0.0983 H         1 <0>         0.0670
     70 H36         6.9629    3.3979    2.2800 H         1 <0>         0.0772
     71 H37         7.2859    1.8064    3.0087 H         1 <0>         0.0772
     72 H38         4.4359    4.0462    1.8713 H         1 <0>         0.1723
     73 H39         6.1144   -0.5293    3.3951 H         1 <0>         0.1276
     74 H40         2.1089   -1.6924    4.3178 H         1 <0>         0.1326
     75 H41         1.2756    0.4950    3.5868 H         1 <0>         0.1257
     76 H42         4.6390   -3.1235    3.6024 H         1 <0>         0.3878
@<TRIPOS>BOND
     1    1    2 1
     2    1   36 1
     3    1   37 1
     4    1   38 1
     5    2    3 1
     6    2   39 1
     7    2   40 1
     8    3    4 1
     9    3   41 1
    10    3   42 1
    11    4    5 1
    12    4   43 1
    13    4   44 1
    14    5    6 1
    15    5   45 1
    16    5   46 1
    17    6    7 2
    18    6   47 1
    19    7    8 1
    20    7   48 1
    21    8    9 1
    22    8   49 1
    23    8   50 1
    24    9   10 2
    25    9   51 1
    26   10   11 1
    27   10   52 1
    28   11   12 1
    29   11   53 1
    30   11   54 1
    31   12   13 2
    32   12   55 1
    33   13   14 1
    34   13   56 1
    35   14   15 1
    36   14   57 1
    37   14   58 1
    38   15   16 2
    39   15   59 1
    40   16   17 1
    41   16   60 1
    42   17   18 1
    43   17   61 1
    44   17   62 1
    45   18   19 1
    46   18   63 1
    47   18   64 1
    48   19   20 1
    49   19   65 1
    50   19   66 1
    51   20   21 2
    52   20   22 am
    53   22   23 1
    54   22   67 1
    55   23   24 1
    56   23   68 1
    57   23   69 1
    58   24   25 1
    59   24   70 1
    60   24   71 1
    61   25   30 1
    62   25   26 2
    63   26   27 1
    64   26   72 1
    65   27   28 1
    66   27   29 1
    67   29   34 ar
    68   29   30 ar
    69   30   31 ar
    70   31   32 ar
    71   31   73 1
    72   32   33 ar
    73   32   35 1
    74   33   34 ar
    75   33   74 1
    76   34   75 1
    77   35   76 1
@<TRIPOS>MOLECULE
ZINC12370056
   42    45     0     0     0
SMALL
USER_CHARGES
4-(4-benzyloxyphenyl)-5-(5-nitrothiazol-2-yl)sulfanyl-2H-1,2,4-triazol-3-one
@<TRIPOS>ATOM
      1 C1         -9.2476   14.8134    0.2422 C.ar      1 <0>        -0.1070
      2 C2         -9.0768   14.1360    1.4350 C.ar      1 <0>        -0.1228
      3 C3         -8.5515   12.8573    1.4347 C.ar      1 <0>        -0.0943
      4 C4         -8.1965   12.2563    0.2415 C.ar      1 <0>        -0.1011
      5 C5         -8.3620   12.9358   -0.9508 C.ar      1 <0>        -0.0944
      6 C6         -8.8926   14.2123   -0.9510 C.ar      1 <0>        -0.1227
      7 C7         -7.6234   10.8625    0.2412 C.3       1 <0>         0.0996
      8 O1         -8.6840    9.9114    0.1288 O.3       1 <0>        -0.3017
      9 C8         -8.3356    8.5974    0.1137 C.ar      1 <0>         0.1340
     10 C9         -9.3158    7.6213    0.0068 C.ar      1 <0>        -0.1142
     11 C10        -8.9625    6.2866   -0.0091 C.ar      1 <0>        -0.0892
     12 C11        -7.6261    5.9214    0.0824 C.ar      1 <0>         0.1063
     13 C12        -6.6461    6.8984    0.1952 C.ar      1 <0>        -0.0788
     14 C13        -7.0001    8.2329    0.2057 C.ar      1 <0>        -0.1769
     15 N1         -7.2667    4.5656    0.0668 N.am      1 <0>        -0.4546
     16 C14        -6.0150    4.0586    0.0300 C.2       1 <0>         0.6287
     17 O2         -4.9808    4.6964    0.0039 O.2       1 <0>        -0.5246
     18 N2         -6.1247    2.7163    0.0208 N.am      1 <0>        -0.4700
     19 H1         -5.3810    2.0941   -0.0074 H         1 <0>         0.4672
     20 N3         -7.3674    2.3865    0.0555 N.2       1 <0>        -0.1732
     21 C15        -8.1182    3.4847    0.0886 C.2       1 <0>         0.0988
     22 S1         -9.8284    3.5424    0.1412 S.3       1 <0>         0.4136
     23 C16       -10.1826    1.8674    0.1371 C.2       1 <0>        -0.0200
     24 N4         -9.3412    0.8256    0.1026 N.2       1 <0>        -0.4451
     25 C17        -9.8027   -0.3850    0.1124 C.2       1 <0>         0.1723
     26 C18       -11.1875   -0.5849    0.1464 C.2       1 <0>        -0.2124
     27 S2        -11.7710    1.0512    0.1782 S.3       1 <0>         0.3105
     28 N5        -11.9516   -1.8533    0.1586 N.pl3     1 <0>         0.0434
     29 O3        -11.3151   -3.0059    0.1299 O.2       1 <0>        -0.1548
     30 O4        -13.2676   -1.8289    0.2037 O.3       1 <0>        -0.1726
     31 H2         -9.6586   15.8121    0.2424 H         1 <0>         0.1255
     32 H3         -9.3542   14.6056    2.3672 H         1 <0>         0.1265
     33 H4         -8.4181   12.3281    2.3666 H         1 <0>         0.1248
     34 H5         -8.0805   12.4679   -1.8826 H         1 <0>         0.1248
     35 H6         -9.0263   14.7414   -1.8829 H         1 <0>         0.1265
     36 H7         -7.0802   10.6928    1.1708 H         1 <0>         0.0756
     37 H8         -6.9432   10.7495   -0.6030 H         1 <0>         0.0755
     38 H9        -10.3553    7.9055   -0.0644 H         1 <0>         0.1507
     39 H10        -9.7256    5.5269   -0.0924 H         1 <0>         0.1229
     40 H11        -5.6068    6.6147    0.2705 H         1 <0>         0.1593
     41 H12        -6.2375    8.9931    0.2892 H         1 <0>         0.1432
     42 H13        -9.1282   -1.2282    0.0908 H         1 <0>         0.2006
@<TRIPOS>BOND
     1    1    6 ar
     2    1    2 ar
     3    1   31 1
     4    2    3 ar
     5    2   32 1
     6    3    4 ar
     7    3   33 1
     8    4    5 ar
     9    4    7 1
    10    5    6 ar
    11    5   34 1
    12    6   35 1
    13    7    8 1
    14    7   36 1
    15    7   37 1
    16    8    9 1
    17    9   14 ar
    18    9   10 ar
    19   10   11 ar
    20   10   38 1
    21   11   12 ar
    22   11   39 1
    23   12   13 ar
    24   12   15 1
    25   13   14 ar
    26   13   40 1
    27   14   41 1
    28   15   21 1
    29   15   16 am
    30   16   17 2
    31   16   18 am
    32   18   19 1
    33   18   20 1
    34   20   21 2
    35   21   22 1
    36   22   23 1
    37   23   27 1
    38   23   24 2
    39   24   25 1
    40   25   26 2
    41   25   42 1
    42   26   27 1
    43   26   28 1
    44   28   29 2
    45   28   30 1
@<TRIPOS>MOLECULE
ZINC00172316
   39    41     0     0     0
SMALL
USER_CHARGES
1-(3-methylbenzothiophen-2-yl)ethylideneamino anilinoformate
@<TRIPOS>ATOM
      1 C1          3.7451    3.4630   -0.7265 C.3       1 <0>        -0.1120
      2 C2          2.3464    4.0225   -0.6837 C.2       1 <0>        -0.0482
      3 C3          1.2398    3.1666   -0.8396 C.ar      1 <0>        -0.0941
      4 C4          1.2376    1.7632   -1.0446 C.ar      1 <0>        -0.0651
      5 C5          0.0698    1.0819   -1.1762 C.ar      1 <0>        -0.1250
      6 C6         -1.1595    1.7269   -1.1211 C.ar      1 <0>        -0.0851
      7 C7         -1.2025    3.0918   -0.9176 C.ar      1 <0>        -0.0813
      8 C8         -0.0258    3.7958   -0.7825 C.ar      1 <0>        -0.1074
      9 S1          0.3739    5.5055   -0.5211 S.3       1 <0>         0.0747
     10 C9          2.1517    5.3546   -0.4941 C.2       1 <0>        -0.1153
     11 C10         3.1570    6.4097   -0.3123 C.2       1 <0>         0.1899
     12 N1          4.4189    6.1115   -0.3215 N.2       1 <0>        -0.3297
     13 O1          5.2526    6.9865   -0.1707 O.3       1 <0>        -0.1204
     14 C11         6.5448    6.6094   -0.1907 C.2       1 <0>         0.6522
     15 O2          6.8342    5.4405   -0.3538 O.2       1 <0>        -0.5035
     16 N2          7.5175    7.5284   -0.0297 N.am      1 <0>        -0.6428
     17 C12         8.8541    7.1239    0.0610 C.ar      1 <0>         0.1543
     18 C13         9.1757    5.9143    0.6626 C.ar      1 <0>        -0.1197
     19 C14        10.4954    5.5155    0.7457 C.ar      1 <0>        -0.0977
     20 C15        11.4968    6.3242    0.2402 C.ar      1 <0>        -0.1287
     21 C16        11.1802    7.5319   -0.3542 C.ar      1 <0>        -0.0986
     22 C17         9.8620    7.9339   -0.4452 C.ar      1 <0>        -0.1378
     23 C18         2.7221    7.8391   -0.1150 C.3       1 <0>        -0.1484
     24 H1          4.1106    3.4766   -1.7533 H         1 <0>         0.0746
     25 H2          4.3986    4.0702   -0.1001 H         1 <0>         0.0978
     26 H3          3.7376    2.4376   -0.3570 H         1 <0>         0.0625
     27 H4          2.1753    1.2299   -1.0963 H         1 <0>         0.1282
     28 H5          0.0978    0.0136   -1.3318 H         1 <0>         0.1296
     29 H6         -2.0745    1.1643   -1.2329 H         1 <0>         0.1368
     30 H7         -2.1517    3.6047   -0.8692 H         1 <0>         0.1339
     31 H8          7.2910    8.4701    0.0233 H         1 <0>         0.4198
     32 H9          8.3945    5.2844    1.0616 H         1 <0>         0.1360
     33 H10        10.7459    4.5732    1.2101 H         1 <0>         0.1292
     34 H11        12.5283    6.0120    0.3102 H         1 <0>         0.1269
     35 H12        11.9646    8.1612   -0.7481 H         1 <0>         0.1306
     36 H13         9.6155    8.8774   -0.9093 H         1 <0>         0.1295
     37 H14         2.5895    8.0349    0.9491 H         1 <0>         0.0894
     38 H15         3.4828    8.5090   -0.5157 H         1 <0>         0.0820
     39 H16         1.7793    8.0071   -0.6356 H         1 <0>         0.0829
@<TRIPOS>BOND
     1    1    2 1
     2    1   24 1
     3    1   25 1
     4    1   26 1
     5    2   10 2
     6    2    3 1
     7    3    8 ar
     8    3    4 ar
     9    4    5 ar
    10    4   27 1
    11    5    6 ar
    12    5   28 1
    13    6    7 ar
    14    6   29 1
    15    7    8 ar
    16    7   30 1
    17    8    9 1
    18    9   10 1
    19   10   11 1
    20   11   12 2
    21   11   23 1
    22   12   13 1
    23   13   14 1
    24   14   15 2
    25   14   16 am
    26   16   17 1
    27   16   31 1
    28   17   22 ar
    29   17   18 ar
    30   18   19 ar
    31   18   32 1
    32   19   20 ar
    33   19   33 1
    34   20   21 ar
    35   20   34 1
    36   21   22 ar
    37   21   35 1
    38   22   36 1
    39   23   37 1
    40   23   38 1
    41   23   39 1
@<TRIPOS>MOLECULE
ZINC28710852
   60    60     0     0     0
SMALL
USER_CHARGES
[(2S)-oxiran-2-yl]methyl (9Z,12Z)-octadeca-9,12-dienoate
@<TRIPOS>ATOM
      1 C1         -4.5529   -7.1633    1.8142 C.3       1 <0>        -0.1556
      2 C2         -3.3125   -6.5607    2.4769 C.3       1 <0>        -0.1264
      3 C3         -3.4275   -5.0351    2.4823 C.3       1 <0>        -0.1219
      4 C4         -2.1870   -4.4326    3.1451 C.3       1 <0>        -0.1146
      5 C5         -2.3020   -2.9069    3.1505 C.3       1 <0>        -0.1032
      6 C6         -1.0802   -2.3134    3.8033 C.2       1 <0>        -0.1606
      7 C7         -0.3780   -1.4038    3.1742 C.2       1 <0>        -0.1547
      8 C8         -0.8819   -0.8273    1.8762 C.3       1 <0>        -0.0836
      9 C9         -0.8842    0.6772    1.9621 C.2       1 <0>        -0.1547
     10 C10        -0.2685    1.3864    1.0488 C.2       1 <0>        -0.1609
     11 C11         0.2952    0.7122   -0.1754 C.3       1 <0>        -0.1026
     12 C12        -0.2180    1.4215   -1.4302 C.3       1 <0>        -0.1148
     13 C13         0.3544    0.7370   -2.6731 C.3       1 <0>        -0.1209
     14 C14        -0.1589    1.4463   -3.9278 C.3       1 <0>        -0.1210
     15 C15         0.4135    0.7618   -5.1707 C.3       1 <0>        -0.1203
     16 C16        -0.0997    1.4711   -6.4255 C.3       1 <0>        -0.1115
     17 C17         0.4726    0.7867   -7.6684 C.3       1 <0>        -0.1155
     18 C18        -0.0329    1.4853   -8.9043 C.2       1 <0>         0.4632
     19 O1         -0.7748    2.4333   -8.8015 O.2       1 <0>        -0.5047
     20 O2          0.3411    1.0543  -10.1192 O.3       1 <0>        -0.3603
     21 C19        -0.1845    1.7750  -11.2649 C.3       1 <0>         0.0459
     22 C20         0.3480    1.1435  -12.5528 C.3       1 <0>        -0.0765
     23 H1          1.2605    0.7567  -12.0756 H         1 <0>         0.1639
     24 C21         0.0055    1.8285  -13.8773 C.3       1 <0>        -0.0011
     25 O3         -0.6030    0.6010  -13.4711 O.3       1 <0>        -0.3028
     26 H2         -4.4702   -8.2602    1.8103 H         1 <0>         0.0539
     27 H3         -4.6300   -6.7977    0.7796 H         1 <0>         0.0537
     28 H4         -5.4502   -6.8652    2.3763 H         1 <0>         0.0538
     29 H5         -3.2354   -6.9263    3.5115 H         1 <0>         0.0609
     30 H6         -2.4151   -6.8588    1.9149 H         1 <0>         0.0608
     31 H7         -3.5046   -4.6696    1.4477 H         1 <0>         0.0612
     32 H8         -4.3249   -4.7370    3.0443 H         1 <0>         0.0616
     33 H9         -2.1100   -4.7982    4.1797 H         1 <0>         0.0619
     34 H10        -1.2896   -4.7307    2.5831 H         1 <0>         0.0621
     35 H11        -2.3791   -2.5414    2.1159 H         1 <0>         0.0762
     36 H12        -3.1994   -2.6088    3.7125 H         1 <0>         0.0687
     37 H13        -0.7780   -2.6439    4.8080 H         1 <0>         0.1104
     38 H14         0.5794   -1.0608    3.5934 H         1 <0>         0.1098
     39 H15        -0.2250   -1.1466    1.0537 H         1 <0>         0.0839
     40 H16        -1.9049   -1.1854    1.6885 H         1 <0>         0.0837
     41 H17        -1.4029    1.1799    2.7917 H         1 <0>         0.1098
     42 H18        -0.1630    2.4740    1.1755 H         1 <0>         0.1103
     43 H19         1.3937    0.7630   -0.1489 H         1 <0>         0.0688
     44 H20        -0.0228   -0.3407   -0.1934 H         1 <0>         0.0762
     45 H21        -1.3165    1.3707   -1.4567 H         1 <0>         0.0624
     46 H22         0.1000    2.4744   -1.4122 H         1 <0>         0.0622
     47 H23         1.4529    0.7879   -2.6466 H         1 <0>         0.0622
     48 H24         0.0365   -0.3159   -2.6911 H         1 <0>         0.0618
     49 H25        -1.2574    1.3954   -3.9542 H         1 <0>         0.0632
     50 H26         0.1590    2.4992   -3.9098 H         1 <0>         0.0633
     51 H27         1.5120    0.8126   -5.1441 H         1 <0>         0.0655
     52 H28         0.0955   -0.2911   -5.1887 H         1 <0>         0.0653
     53 H29        -1.1982    1.4203   -6.4520 H         1 <0>         0.0728
     54 H30         0.2183    2.5240   -6.4075 H         1 <0>         0.0730
     55 H31         1.5711    0.8375   -7.6419 H         1 <0>         0.1085
     56 H32         0.1546   -0.2662   -7.6864 H         1 <0>         0.1082
     57 H33        -1.2833    1.7231  -11.2581 H         1 <0>         0.0757
     58 H34         0.1332    2.8269  -11.2137 H         1 <0>         0.0900
     59 H35        -0.3970    2.8325  -13.6775 H         1 <0>         0.1235
     60 H36         0.9138    1.9133  -14.4919 H         1 <0>         0.1300
@<TRIPOS>BOND
     1    1    2 1
     2    1   26 1
     3    1   27 1
     4    1   28 1
     5    2    3 1
     6    2   29 1
     7    2   30 1
     8    3    4 1
     9    3   31 1
    10    3   32 1
    11    4    5 1
    12    4   33 1
    13    4   34 1
    14    5    6 1
    15    5   35 1
    16    5   36 1
    17    6    7 2
    18    6   37 1
    19    7    8 1
    20    7   38 1
    21    8    9 1
    22    8   39 1
    23    8   40 1
    24    9   10 2
    25    9   41 1
    26   10   11 1
    27   10   42 1
    28   11   12 1
    29   11   43 1
    30   11   44 1
    31   12   13 1
    32   12   45 1
    33   12   46 1
    34   13   14 1
    35   13   47 1
    36   13   48 1
    37   14   15 1
    38   14   49 1
    39   14   50 1
    40   15   16 1
    41   15   51 1
    42   15   52 1
    43   16   17 1
    44   16   53 1
    45   16   54 1
    46   17   18 1
    47   17   55 1
    48   17   56 1
    49   18   19 2
    50   18   20 1
    51   20   21 1
    52   21   22 1
    53   21   57 1
    54   21   58 1
    55   22   23 1
    56   22   25 1
    57   22   24 1
    58   24   25 1
    59   24   59 1
    60   24   60 1
@<TRIPOS>MOLECULE
ZINC28710853
   60    60     0     0     0
SMALL
USER_CHARGES
[(2R)-oxiran-2-yl]methyl (9Z,12Z)-octadeca-9,12-dienoate
@<TRIPOS>ATOM
      1 C1         -4.5020  -16.1546   -3.1016 C.3       1 <0>        -0.1556
      2 C2         -5.9574  -15.6861   -3.1592 C.3       1 <0>        -0.1265
      3 C3         -6.1171  -14.6542   -4.2775 C.3       1 <0>        -0.1219
      4 C4         -7.5725  -14.1858   -4.3352 C.3       1 <0>        -0.1146
      5 C5         -7.7322  -13.1539   -5.4535 C.3       1 <0>        -0.1031
      6 C6         -9.1657  -12.6924   -5.5102 C.2       1 <0>        -0.1607
      7 C7         -9.4448  -11.4136   -5.4561 C.2       1 <0>        -0.1547
      8 C8         -8.3336  -10.3970   -5.5086 C.3       1 <0>        -0.0835
      9 C9         -8.6262   -9.3884   -6.5895 C.2       1 <0>        -0.1549
     10 C10        -8.6279   -8.1090   -6.3084 C.2       1 <0>        -0.1607
     11 C11        -8.1730   -7.6349   -4.9522 C.3       1 <0>        -0.1027
     12 C12        -7.1032   -6.5542   -5.1221 C.3       1 <0>        -0.1148
     13 C13        -6.6413   -6.0729   -3.7452 C.3       1 <0>        -0.1209
     14 C14        -5.5716   -4.9923   -3.9151 C.3       1 <0>        -0.1210
     15 C15        -5.1097   -4.5109   -2.5382 C.3       1 <0>        -0.1203
     16 C16        -4.0400   -3.4303   -2.7081 C.3       1 <0>        -0.1115
     17 C17        -3.5781   -2.9490   -1.3312 C.3       1 <0>        -0.1155
     18 C18        -2.5244   -1.8846   -1.4986 C.2       1 <0>         0.4630
     19 O1         -2.1785   -1.5458   -2.6055 O.2       1 <0>        -0.5049
     20 O2         -1.9703   -1.3130   -0.4178 O.3       1 <0>        -0.3602
     21 C19        -0.9621   -0.2953   -0.6544 C.3       1 <0>         0.0459
     22 C20        -0.4500    0.2365    0.6857 C.3       1 <0>        -0.0765
     23 H1         -0.6341   -0.7090    1.2169 H         1 <0>         0.1635
     24 C21         0.6655    1.2834    0.6592 C.3       1 <0>        -0.0005
     25 O3         -0.6852    1.6128    0.9897 O.3       1 <0>        -0.3028
     26 H2         -4.3872  -16.8965   -2.2976 H         1 <0>         0.0539
     27 H3         -3.8472  -15.2935   -2.9022 H         1 <0>         0.0537
     28 H4         -4.2253  -16.6106   -4.0636 H         1 <0>         0.0538
     29 H5         -6.6122  -16.5472   -3.3586 H         1 <0>         0.0609
     30 H6         -6.2342  -15.2301   -2.1972 H         1 <0>         0.0608
     31 H7         -5.4624  -13.7931   -4.0780 H         1 <0>         0.0612
     32 H8         -5.8402  -15.1102   -5.2395 H         1 <0>         0.0616
     33 H9         -8.2272  -15.0470   -4.5347 H         1 <0>         0.0619
     34 H10        -7.8494  -13.7298   -3.3732 H         1 <0>         0.0621
     35 H11        -7.0774  -12.2928   -5.2541 H         1 <0>         0.0762
     36 H12        -7.4555  -13.6099   -6.4155 H         1 <0>         0.0687
     37 H13        -9.9777  -13.4294   -5.5970 H         1 <0>         0.1104
     38 H14       -10.4902  -11.0819   -5.3724 H         1 <0>         0.1098
     39 H15        -8.2600   -9.8838   -4.5384 H         1 <0>         0.0839
     40 H16        -7.3826  -10.9043   -5.7281 H         1 <0>         0.0836
     41 H17        -8.8383   -9.7266   -7.6145 H         1 <0>         0.1098
     42 H18        -8.9614   -7.3807   -7.0623 H         1 <0>         0.1103
     43 H19        -9.0303   -7.2190   -4.4026 H         1 <0>         0.0688
     44 H20        -7.7528   -8.4816   -4.3897 H         1 <0>         0.0761
     45 H21        -6.2459   -6.9701   -5.6717 H         1 <0>         0.0624
     46 H22        -7.5235   -5.7074   -5.6846 H         1 <0>         0.0622
     47 H23        -7.4986   -5.6570   -3.1956 H         1 <0>         0.0622
     48 H24        -6.2210   -6.9197   -3.1827 H         1 <0>         0.0618
     49 H25        -4.7143   -5.4082   -4.4647 H         1 <0>         0.0632
     50 H26        -5.9918   -4.1456   -4.4776 H         1 <0>         0.0633
     51 H27        -5.9670   -4.0950   -1.9886 H         1 <0>         0.0654
     52 H28        -4.6894   -5.3576   -1.9757 H         1 <0>         0.0654
     53 H29        -3.1827   -3.8462   -3.2577 H         1 <0>         0.0729
     54 H30        -4.4603   -2.5835   -3.2706 H         1 <0>         0.0728
     55 H31        -4.4354   -2.5331   -0.7816 H         1 <0>         0.1082
     56 H32        -3.1578   -3.7958   -0.7687 H         1 <0>         0.1084
     57 H33        -0.1255   -0.7323   -1.2193 H         1 <0>         0.0905
     58 H34        -1.4030    0.5304   -1.2322 H         1 <0>         0.0752
     59 H35         1.4460    1.0059    1.3830 H         1 <0>         0.1301
     60 H36         1.1010    1.3298   -0.3499 H         1 <0>         0.1235
@<TRIPOS>BOND
     1    1    2 1
     2    1   26 1
     3    1   27 1
     4    1   28 1
     5    2    3 1
     6    2   29 1
     7    2   30 1
     8    3    4 1
     9    3   31 1
    10    3   32 1
    11    4    5 1
    12    4   33 1
    13    4   34 1
    14    5    6 1
    15    5   35 1
    16    5   36 1
    17    6    7 2
    18    6   37 1
    19    7    8 1
    20    7   38 1
    21    8    9 1
    22    8   39 1
    23    8   40 1
    24    9   10 2
    25    9   41 1
    26   10   11 1
    27   10   42 1
    28   11   12 1
    29   11   43 1
    30   11   44 1
    31   12   13 1
    32   12   45 1
    33   12   46 1
    34   13   14 1
    35   13   47 1
    36   13   48 1
    37   14   15 1
    38   14   49 1
    39   14   50 1
    40   15   16 1
    41   15   51 1
    42   15   52 1
    43   16   17 1
    44   16   53 1
    45   16   54 1
    46   17   18 1
    47   17   55 1
    48   17   56 1
    49   18   19 2
    50   18   20 1
    51   20   21 1
    52   21   22 1
    53   21   57 1
    54   21   58 1
    55   22   23 1
    56   22   25 1
    57   22   24 1
    58   24   25 1
    59   24   59 1
    60   24   60 1
@<TRIPOS>MOLECULE
ZINC34803679
   56    56     0     0     0
SMALL
USER_CHARGES

@<TRIPOS>ATOM
      1 C1          0.0924    1.3349    0.9317 C.3       1 <0>        -0.1544
      2 C2          0.0872   -0.1687    0.6488 C.3       1 <0>        -0.1260
      3 C3         -1.3544   -0.6810    0.6394 C.3       1 <0>        -0.1212
      4 C4         -1.3596   -2.1846    0.3565 C.3       1 <0>        -0.1211
      5 C5         -2.8012   -2.6969    0.3471 C.3       1 <0>        -0.1140
      6 C6         -2.8064   -4.2005    0.0643 C.3       1 <0>        -0.1018
      7 C7         -4.2264   -4.7050    0.0550 C.2       1 <0>        -0.1597
      8 C8         -4.6686   -5.3981   -0.9649 C.2       1 <0>        -0.1603
      9 C9         -3.7164   -5.8365   -2.0476 C.3       1 <0>        -0.1019
     10 C10        -3.8329   -7.3489   -2.2476 C.3       1 <0>        -0.1142
     11 C11        -2.8662   -7.7940   -3.3468 C.3       1 <0>        -0.1202
     12 C12        -2.9827   -9.3064   -3.5467 C.3       1 <0>        -0.1205
     13 C13        -2.0160   -9.7515   -4.6460 C.3       1 <0>        -0.1197
     14 C14        -2.1325  -11.2639   -4.8459 C.3       1 <0>        -0.1109
     15 C15        -1.1658  -11.7090   -5.9451 C.3       1 <0>        -0.1129
     16 C16        -1.2805  -13.1986   -6.1420 C.2       1 <0>         0.4621
     17 O1         -2.0559  -13.8387   -5.4719 O.2       1 <0>        -0.5037
     18 O2         -0.5213  -13.8145   -7.0619 O.3       1 <0>        -0.3510
     19 C17        -0.6821  -15.2282   -7.1948 C.3       1 <0>         0.0776
     20 C18         0.2589  -15.7483   -8.2833 C.3       1 <0>        -0.0127
     21 H1          0.4940  -15.0442   -9.0814 H         1 <0>         0.1392
     22 C19         0.1812  -17.2335   -8.6429 C.3       1 <0>        -0.0210
     23 O3          1.2710  -16.6809   -7.8986 O.3       1 <0>        -0.3508
     24 H2          1.1194    1.6998    0.9384 H         1 <0>         0.0535
     25 H3         -0.4721    1.8524    0.1561 H         1 <0>         0.0533
     26 H4         -0.3666    1.5236    1.9022 H         1 <0>         0.0533
     27 H5          0.5462   -0.3574   -0.3216 H         1 <0>         0.0603
     28 H6          0.6517   -0.6863    1.4245 H         1 <0>         0.0603
     29 H7         -1.8134   -0.4923    1.6099 H         1 <0>         0.0608
     30 H8         -1.9189   -0.1634   -0.1362 H         1 <0>         0.0608
     31 H9         -0.9006   -2.3733   -0.6139 H         1 <0>         0.0609
     32 H10        -0.7951   -2.7022    1.1322 H         1 <0>         0.0612
     33 H11        -3.2602   -2.5082    1.3176 H         1 <0>         0.0612
     34 H12        -3.3657   -2.1793   -0.4285 H         1 <0>         0.0616
     35 H13        -2.3474   -4.3892   -0.9062 H         1 <0>         0.0759
     36 H14        -2.2419   -4.7180    0.8399 H         1 <0>         0.0679
     37 H15        -4.8795   -4.4952    0.8891 H         1 <0>         0.1072
     38 H16        -5.7155   -5.6554   -1.0298 H         1 <0>         0.1073
     39 H17        -3.9652   -5.3268   -2.9785 H         1 <0>         0.0678
     40 H18        -2.6961   -5.5859   -1.7576 H         1 <0>         0.0759
     41 H19        -3.5842   -7.8587   -1.3167 H         1 <0>         0.0619
     42 H20        -4.8532   -7.5996   -2.5376 H         1 <0>         0.0616
     43 H21        -3.1149   -7.2843   -4.2776 H         1 <0>         0.0619
     44 H22        -1.8459   -7.5434   -3.0567 H         1 <0>         0.0616
     45 H23        -2.7340   -9.8161   -2.6159 H         1 <0>         0.0629
     46 H24        -4.0030   -9.5571   -3.8368 H         1 <0>         0.0630
     47 H25        -2.2647   -9.2417   -5.5768 H         1 <0>         0.0652
     48 H26        -0.9957   -9.5008   -4.3559 H         1 <0>         0.0651
     49 H27        -1.8838  -11.7736   -3.9151 H         1 <0>         0.0725
     50 H28        -3.1528  -11.5145   -5.1360 H         1 <0>         0.0727
     51 H29        -1.4145  -11.1992   -6.8759 H         1 <0>         0.1081
     52 H30        -0.1455  -11.4583   -5.6550 H         1 <0>         0.1077
     53 H31        -0.4440  -15.7116   -6.2473 H         1 <0>         0.0799
     54 H32        -1.7131  -15.4525   -7.4682 H         1 <0>         0.0901
     55 H33        -0.5408  -17.8489   -8.1061 H         1 <0>         0.1152
     56 H34         0.3655  -17.5154   -9.6795 H         1 <0>         0.1202
@<TRIPOS>BOND
     1    1    2 1
     2    1   24 1
     3    1   25 1
     4    1   26 1
     5    2    3 1
     6    2   27 1
     7    2   28 1
     8    3    4 1
     9    3   29 1
    10    3   30 1
    11    4    5 1
    12    4   31 1
    13    4   32 1
    14    5    6 1
    15    5   33 1
    16    5   34 1
    17    6    7 1
    18    6   35 1
    19    6   36 1
    20    7    8 2
    21    7   37 1
    22    8    9 1
    23    8   38 1
    24    9   10 1
    25    9   39 1
    26    9   40 1
    27   10   11 1
    28   10   41 1
    29   10   42 1
    30   11   12 1
    31   11   43 1
    32   11   44 1
    33   12   13 1
    34   12   45 1
    35   12   46 1
    36   13   14 1
    37   13   47 1
    38   13   48 1
    39   14   15 1
    40   14   49 1
    41   14   50 1
    42   15   16 1
    43   15   51 1
    44   15   52 1
    45   16   17 2
    46   16   18 1
    47   18   19 1
    48   19   20 1
    49   19   53 1
    50   19   54 1
    51   20   21 1
    52   20   23 1
    53   20   22 1
    54   22   23 1
    55   22   55 1
    56   22   56 1
@<TRIPOS>MOLECULE
ZINC34803684
   56    56     0     0     0
SMALL
USER_CHARGES

@<TRIPOS>ATOM
      1 C1          0.0924    1.3349    0.9317 C.3       1 <0>        -0.1544
      2 C2          0.0872   -0.1687    0.6488 C.3       1 <0>        -0.1260
      3 C3         -1.3544   -0.6810    0.6394 C.3       1 <0>        -0.1213
      4 C4         -1.3596   -2.1846    0.3565 C.3       1 <0>        -0.1210
      5 C5         -2.8012   -2.6969    0.3471 C.3       1 <0>        -0.1141
      6 C6         -2.8064   -4.2005    0.0643 C.3       1 <0>        -0.1017
      7 C7         -4.2264   -4.7050    0.0550 C.2       1 <0>        -0.1598
      8 C8         -4.6686   -5.3981   -0.9649 C.2       1 <0>        -0.1602
      9 C9         -3.7164   -5.8365   -2.0476 C.3       1 <0>        -0.1019
     10 C10        -3.8329   -7.3489   -2.2476 C.3       1 <0>        -0.1142
     11 C11        -2.8662   -7.7940   -3.3468 C.3       1 <0>        -0.1202
     12 C12        -2.9827   -9.3064   -3.5467 C.3       1 <0>        -0.1205
     13 C13        -2.0160   -9.7515   -4.6460 C.3       1 <0>        -0.1197
     14 C14        -2.1325  -11.2639   -4.8459 C.3       1 <0>        -0.1109
     15 C15        -1.1658  -11.7090   -5.9451 C.3       1 <0>        -0.1129
     16 C16        -1.2805  -13.1986   -6.1420 C.2       1 <0>         0.4621
     17 O1         -2.0559  -13.8387   -5.4719 O.2       1 <0>        -0.5037
     18 O2         -0.5213  -13.8145   -7.0619 O.3       1 <0>        -0.3510
     19 C17        -0.6821  -15.2282   -7.1948 C.3       1 <0>         0.0776
     20 C18         0.2589  -15.7483   -8.2833 C.3       1 <0>        -0.0127
     21 H1          1.1818  -15.1846   -8.4197 H         1 <0>         0.1392
     22 C19         0.3036  -17.2585   -8.5250 C.3       1 <0>        -0.0210
     23 O3         -0.3278  -16.3545   -9.4368 O.3       1 <0>        -0.3509
     24 H2          1.1194    1.6998    0.9384 H         1 <0>         0.0535
     25 H3         -0.4721    1.8524    0.1561 H         1 <0>         0.0533
     26 H4         -0.3666    1.5236    1.9022 H         1 <0>         0.0533
     27 H5          0.5462   -0.3574   -0.3216 H         1 <0>         0.0603
     28 H6          0.6517   -0.6863    1.4245 H         1 <0>         0.0603
     29 H7         -1.8134   -0.4923    1.6099 H         1 <0>         0.0608
     30 H8         -1.9189   -0.1634   -0.1362 H         1 <0>         0.0608
     31 H9         -0.9006   -2.3733   -0.6139 H         1 <0>         0.0609
     32 H10        -0.7951   -2.7022    1.1322 H         1 <0>         0.0612
     33 H11        -3.2602   -2.5082    1.3176 H         1 <0>         0.0612
     34 H12        -3.3657   -2.1793   -0.4285 H         1 <0>         0.0616
     35 H13        -2.3474   -4.3892   -0.9062 H         1 <0>         0.0759
     36 H14        -2.2419   -4.7180    0.8399 H         1 <0>         0.0679
     37 H15        -4.8795   -4.4952    0.8891 H         1 <0>         0.1072
     38 H16        -5.7155   -5.6554   -1.0298 H         1 <0>         0.1073
     39 H17        -3.9652   -5.3268   -2.9785 H         1 <0>         0.0678
     40 H18        -2.6961   -5.5859   -1.7576 H         1 <0>         0.0759
     41 H19        -3.5842   -7.8587   -1.3167 H         1 <0>         0.0619
     42 H20        -4.8532   -7.5996   -2.5376 H         1 <0>         0.0616
     43 H21        -3.1149   -7.2843   -4.2776 H         1 <0>         0.0619
     44 H22        -1.8459   -7.5434   -3.0567 H         1 <0>         0.0616
     45 H23        -2.7340   -9.8161   -2.6159 H         1 <0>         0.0630
     46 H24        -4.0030   -9.5571   -3.8368 H         1 <0>         0.0629
     47 H25        -2.2647   -9.2417   -5.5768 H         1 <0>         0.0651
     48 H26        -0.9957   -9.5008   -4.3559 H         1 <0>         0.0652
     49 H27        -1.8838  -11.7736   -3.9151 H         1 <0>         0.0727
     50 H28        -3.1528  -11.5145   -5.1360 H         1 <0>         0.0725
     51 H29        -1.4145  -11.1992   -6.8759 H         1 <0>         0.1077
     52 H30        -0.1455  -11.4583   -5.6550 H         1 <0>         0.1081
     53 H31        -0.4440  -15.7116   -6.2473 H         1 <0>         0.0901
     54 H32        -1.7131  -15.4525   -7.4682 H         1 <0>         0.0799
     55 H33         1.2560  -17.6972   -8.8229 H         1 <0>         0.1202
     56 H34        -0.3370  -17.8905   -7.9101 H         1 <0>         0.1153
@<TRIPOS>BOND
     1    1    2 1
     2    1   24 1
     3    1   25 1
     4    1   26 1
     5    2    3 1
     6    2   27 1
     7    2   28 1
     8    3    4 1
     9    3   29 1
    10    3   30 1
    11    4    5 1
    12    4   31 1
    13    4   32 1
    14    5    6 1
    15    5   33 1
    16    5   34 1
    17    6    7 1
    18    6   35 1
    19    6   36 1
    20    7    8 2
    21    7   37 1
    22    8    9 1
    23    8   38 1
    24    9   10 1
    25    9   39 1
    26    9   40 1
    27   10   11 1
    28   10   41 1
    29   10   42 1
    30   11   12 1
    31   11   43 1
    32   11   44 1
    33   12   13 1
    34   12   45 1
    35   12   46 1
    36   13   14 1
    37   13   47 1
    38   13   48 1
    39   14   15 1
    40   14   49 1
    41   14   50 1
    42   15   16 1
    43   15   51 1
    44   15   52 1
    45   16   17 2
    46   16   18 1
    47   18   19 1
    48   19   20 1
    49   19   53 1
    50   19   54 1
    51   20   21 1
    52   20   23 1
    53   20   22 1
    54   22   23 1
    55   22   55 1
    56   22   56 1
@<TRIPOS>MOLECULE
ZINC01912275
   65    68     0     0     0
SMALL
USER_CHARGES
(2-fluorophenyl) N-[6-(2-methyl-4,5-diphenyl-imidazol-1-yl)hexyl]carbamate
@<TRIPOS>ATOM
      1 C1         -1.8899   -2.0006   -3.0317 C.3       1 <0>        -0.0701
      2 C2         -1.7066   -2.6423   -1.6805 C.2       1 <0>         0.2161
      3 N1         -1.3915   -3.8908   -1.4773 N.2       1 <0>        -0.4747
      4 C3         -1.3162   -4.1266   -0.1539 C.2       1 <0>         0.0614
      5 C4         -1.6001   -2.9384    0.4940 C.2       1 <0>         0.0236
      6 N2         -1.8411   -2.0114   -0.4933 N.pl3     1 <0>        -0.4437
      7 C5         -2.1861   -0.6016   -0.2942 C.3       1 <0>         0.1010
      8 C6         -0.9078    0.2390   -0.2779 C.3       1 <0>        -0.1389
      9 C7         -1.2733    1.7211   -0.1748 C.3       1 <0>        -0.1151
     10 C8          0.0051    2.5616   -0.1585 C.3       1 <0>        -0.1155
     11 C9         -0.3604    4.0438   -0.0554 C.3       1 <0>        -0.1320
     12 C10         0.9180    4.8843   -0.0391 C.3       1 <0>         0.1342
     13 N3          0.5680    6.3035    0.0596 N.am      1 <0>        -0.7043
     14 C11         1.5400    7.2366    0.0904 C.2       1 <0>         0.6415
     15 O1          2.7066    6.9008    0.0364 O.2       1 <0>        -0.5512
     16 O2          1.2184    8.5412    0.1811 O.3       1 <0>        -0.2984
     17 C12         2.2455    9.4226    0.3117 C.ar      1 <0>         0.0665
     18 C13         2.6521    9.8337    1.5720 C.ar      1 <0>        -0.0891
     19 C14         3.6998   10.7251    1.7027 C.ar      1 <0>        -0.1164
     20 C15         4.3362   11.2167    0.5780 C.ar      1 <0>        -0.0819
     21 C16         3.9304   10.8139   -0.6807 C.ar      1 <0>        -0.1431
     22 C17         2.8858    9.9173   -0.8174 C.ar      1 <0>         0.1050
     23 F1          2.4886    9.5237   -2.0472 F         1 <0>        -0.1287
     24 C18        -1.6367   -2.7104    1.9526 C.ar      1 <0>        -0.0159
     25 C19        -2.4461   -3.5056    2.7668 C.ar      1 <0>        -0.0881
     26 C20        -2.4714   -3.2905    4.1291 C.ar      1 <0>        -0.1149
     27 C21        -1.7057   -2.2825    4.6879 C.ar      1 <0>        -0.1123
     28 C22        -0.9059   -1.4871    3.8864 C.ar      1 <0>        -0.1175
     29 C23        -0.8665   -1.6949    2.5234 C.ar      1 <0>        -0.1124
     30 C24        -0.9891   -5.4203    0.4895 C.ar      1 <0>        -0.0022
     31 C25        -0.2491   -5.4471    1.6714 C.ar      1 <0>        -0.1010
     32 C26         0.0483   -6.6549    2.2685 C.ar      1 <0>        -0.1199
     33 C27        -0.3764   -7.8383    1.6913 C.ar      1 <0>        -0.1186
     34 C28        -1.1066   -7.8184    0.5164 C.ar      1 <0>        -0.1216
     35 C29        -1.4148   -6.6166   -0.0873 C.ar      1 <0>        -0.0937
     36 H1         -0.9367   -1.5992   -3.3756 H         1 <0>         0.0819
     37 H2         -2.2480   -2.7457   -3.7421 H         1 <0>         0.0923
     38 H3         -2.6177   -1.1929   -2.9546 H         1 <0>         0.0737
     39 H4         -2.7091   -0.4861    0.6551 H         1 <0>         0.0933
     40 H5         -2.8306   -0.2669   -1.1071 H         1 <0>         0.0964
     41 H6         -0.3474    0.0659   -1.1966 H         1 <0>         0.0739
     42 H7         -0.2971   -0.0451    0.5791 H         1 <0>         0.0740
     43 H8         -1.8839    2.0052   -1.0318 H         1 <0>         0.0693
     44 H9         -1.8336    1.8941    0.7439 H         1 <0>         0.0688
     45 H10         0.6158    2.2775    0.6985 H         1 <0>         0.0689
     46 H11         0.5655    2.3886   -1.0772 H         1 <0>         0.0696
     47 H12        -0.9710    4.3278   -0.9124 H         1 <0>         0.0744
     48 H13        -0.9208    4.2168    0.8633 H         1 <0>         0.0742
     49 H14         1.5286    4.6002    0.8180 H         1 <0>         0.0740
     50 H15         1.4784    4.7113   -0.9578 H         1 <0>         0.0739
     51 H16        -0.3632    6.5715    0.1027 H         1 <0>         0.4097
     52 H17         2.1528    9.4543    2.4513 H         1 <0>         0.1410
     53 H18         4.0189   11.0419    2.6847 H         1 <0>         0.1411
     54 H19         5.1517   11.9170    0.6829 H         1 <0>         0.1418
     55 H20         4.4289   11.1996   -1.5577 H         1 <0>         0.1457
     56 H21        -3.0473   -4.2900    2.3314 H         1 <0>         0.1240
     57 H22        -3.0934   -3.9076    4.7605 H         1 <0>         0.1267
     58 H23        -1.7322   -2.1159    5.7547 H         1 <0>         0.1244
     59 H24        -0.3108   -0.7021    4.3292 H         1 <0>         0.1249
     60 H25        -0.2413   -1.0738    1.8990 H         1 <0>         0.1223
     61 H26         0.0871   -4.5241    2.1204 H         1 <0>         0.1198
     62 H27         0.6178   -6.6768    3.1860 H         1 <0>         0.1222
     63 H28        -0.1373   -8.7815    2.1600 H         1 <0>         0.1213
     64 H29        -1.4357   -8.7455    0.0707 H         1 <0>         0.1232
     65 H30        -1.9849   -6.6023   -1.0045 H         1 <0>         0.1250
@<TRIPOS>BOND
     1    1    2 1
     2    1   36 1
     3    1   37 1
     4    1   38 1
     5    2    6 1
     6    2    3 2
     7    3    4 1
     8    4    5 2
     9    4   30 1
    10    5    6 1
    11    5   24 1
    12    6    7 1
    13    7    8 1
    14    7   39 1
    15    7   40 1
    16    8    9 1
    17    8   41 1
    18    8   42 1
    19    9   10 1
    20    9   43 1
    21    9   44 1
    22   10   11 1
    23   10   45 1
    24   10   46 1
    25   11   12 1
    26   11   47 1
    27   11   48 1
    28   12   13 1
    29   12   49 1
    30   12   50 1
    31   13   14 am
    32   13   51 1
    33   14   15 2
    34   14   16 1
    35   16   17 1
    36   17   22 ar
    37   17   18 ar
    38   18   19 ar
    39   18   52 1
    40   19   20 ar
    41   19   53 1
    42   20   21 ar
    43   20   54 1
    44   21   22 ar
    45   21   55 1
    46   22   23 1
    47   24   29 ar
    48   24   25 ar
    49   25   26 ar
    50   25   56 1
    51   26   27 ar
    52   26   57 1
    53   27   28 ar
    54   27   58 1
    55   28   29 ar
    56   28   59 1
    57   29   60 1
    58   30   35 ar
    59   30   31 ar
    60   31   32 ar
    61   31   61 1
    62   32   33 ar
    63   32   62 1
    64   33   34 ar
    65   33   63 1
    66   34   35 ar
    67   34   64 1
    68   35   65 1
@<TRIPOS>MOLECULE
ZINC01912275
   66    69     0     0     0
SMALL
USER_CHARGES
(2-fluorophenyl) N-[6-(2-methyl-4,5-diphenyl-imidazol-1-yl)hexyl]carbamate
@<TRIPOS>ATOM
      1 C1         -1.8899   -2.0006   -3.0317 C.3       1 <0>        -0.1124
      2 C2         -1.7066   -2.6423   -1.6805 C.cat     1 <0>         0.3120
      3 C3         -1.3162   -4.1266   -0.1539 C.2       1 <0>         0.0962
      4 C4         -1.6001   -2.9384    0.4940 C.2       1 <0>         0.1118
      5 N1         -1.8411   -2.0114   -0.4933 N.pl3     1 <0>        -0.3979
      6 C5         -2.1861   -0.6016   -0.2942 C.3       1 <0>         0.0876
      7 C6         -0.9078    0.2390   -0.2779 C.3       1 <0>        -0.1435
      8 C7         -1.2733    1.7211   -0.1748 C.3       1 <0>        -0.1168
      9 C8          0.0051    2.5616   -0.1585 C.3       1 <0>        -0.1159
     10 C9         -0.3604    4.0438   -0.0554 C.3       1 <0>        -0.1334
     11 C10         0.9180    4.8843   -0.0391 C.3       1 <0>         0.1349
     12 N2          0.5680    6.3035    0.0596 N.am      1 <0>        -0.7068
     13 C11         1.5400    7.2366    0.0904 C.2       1 <0>         0.6420
     14 O1          2.7066    6.9008    0.0364 O.2       1 <0>        -0.5503
     15 O2          1.2184    8.5412    0.1811 O.3       1 <0>        -0.2965
     16 C12         2.2455    9.4226    0.3117 C.ar      1 <0>         0.0635
     17 C13         2.6521    9.8337    1.5720 C.ar      1 <0>        -0.0887
     18 C14         3.6998   10.7251    1.7027 C.ar      1 <0>        -0.1156
     19 C15         4.3362   11.2167    0.5780 C.ar      1 <0>        -0.0797
     20 C16         3.9304   10.8139   -0.6807 C.ar      1 <0>        -0.1424
     21 C17         2.8858    9.9173   -0.8174 C.ar      1 <0>         0.1052
     22 F1          2.4886    9.5237   -2.0472 F         1 <0>        -0.1292
     23 C18        -1.6367   -2.7104    1.9526 C.ar      1 <0>        -0.0677
     24 C19        -2.4461   -3.5056    2.7668 C.ar      1 <0>        -0.0727
     25 C20        -2.4714   -3.2905    4.1291 C.ar      1 <0>        -0.1119
     26 C21        -1.7057   -2.2825    4.6879 C.ar      1 <0>        -0.0837
     27 C22        -0.9059   -1.4871    3.8864 C.ar      1 <0>        -0.1133
     28 C23        -0.8665   -1.6949    2.5234 C.ar      1 <0>        -0.0949
     29 C24        -0.9891   -5.4203    0.4895 C.ar      1 <0>        -0.0632
     30 C25        -0.2491   -5.4471    1.6714 C.ar      1 <0>        -0.0756
     31 C26         0.0483   -6.6549    2.2685 C.ar      1 <0>        -0.1107
     32 C27        -0.3764   -7.8383    1.6913 C.ar      1 <0>        -0.0858
     33 C28        -1.1066   -7.8184    0.5164 C.ar      1 <0>        -0.1115
     34 C29        -1.4148   -6.6166   -0.0873 C.ar      1 <0>        -0.0982
     35 H1         -0.9367   -1.5992   -3.3756 H         1 <0>         0.1216
     36 H2         -2.2480   -2.7457   -3.7421 H         1 <0>         0.1172
     37 H3         -2.6177   -1.1929   -2.9546 H         1 <0>         0.1150
     38 H4         -2.7091   -0.4861    0.6551 H         1 <0>         0.1228
     39 H5         -2.8306   -0.2669   -1.1071 H         1 <0>         0.1215
     40 H6         -0.3474    0.0659   -1.1966 H         1 <0>         0.0804
     41 H7         -0.2971   -0.0451    0.5791 H         1 <0>         0.0823
     42 H8         -1.8839    2.0052   -1.0318 H         1 <0>         0.0751
     43 H9         -1.8336    1.8941    0.7439 H         1 <0>         0.0754
     44 H10         0.6158    2.2775    0.6985 H         1 <0>         0.0710
     45 H11         0.5655    2.3886   -1.0772 H         1 <0>         0.0711
     46 H12        -0.9710    4.3278   -0.9124 H         1 <0>         0.0759
     47 H13        -0.9208    4.2168    0.8633 H         1 <0>         0.0760
     48 H14         1.5286    4.6002    0.8180 H         1 <0>         0.0737
     49 H15         1.4784    4.7113   -0.9578 H         1 <0>         0.0733
     50 H16        -0.3632    6.5715    0.1027 H         1 <0>         0.4101
     51 H17         2.1528    9.4543    2.4513 H         1 <0>         0.1409
     52 H18         4.0189   11.0419    2.6847 H         1 <0>         0.1421
     53 H19         5.1517   11.9170    0.6829 H         1 <0>         0.1432
     54 H20         4.4289   11.1996   -1.5577 H         1 <0>         0.1467
     55 H21        -3.0473   -4.2900    2.3314 H         1 <0>         0.1295
     56 H22        -3.0934   -3.9076    4.7605 H         1 <0>         0.1375
     57 H23        -1.7322   -2.1159    5.7547 H         1 <0>         0.1361
     58 H24        -0.3108   -0.7021    4.3292 H         1 <0>         0.1367
     59 H25        -0.2413   -1.0738    1.8990 H         1 <0>         0.1282
     60 H26         0.0871   -4.5241    2.1204 H         1 <0>         0.1309
     61 H27         0.6178   -6.6768    3.1860 H         1 <0>         0.1372
     62 H28        -0.1373   -8.7815    2.1600 H         1 <0>         0.1362
     63 H29        -1.4357   -8.7455    0.0707 H         1 <0>         0.1368
     64 H30        -1.9849   -6.6023   -1.0045 H         1 <0>         0.1241
     65 N3         -1.3914   -3.8911   -1.4776 N.pl3     1 <0>        -0.4794
     66 H31        -1.2261   -4.5876   -2.2137 H         1 <0>         0.4761
@<TRIPOS>BOND
     1    1    2 1
     2    1   35 1
     3    1   36 1
     4    1   37 1
     5    2    5 1
     6    2   65 2
     7    3    4 2
     8    3   29 1
     9    3   65 1
    10    4    5 1
    11    4   23 1
    12    5    6 1
    13    6    7 1
    14    6   38 1
    15    6   39 1
    16    7    8 1
    17    7   40 1
    18    7   41 1
    19    8    9 1
    20    8   42 1
    21    8   43 1
    22    9   10 1
    23    9   44 1
    24    9   45 1
    25   10   11 1
    26   10   46 1
    27   10   47 1
    28   11   12 1
    29   11   48 1
    30   11   49 1
    31   12   13 am
    32   12   50 1
    33   13   14 2
    34   13   15 1
    35   15   16 1
    36   16   21 ar
    37   16   17 ar
    38   17   18 ar
    39   17   51 1
    40   18   19 ar
    41   18   52 1
    42   19   20 ar
    43   19   53 1
    44   20   21 ar
    45   20   54 1
    46   21   22 1
    47   23   28 ar
    48   23   24 ar
    49   24   25 ar
    50   24   55 1
    51   25   26 ar
    52   25   56 1
    53   26   27 ar
    54   26   57 1
    55   27   28 ar
    56   27   58 1
    57   28   59 1
    58   29   34 ar
    59   29   30 ar
    60   30   31 ar
    61   30   60 1
    62   31   32 ar
    63   31   61 1
    64   32   33 ar
    65   32   62 1
    66   33   34 ar
    67   33   63 1
    68   34   64 1
    69   65   66 1
@<TRIPOS>MOLECULE
ZINC27647131
   62    62     0     0     0
SMALL
USER_CHARGES
[(2R)-oxiran-2-yl]methyl (5Z,8Z,11Z,14Z)-icosa-5,8,11,14-tetraenoate
@<TRIPOS>ATOM
      1 C1         -2.7739  -16.1926   -9.7968 C.3       1 <0>        -0.1556
      2 C2         -1.8489  -15.5061   -8.7899 C.3       1 <0>        -0.1265
      3 C3         -2.5193  -15.4832   -7.4148 C.3       1 <0>        -0.1220
      4 C4         -1.5943  -14.7967   -6.4078 C.3       1 <0>        -0.1149
      5 C5         -2.2648  -14.7738   -5.0327 C.3       1 <0>        -0.1032
      6 C6         -1.3537  -14.0976   -4.0408 C.2       1 <0>        -0.1597
      7 C7         -1.8026  -13.1099   -3.3067 C.2       1 <0>        -0.1552
      8 C8         -3.2674  -12.7569   -3.3327 C.3       1 <0>        -0.0845
      9 C9         -3.8068  -12.7467   -1.9256 C.2       1 <0>        -0.1526
     10 C10        -4.4448  -11.6945   -1.4763 C.2       1 <0>        -0.1543
     11 C11        -4.7941  -10.5677   -2.4140 C.3       1 <0>        -0.0845
     12 C12        -6.2689  -10.2729   -2.3178 C.2       1 <0>        -0.1529
     13 C13        -6.6783   -9.0534   -2.0705 C.2       1 <0>        -0.1539
     14 C14        -5.6888   -7.9170   -2.0451 C.3       1 <0>        -0.0849
     15 C15        -6.1655   -6.8155   -2.9564 C.2       1 <0>        -0.1513
     16 C16        -6.2824   -5.5929   -2.5006 C.2       1 <0>        -0.1609
     17 C17        -5.7870   -5.2534   -1.1185 C.3       1 <0>        -0.1017
     18 C18        -4.8515   -4.0451   -1.1946 C.3       1 <0>        -0.1049
     19 C19        -4.3484   -3.7004    0.2086 C.3       1 <0>        -0.1160
     20 C20        -3.4270   -2.5103    0.1337 C.2       1 <0>         0.4634
     21 O1         -3.1963   -1.9911   -0.9326 O.2       1 <0>        -0.5043
     22 O2         -2.8626   -2.0271    1.2516 O.3       1 <0>        -0.3600
     23 C21        -1.9860   -0.8789    1.1042 C.3       1 <0>         0.0460
     24 C22        -1.4411   -0.4740    2.4753 C.3       1 <0>        -0.0765
     25 H1         -1.4872   -1.4961    2.8791 H         1 <0>         0.1635
     26 C23        -0.4467    0.6874    2.5339 C.3       1 <0>        -0.0005
     27 O3         -1.7984    0.8143    2.9799 O.3       1 <0>        -0.3027
     28 H2         -2.2919  -16.2091  -10.7854 H         1 <0>         0.0539
     29 H3         -3.7222  -15.6388   -9.8603 H         1 <0>         0.0538
     30 H4         -2.9726  -17.2235   -9.4685 H         1 <0>         0.0538
     31 H5         -0.9006  -16.0599   -8.7264 H         1 <0>         0.0609
     32 H6         -1.6501  -14.4752   -9.1182 H         1 <0>         0.0608
     33 H7         -3.4676  -14.9294   -7.4784 H         1 <0>         0.0612
     34 H8         -2.7181  -16.5141   -7.0865 H         1 <0>         0.0616
     35 H9         -0.6460  -15.3505   -6.3442 H         1 <0>         0.0619
     36 H10        -1.3955  -13.7658   -6.7361 H         1 <0>         0.0622
     37 H11        -3.2131  -14.2200   -5.0964 H         1 <0>         0.0763
     38 H12        -2.4636  -15.8047   -4.7045 H         1 <0>         0.0690
     39 H13        -0.3118  -14.4334   -3.9332 H         1 <0>         0.1105
     40 H14        -1.1103  -12.5381   -2.6712 H         1 <0>         0.1101
     41 H15        -3.3967  -11.7613   -3.7821 H         1 <0>         0.0833
     42 H16        -3.8137  -13.5023   -3.9294 H         1 <0>         0.0846
     43 H17        -3.6648  -13.6228   -1.2758 H         1 <0>         0.1114
     44 H18        -4.7256  -11.6334   -0.4145 H         1 <0>         0.1115
     45 H19        -4.2219   -9.6699   -2.1375 H         1 <0>         0.0839
     46 H20        -4.5448  -10.8582   -3.4452 H         1 <0>         0.0840
     47 H21        -7.0016  -11.0818   -2.4552 H         1 <0>         0.1116
     48 H22        -7.7443   -8.8588   -1.8814 H         1 <0>         0.1117
     49 H23        -5.5999   -7.5312   -1.0188 H         1 <0>         0.0846
     50 H24        -4.7076   -8.2774   -2.3876 H         1 <0>         0.0842
     51 H25        -6.4153   -7.0380   -4.0043 H         1 <0>         0.1117
     52 H26        -6.7422   -4.8141   -3.1267 H         1 <0>         0.1128
     53 H27        -6.6432   -5.0141   -0.4706 H         1 <0>         0.0737
     54 H28        -5.2418   -6.1136   -0.7028 H         1 <0>         0.0799
     55 H29        -3.9954   -4.2844   -1.8425 H         1 <0>         0.0744
     56 H30        -5.3967   -3.1849   -1.6102 H         1 <0>         0.0740
     57 H31        -5.2045   -3.4611    0.8565 H         1 <0>         0.1091
     58 H32        -3.8032   -4.5606    0.6243 H         1 <0>         0.1088
     59 H33        -1.1492   -1.1394    0.4394 H         1 <0>         0.0905
     60 H34        -2.5505   -0.0398    0.6715 H         1 <0>         0.0753
     61 H35         0.4070    0.4075    3.1686 H         1 <0>         0.1300
     62 H36        -0.0896    0.9159    1.5189 H         1 <0>         0.1235
@<TRIPOS>BOND
     1    1    2 1
     2    1   28 1
     3    1   29 1
     4    1   30 1
     5    2    3 1
     6    2   31 1
     7    2   32 1
     8    3    4 1
     9    3   33 1
    10    3   34 1
    11    4    5 1
    12    4   35 1
    13    4   36 1
    14    5    6 1
    15    5   37 1
    16    5   38 1
    17    6    7 2
    18    6   39 1
    19    7    8 1
    20    7   40 1
    21    8    9 1
    22    8   41 1
    23    8   42 1
    24    9   10 2
    25    9   43 1
    26   10   11 1
    27   10   44 1
    28   11   12 1
    29   11   45 1
    30   11   46 1
    31   12   13 2
    32   12   47 1
    33   13   14 1
    34   13   48 1
    35   14   15 1
    36   14   49 1
    37   14   50 1
    38   15   16 2
    39   15   51 1
    40   16   17 1
    41   16   52 1
    42   17   18 1
    43   17   53 1
    44   17   54 1
    45   18   19 1
    46   18   55 1
    47   18   56 1
    48   19   20 1
    49   19   57 1
    50   19   58 1
    51   20   21 2
    52   20   22 1
    53   22   23 1
    54   23   24 1
    55   23   59 1
    56   23   60 1
    57   24   25 1
    58   24   27 1
    59   24   26 1
    60   26   27 1
    61   26   61 1
    62   26   62 1
@<TRIPOS>MOLECULE
ZINC34803705
   48    49     0     0     0
SMALL
USER_CHARGES

@<TRIPOS>ATOM
      1 C1         -0.0187    1.5258    0.0104 C.3       1 <0>        -0.1543
      2 C2          0.0021   -0.0041    0.0020 C.3       1 <0>        -0.1262
      3 C3         -1.4333   -0.5336    0.0129 C.3       1 <0>        -0.1213
      4 C4         -1.4126   -2.0635    0.0045 C.3       1 <0>        -0.1213
      5 C5         -2.8479   -2.5931    0.0153 C.3       1 <0>        -0.1207
      6 C6         -2.8272   -4.1229    0.0069 C.3       1 <0>        -0.1210
      7 C7         -4.2626   -4.6525    0.0178 C.3       1 <0>        -0.1205
      8 C8         -4.2418   -6.1823    0.0094 C.3       1 <0>        -0.1208
      9 C9         -5.6772   -6.7119    0.0202 C.3       1 <0>        -0.1198
     10 C10        -5.6565   -8.2417    0.0118 C.3       1 <0>        -0.1154
     11 C11        -7.0918   -8.7713    0.0227 C.3       1 <0>        -0.1404
     12 C12        -7.0714  -10.2782    0.0144 C.2       1 <0>         0.4494
     13 O1         -6.0135  -10.8699    0.0011 O.2       1 <0>        -0.4056
     14 C13        -8.3374  -11.0323    0.0224 C.2       1 <0>         0.1967
     15 N1         -9.5312  -10.4953    0.0310 N.2       1 <0>        -0.4081
     16 C14       -10.4541  -11.4762    0.0365 C.ar      1 <0>         0.2203
     17 C15        -9.7465  -12.6935    0.0307 C.ar      1 <0>        -0.0344
     18 O2         -8.4367  -12.3760    0.0162 O.3       1 <0>        -0.1793
     19 C16       -10.4527  -13.8908    0.0341 C.ar      1 <0>        -0.0413
     20 C17       -11.8347  -13.8355    0.0433 C.ar      1 <0>        -0.1389
     21 C18       -12.4703  -12.6008    0.0487 C.ar      1 <0>         0.1340
     22 N2        -11.7864  -11.4792    0.0453 N.ar      1 <0>        -0.4302
     23 H1          1.0039    1.9031    0.0027 H         1 <0>         0.0534
     24 H2         -0.5459    1.8868   -0.8726 H         1 <0>         0.0533
     25 H3         -0.5289    1.8773    0.9072 H         1 <0>         0.0533
     26 H4          0.5123   -0.3556   -0.8948 H         1 <0>         0.0602
     27 H5          0.5293   -0.3651    0.8851 H         1 <0>         0.0602
     28 H6         -1.9435   -0.1821    0.9097 H         1 <0>         0.0605
     29 H7         -1.9605   -0.1726   -0.8702 H         1 <0>         0.0605
     30 H8         -0.9024   -2.4150   -0.8923 H         1 <0>         0.0605
     31 H9         -0.8854   -2.4246    0.8875 H         1 <0>         0.0605
     32 H10        -3.3581   -2.2415    0.9121 H         1 <0>         0.0605
     33 H11        -3.3751   -2.2320   -0.8677 H         1 <0>         0.0605
     34 H12        -2.3170   -4.4744   -0.8899 H         1 <0>         0.0606
     35 H13        -2.3000   -4.4840    0.8900 H         1 <0>         0.0606
     36 H14        -4.7728   -4.3010    0.9146 H         1 <0>         0.0613
     37 H15        -4.7898   -4.2914   -0.8653 H         1 <0>         0.0613
     38 H16        -3.7316   -6.5338   -0.8874 H         1 <0>         0.0625
     39 H17        -3.7146   -6.5434    0.8924 H         1 <0>         0.0625
     40 H18        -6.1874   -6.3604    0.9170 H         1 <0>         0.0660
     41 H19        -6.2044   -6.3508   -0.8628 H         1 <0>         0.0660
     42 H20        -5.1463   -8.5933   -0.8850 H         1 <0>         0.0729
     43 H21        -5.1293   -8.6028    0.8949 H         1 <0>         0.0729
     44 H22        -7.6020   -8.4198    0.9195 H         1 <0>         0.1162
     45 H23        -7.6190   -8.4102   -0.8604 H         1 <0>         0.1162
     46 H24        -9.9359  -14.8392    0.0295 H         1 <0>         0.1539
     47 H25       -12.4154  -14.7461    0.0458 H         1 <0>         0.1622
     48 H26       -13.5496  -12.5618    0.0554 H         1 <0>         0.1804
@<TRIPOS>BOND
     1    1    2 1
     2    1   23 1
     3    1   24 1
     4    1   25 1
     5    2    3 1
     6    2   26 1
     7    2   27 1
     8    3    4 1
     9    3   28 1
    10    3   29 1
    11    4    5 1
    12    4   30 1
    13    4   31 1
    14    5    6 1
    15    5   32 1
    16    5   33 1
    17    6    7 1
    18    6   34 1
    19    6   35 1
    20    7    8 1
    21    7   36 1
    22    7   37 1
    23    8    9 1
    24    8   38 1
    25    8   39 1
    26    9   10 1
    27    9   40 1
    28    9   41 1
    29   10   11 1
    30   10   42 1
    31   10   43 1
    32   11   12 1
    33   11   44 1
    34   11   45 1
    35   12   13 2
    36   12   14 1
    37   14   18 1
    38   14   15 2
    39   15   16 1
    40   16   22 ar
    41   16   17 ar
    42   17   18 1
    43   17   19 ar
    44   19   20 ar
    45   19   46 1
    46   20   21 ar
    47   20   47 1
    48   21   22 ar
    49   21   48 1
@<TRIPOS>MOLECULE
ZINC02143432
   35    36     0     0     0
SMALL
USER_CHARGES
(6-bromo-2-naphthyl) butylaminoformate
@<TRIPOS>ATOM
      1 C1          4.5548    9.8347    0.6722 C.3       1 <0>        -0.1537
      2 C2          4.7840    8.3266    0.5539 C.3       1 <0>        -0.1216
      3 C3          3.4352    7.6128    0.4441 C.3       1 <0>        -0.1332
      4 C4          3.6645    6.1047    0.3259 C.3       1 <0>         0.1337
      5 N1          2.3729    5.4212    0.2207 N.am      1 <0>        -0.7053
      6 C5          2.3282    4.0790    0.1063 C.2       1 <0>         0.6427
      7 O1          3.3590    3.4359    0.0903 O.2       1 <0>        -0.5504
      8 O2          1.1409    3.4507    0.0097 O.3       1 <0>        -0.3060
      9 C6          1.1591    2.0916    0.0223 C.ar      1 <0>         0.1194
     10 C7          1.4861    1.4168    1.2027 C.ar      1 <0>        -0.1178
     11 C8          1.5128    0.0579    1.2466 C.ar      1 <0>        -0.0799
     12 C9          1.2082   -0.6831    0.0913 C.ar      1 <0>        -0.0500
     13 C10         1.2268   -2.0881    0.1015 C.ar      1 <0>        -0.0677
     14 C11         0.9269   -2.7745   -1.0358 C.ar      1 <0>        -0.0840
     15 C12         0.6005   -2.1035   -2.2140 C.ar      1 <0>        -0.0928
     16 C13         0.5725   -0.7439   -2.2608 C.ar      1 <0>        -0.0918
     17 C14         0.8764   -0.0014   -1.1064 C.ar      1 <0>        -0.0307
     18 C15         0.8579    1.4031   -1.1179 C.ar      1 <0>        -0.1027
     19 Br1         0.9527   -4.6652   -1.0171 Br        1 <0>        -0.0452
     20 H1          4.0254   10.1921   -0.2111 H         1 <0>         0.0554
     21 H2          3.9599   10.0431    1.5614 H         1 <0>         0.0554
     22 H3          5.5157   10.3433    0.7504 H         1 <0>         0.0578
     23 H4          5.3134    7.9692    1.4371 H         1 <0>         0.0669
     24 H5          5.3788    8.1182   -0.3354 H         1 <0>         0.0670
     25 H6          2.9058    7.9702   -0.4391 H         1 <0>         0.0730
     26 H7          2.8404    7.8212    1.3334 H         1 <0>         0.0730
     27 H8          4.1939    5.7473    1.2091 H         1 <0>         0.0740
     28 H9          4.2593    5.8962   -0.5634 H         1 <0>         0.0739
     29 H10         1.5500    5.9346    0.2335 H         1 <0>         0.4096
     30 H11         1.7203    1.9829    2.0921 H         1 <0>         0.1318
     31 H12         1.7674   -0.4500    2.1650 H         1 <0>         0.1403
     32 H13         1.4774   -2.6209    1.0069 H         1 <0>         0.1412
     33 H14         0.3666   -2.6714   -3.1024 H         1 <0>         0.1368
     34 H15         0.3177   -0.2377   -3.1802 H         1 <0>         0.1399
     35 H16         0.6113    1.9355   -2.0246 H         1 <0>         0.1410
@<TRIPOS>BOND
     1    1    2 1
     2    1   20 1
     3    1   21 1
     4    1   22 1
     5    2    3 1
     6    2   23 1
     7    2   24 1
     8    3    4 1
     9    3   25 1
    10    3   26 1
    11    4    5 1
    12    4   27 1
    13    4   28 1
    14    5    6 am
    15    5   29 1
    16    6    7 2
    17    6    8 1
    18    8    9 1
    19    9   18 ar
    20    9   10 ar
    21   10   11 ar
    22   10   30 1
    23   11   12 ar
    24   11   31 1
    25   12   17 ar
    26   12   13 ar
    27   13   14 ar
    28   13   32 1
    29   14   15 ar
    30   14   19 1
    31   15   16 ar
    32   15   33 1
    33   16   17 ar
    34   16   34 1
    35   17   18 ar
    36   18   35 1
@<TRIPOS>MOLECULE
ZINC03813524
   56    55     0     0     0
SMALL
USER_CHARGES

@<TRIPOS>ATOM
      1 C1          1.4699    3.0103    1.6795 C.3       1 <0>        -0.1543
      2 C2          1.1470    1.5224    1.8304 C.3       1 <0>        -0.1260
      3 C3          2.2011    0.8593    2.7193 C.3       1 <0>        -0.1214
      4 C4          1.8782   -0.6286    2.8702 C.3       1 <0>        -0.1145
      5 C5          2.9323   -1.2916    3.7591 C.3       1 <0>        -0.1026
      6 C6          2.6142   -2.7572    3.9077 C.2       1 <0>        -0.1576
      7 C7          3.5316   -3.6560    3.6493 C.2       1 <0>        -0.1540
      8 C8          4.9477   -3.2268    3.3638 C.3       1 <0>        -0.0836
      9 C9          5.8898   -3.9597    4.2837 C.2       1 <0>        -0.1502
     10 C10         6.9144   -4.6095    3.7897 C.2       1 <0>        -0.1530
     11 C11         7.2468   -4.4906    2.3247 C.3       1 <0>        -0.0838
     12 C12         8.6877   -4.0777    2.1683 C.2       1 <0>        -0.1500
     13 C13         9.4920   -4.7809    1.4103 C.2       1 <0>        -0.1531
     14 C14         8.9417   -5.8950    0.5577 C.3       1 <0>        -0.0844
     15 C15         9.3779   -5.6965   -0.8711 C.2       1 <0>        -0.1473
     16 C16         9.9891   -6.6633   -1.5096 C.2       1 <0>        -0.1612
     17 C17        10.1105   -8.0256   -0.8767 C.3       1 <0>        -0.1010
     18 C18         9.5949   -9.0878   -1.8497 C.3       1 <0>        -0.1078
     19 C19         9.7182  -10.4708   -1.2070 C.3       1 <0>        -0.1636
     20 C20         9.2103  -11.5171   -2.1654 C.2       1 <0>         0.3287
     21 O1          8.7928  -11.1903   -3.2504 O.2       1 <0>        -0.3730
     22 C21         9.2234  -12.9712   -1.7697 C.3       1 <0>         0.4166
     23 F1          8.7076  -13.7438   -2.8157 F         1 <0>        -0.1646
     24 F2         10.5372  -13.3692   -1.4999 F         1 <0>        -0.1663
     25 F3          8.4377  -13.1504   -0.6262 F         1 <0>        -0.1663
     26 H1          2.4534    3.1242    1.2236 H         1 <0>         0.0534
     27 H2          0.7189    3.4826    1.0462 H         1 <0>         0.0536
     28 H3          1.4674    3.4840    2.6612 H         1 <0>         0.0534
     29 H4          0.1635    1.4084    2.2863 H         1 <0>         0.0606
     30 H5          1.1495    1.0487    0.8487 H         1 <0>         0.0605
     31 H6          3.1846    0.9733    2.2634 H         1 <0>         0.0610
     32 H7          2.1986    1.3330    3.7010 H         1 <0>         0.0613
     33 H8          0.8947   -0.7425    3.3261 H         1 <0>         0.0617
     34 H9          1.8807   -1.1023    1.8885 H         1 <0>         0.0620
     35 H10         3.9158   -1.1777    3.3032 H         1 <0>         0.0755
     36 H11         2.9298   -0.8179    4.7408 H         1 <0>         0.0689
     37 H12         1.6300   -3.0664    4.2272 H         1 <0>         0.1090
     38 H13         3.2730   -4.7045    3.6409 H         1 <0>         0.1086
     39 H14         5.1962   -3.4599    2.3284 H         1 <0>         0.0827
     40 H15         5.0419   -2.1533    3.5273 H         1 <0>         0.0842
     41 H16         5.7203   -3.9492    5.3503 H         1 <0>         0.1099
     42 H17         7.5209   -5.2304    4.4324 H         1 <0>         0.1100
     43 H18         7.0897   -5.4528    1.8372 H         1 <0>         0.0832
     44 H19         6.6022   -3.7411    1.8655 H         1 <0>         0.0836
     45 H20         9.0572   -3.2020    2.6812 H         1 <0>         0.1101
     46 H21        10.5496   -4.5623    1.3965 H         1 <0>         0.1102
     47 H22         9.3168   -6.8511    0.9226 H         1 <0>         0.0838
     48 H23         7.8529   -5.8882    0.6094 H         1 <0>         0.0839
     49 H24         9.1867   -4.7572   -1.3685 H         1 <0>         0.1103
     50 H25        10.4060   -6.4842   -2.4897 H         1 <0>         0.1113
     51 H26        11.1560   -8.2251   -0.6416 H         1 <0>         0.0745
     52 H27         9.5202   -8.0546    0.0392 H         1 <0>         0.0801
     53 H28         8.5494   -8.8883   -2.0848 H         1 <0>         0.0750
     54 H29        10.1852   -9.0588   -2.7655 H         1 <0>         0.0748
     55 H30        10.7637  -10.6704   -0.9719 H         1 <0>         0.1190
     56 H31         9.1279  -10.4999   -0.2912 H         1 <0>         0.1184
@<TRIPOS>BOND
     1    1    2 1
     2    1   26 1
     3    1   27 1
     4    1   28 1
     5    2    3 1
     6    2   29 1
     7    2   30 1
     8    3    4 1
     9    3   31 1
    10    3   32 1
    11    4    5 1
    12    4   33 1
    13    4   34 1
    14    5    6 1
    15    5   35 1
    16    5   36 1
    17    6    7 2
    18    6   37 1
    19    7    8 1
    20    7   38 1
    21    8    9 1
    22    8   39 1
    23    8   40 1
    24    9   10 2
    25    9   41 1
    26   10   11 1
    27   10   42 1
    28   11   12 1
    29   11   43 1
    30   11   44 1
    31   12   13 2
    32   12   45 1
    33   13   14 1
    34   13   46 1
    35   14   15 1
    36   14   47 1
    37   14   48 1
    38   15   16 2
    39   15   49 1
    40   16   17 1
    41   16   50 1
    42   17   18 1
    43   17   51 1
    44   17   52 1
    45   18   19 1
    46   18   53 1
    47   18   54 1
    48   19   20 1
    49   19   55 1
    50   19   56 1
    51   20   21 2
    52   20   22 1
    53   22   23 1
    54   22   24 1
    55   22   25 1
@<TRIPOS>MOLECULE
ZINC34803408
   64    65     0     0     0
SMALL
USER_CHARGES

@<TRIPOS>ATOM
      1 C1         -1.1397    1.2836   -0.4782 C.3       1 <0>        -0.1543
      2 C2         -0.8688   -0.2185   -0.3713 C.3       1 <0>        -0.1261
      3 C3         -0.1322   -0.6943   -1.6251 C.3       1 <0>        -0.1214
      4 C4          0.1388   -2.1963   -1.5181 C.3       1 <0>        -0.1211
      5 C5          0.8754   -2.6722   -2.7719 C.3       1 <0>        -0.1206
      6 C6          1.1463   -4.1742   -2.6650 C.3       1 <0>        -0.1205
      7 C7          1.8829   -4.6501   -3.9187 C.3       1 <0>        -0.1139
      8 C8          2.1539   -6.1521   -3.8118 C.3       1 <0>        -0.1017
      9 C9          2.8794   -6.6208   -5.0467 C.2       1 <0>        -0.1598
     10 C10         3.9944   -7.2990   -4.9336 C.2       1 <0>        -0.1601
     11 C11         4.4631   -7.7574   -3.5766 C.3       1 <0>        -0.1020
     12 C12         4.7180   -9.2657   -3.6078 C.3       1 <0>        -0.1140
     13 C13         5.1939   -9.7310   -2.2301 C.3       1 <0>        -0.1205
     14 C14         5.4488  -11.2393   -2.2612 C.3       1 <0>        -0.1207
     15 C15         5.9247  -11.7047   -0.8836 C.3       1 <0>        -0.1197
     16 C16         6.1795  -13.2130   -0.9147 C.3       1 <0>        -0.1154
     17 C17         6.6554  -13.6783    0.4629 C.3       1 <0>        -0.1404
     18 C18         6.9065  -15.1640    0.4323 C.2       1 <0>         0.4493
     19 O1          6.7229  -15.7887   -0.5903 O.2       1 <0>        -0.4056
     20 C19         7.3750  -15.8572    1.6452 C.2       1 <0>         0.1967
     21 N1          7.5990  -15.2821    2.7996 N.2       1 <0>        -0.4080
     22 C20         8.0159  -16.2120    3.6802 C.ar      1 <0>         0.2203
     23 C21         8.0401  -17.4381    2.9883 C.ar      1 <0>        -0.0344
     24 O2          7.6305  -17.1775    1.7310 O.3       1 <0>        -0.1794
     25 C22         8.4367  -18.5896    3.6585 C.ar      1 <0>        -0.0413
     26 C23         8.7945  -18.4815    4.9901 C.ar      1 <0>        -0.1389
     27 C24         8.7481  -17.2410    5.6128 C.ar      1 <0>         0.1340
     28 N2          8.3707  -16.1632    4.9635 N.ar      1 <0>        -0.4302
     29 H1         -0.1940    1.8178   -0.5688 H         1 <0>         0.0533
     30 H2         -1.7538    1.4803   -1.3570 H         1 <0>         0.0532
     31 H3         -1.6645    1.6226    0.4150 H         1 <0>         0.0534
     32 H4         -0.2547   -0.4152    0.5075 H         1 <0>         0.0603
     33 H5         -1.8145   -0.7527   -0.2808 H         1 <0>         0.0602
     34 H6         -0.7462   -0.4976   -2.5039 H         1 <0>         0.0605
     35 H7          0.8136   -0.1601   -1.7156 H         1 <0>         0.0606
     36 H8          0.7528   -2.3931   -0.6393 H         1 <0>         0.0606
     37 H9         -0.8070   -2.7306   -1.4276 H         1 <0>         0.0606
     38 H10         0.2613   -2.4754   -3.6507 H         1 <0>         0.0606
     39 H11         1.8211   -2.1379   -2.8625 H         1 <0>         0.0607
     40 H12         1.7604   -4.3710   -1.7862 H         1 <0>         0.0609
     41 H13         0.2006   -4.7085   -2.5744 H         1 <0>         0.0610
     42 H14         1.2689   -4.4533   -4.7976 H         1 <0>         0.0611
     43 H15         2.8287   -4.1158   -4.0093 H         1 <0>         0.0615
     44 H16         2.7679   -6.3489   -2.9330 H         1 <0>         0.0760
     45 H17         1.2081   -6.6864   -3.7213 H         1 <0>         0.0678
     46 H18         2.4800   -6.3976   -6.0250 H         1 <0>         0.1070
     47 H19         4.5778   -7.5297   -5.8127 H         1 <0>         0.1072
     48 H20         5.3856   -7.2383   -3.3164 H         1 <0>         0.0678
     49 H21         3.6981   -7.5335   -2.8332 H         1 <0>         0.0759
     50 H22         3.7956   -9.7848   -3.8680 H         1 <0>         0.0618
     51 H23         5.4831   -9.4896   -4.3512 H         1 <0>         0.0614
     52 H24         6.1164   -9.2120   -1.9699 H         1 <0>         0.0620
     53 H25         4.4289   -9.5071   -1.4867 H         1 <0>         0.0617
     54 H26         4.5263  -11.7584   -2.5214 H         1 <0>         0.0628
     55 H27         6.2138  -11.4633   -3.0047 H         1 <0>         0.0628
     56 H28         6.8471  -11.1856   -0.6234 H         1 <0>         0.0661
     57 H29         5.1596  -11.4808   -0.1402 H         1 <0>         0.0661
     58 H30         5.2571  -13.7321   -1.1749 H         1 <0>         0.0729
     59 H31         6.9446  -13.4369   -1.6582 H         1 <0>         0.0729
     60 H32         7.5779  -13.1593    0.7231 H         1 <0>         0.1162
     61 H33         5.8904  -13.4544    1.2063 H         1 <0>         0.1162
     62 H34         8.4643  -19.5435    3.1528 H         1 <0>         0.1539
     63 H35         9.1074  -19.3556    5.5419 H         1 <0>         0.1622
     64 H36         9.0280  -17.1608    6.6528 H         1 <0>         0.1804
@<TRIPOS>BOND
     1    1    2 1
     2    1   29 1
     3    1   30 1
     4    1   31 1
     5    2    3 1
     6    2   32 1
     7    2   33 1
     8    3    4 1
     9    3   34 1
    10    3   35 1
    11    4    5 1
    12    4   36 1
    13    4   37 1
    14    5    6 1
    15    5   38 1
    16    5   39 1
    17    6    7 1
    18    6   40 1
    19    6   41 1
    20    7    8 1
    21    7   42 1
    22    7   43 1
    23    8    9 1
    24    8   44 1
    25    8   45 1
    26    9   10 2
    27    9   46 1
    28   10   11 1
    29   10   47 1
    30   11   12 1
    31   11   48 1
    32   11   49 1
    33   12   13 1
    34   12   50 1
    35   12   51 1
    36   13   14 1
    37   13   52 1
    38   13   53 1
    39   14   15 1
    40   14   54 1
    41   14   55 1
    42   15   16 1
    43   15   56 1
    44   15   57 1
    45   16   17 1
    46   16   58 1
    47   16   59 1
    48   17   18 1
    49   17   60 1
    50   17   61 1
    51   18   19 2
    52   18   20 1
    53   20   24 1
    54   20   21 2
    55   21   22 1
    56   22   28 ar
    57   22   23 ar
    58   23   24 1
    59   23   25 ar
    60   25   26 ar
    61   25   62 1
    62   26   27 ar
    63   26   63 1
    64   27   28 ar
    65   27   64 1
@<TRIPOS>MOLECULE
ZINC13611905
   43    45     0     0     0
SMALL
USER_CHARGES
1-oxazolo[4,5-b]pyridin-2-yl-7-phenyl-heptan-1-one
@<TRIPOS>ATOM
      1 C1         12.2828    7.8174   -0.0769 C.ar      1 <0>        -0.1263
      2 C2         11.9640    7.2036    1.1200 C.ar      1 <0>        -0.1182
      3 C3         11.3017    5.9903    1.1197 C.ar      1 <0>        -0.1190
      4 C4         10.9584    5.3905   -0.0775 C.ar      1 <0>        -0.0817
      5 C5         11.2822    6.0015   -1.2745 C.ar      1 <0>        -0.1191
      6 C6         11.9399    7.2174   -1.2742 C.ar      1 <0>        -0.1182
      7 C7         10.2367    4.0676   -0.0778 C.3       1 <0>        -0.0826
      8 C8          8.7262    4.3106   -0.0610 C.3       1 <0>        -0.1134
      9 C9          7.9935    2.9675   -0.0613 C.3       1 <0>        -0.1205
     10 C10         6.4830    3.2106   -0.0445 C.3       1 <0>        -0.1201
     11 C11         5.7503    1.8674   -0.0448 C.3       1 <0>        -0.1169
     12 C12         4.2398    2.1105   -0.0280 C.3       1 <0>        -0.1294
     13 C13         3.5181    0.7875   -0.0283 C.2       1 <0>         0.4486
     14 O1          4.1494   -0.2473   -0.0407 O.2       1 <0>        -0.4044
     15 C14         2.0450    0.7518   -0.0134 C.2       1 <0>         0.1962
     16 N1          1.2685    1.8055   -0.0004 N.2       1 <0>        -0.4079
     17 C15        -0.0170    1.4038    0.0098 C.ar      1 <0>         0.2203
     18 C16         0.0021   -0.0041    0.0020 C.ar      1 <0>        -0.0341
     19 O2          1.2990   -0.3703   -0.0123 O.3       1 <0>        -0.1790
     20 C17        -1.2008   -0.7007    0.0098 C.ar      1 <0>        -0.0413
     21 C18        -2.3778    0.0258    0.0249 C.ar      1 <0>        -0.1387
     22 C19        -2.3256    1.4135    0.0319 C.ar      1 <0>         0.1341
     23 N2         -1.1792    2.0550    0.0292 N.ar      1 <0>        -0.4301
     24 H1         12.8000    8.7655   -0.0767 H         1 <0>         0.1207
     25 H2         12.2322    7.6723    2.0553 H         1 <0>         0.1212
     26 H3         11.0526    5.5108    2.0548 H         1 <0>         0.1205
     27 H4         11.0179    5.5308   -2.2099 H         1 <0>         0.1205
     28 H5         12.1893    7.6967   -2.2093 H         1 <0>         0.1212
     29 H6         10.5229    3.4974    0.8060 H         1 <0>         0.0720
     30 H7         10.5047    3.5077   -0.9739 H         1 <0>         0.0720
     31 H8          8.4401    4.8808   -0.9448 H         1 <0>         0.0638
     32 H9          8.4583    4.8705    0.8350 H         1 <0>         0.0638
     33 H10         8.2797    2.3973    0.8225 H         1 <0>         0.0643
     34 H11         8.2615    2.4077   -0.9574 H         1 <0>         0.0641
     35 H12         6.1969    3.7807   -0.9283 H         1 <0>         0.0665
     36 H13         6.2151    3.7704    0.8516 H         1 <0>         0.0668
     37 H14         6.0365    1.2972    0.8390 H         1 <0>         0.0740
     38 H15         6.0183    1.3076   -0.9408 H         1 <0>         0.0736
     39 H16         3.9774    2.6336   -0.8388 H         1 <0>         0.1033
     40 H17         3.9719    2.6703    0.8681 H         1 <0>         0.1164
     41 H18        -1.2161   -1.7805    0.0045 H         1 <0>         0.1540
     42 H19        -3.3306   -0.4826    0.0309 H         1 <0>         0.1623
     43 H20        -3.2467    1.9771    0.0437 H         1 <0>         0.1805
@<TRIPOS>BOND
     1    1    6 ar
     2    1    2 ar
     3    1   24 1
     4    2    3 ar
     5    2   25 1
     6    3    4 ar
     7    3   26 1
     8    4    5 ar
     9    4    7 1
    10    5    6 ar
    11    5   27 1
    12    6   28 1
    13    7    8 1
    14    7   29 1
    15    7   30 1
    16    8    9 1
    17    8   31 1
    18    8   32 1
    19    9   10 1
    20    9   33 1
    21    9   34 1
    22   10   11 1
    23   10   35 1
    24   10   36 1
    25   11   12 1
    26   11   37 1
    27   11   38 1
    28   12   13 1
    29   12   39 1
    30   12   40 1
    31   13   14 2
    32   13   15 1
    33   15   19 1
    34   15   16 2
    35   16   17 1
    36   17   23 ar
    37   17   18 ar
    38   18   19 1
    39   18   20 ar
    40   20   21 ar
    41   20   41 1
    42   21   22 ar
    43   21   42 1
    44   22   23 ar
    45   22   43 1
@<TRIPOS>MOLECULE
ZINC00119025
   34    36     0     0     0
SMALL
USER_CHARGES

@<TRIPOS>ATOM
      1 C1         -0.0169    1.3952    0.0097 C.ar      1 <0>        -0.0239
      2 C2          1.1683    2.0970    0.0022 C.ar      1 <0>        -0.1659
      3 C3          2.3789    1.4198   -0.0130 C.ar      1 <0>         0.1397
      4 C4          2.4047    0.0329   -0.0212 C.ar      1 <0>        -0.1651
      5 C5          1.2267   -0.6810   -0.0142 C.ar      1 <0>        -0.0399
      6 C6          0.0021   -0.0041    0.0020 C.ar      1 <0>        -0.1805
      7 C7         -1.2591   -0.7596    0.0105 C.2       1 <0>         0.4241
      8 O1         -2.3189   -0.1702    0.0242 O.2       1 <0>        -0.4310
      9 C8         -1.2348   -2.2664    0.0022 C.3       1 <0>        -0.1854
     10 S1         -2.9351   -2.8985    0.0157 S.3       1 <0>         0.1024
     11 C9         -2.7389   -4.6495    0.0043 C.2       1 <0>         0.2050
     12 N1         -1.6004   -5.3091   -0.0048 N.2       1 <0>        -0.3304
     13 N2         -1.8140   -6.5753   -0.0106 N.2       1 <0>        -0.0224
     14 N3         -3.0800   -6.8175   -0.0058 N.2       1 <0>        -0.0669
     15 N4         -3.7331   -5.5725    0.0092 N.pl3     1 <0>        -0.3090
     16 C10        -5.1162   -5.3356    0.0243 C.ar      1 <0>         0.1076
     17 C11        -5.6268   -4.2482    0.7200 C.ar      1 <0>        -0.0933
     18 C12        -6.9876   -4.0151    0.7341 C.ar      1 <0>        -0.1206
     19 C13        -7.8447   -4.8675    0.0531 C.ar      1 <0>         0.1284
     20 C14        -7.3349   -5.9547   -0.6420 C.ar      1 <0>        -0.1268
     21 C15        -5.9737   -6.1852   -0.6614 C.ar      1 <0>        -0.0736
     22 O2         -9.1844   -4.6377    0.0673 O.3       1 <0>        -0.4935
     23 F1          3.5378    2.1141   -0.0204 F         1 <0>        -0.1292
     24 H1         -0.9587    1.9236    0.0260 H         1 <0>         0.1480
     25 H2          1.1551    3.1769    0.0077 H         1 <0>         0.1466
     26 H3          3.3506   -0.4883   -0.0334 H         1 <0>         0.1469
     27 H4          1.2482   -1.7608   -0.0213 H         1 <0>         0.1461
     28 H5         -0.7241   -2.6166   -0.8948 H         1 <0>         0.1394
     29 H6         -0.7064   -2.6261    0.8850 H         1 <0>         0.1400
     30 H7         -4.9597   -3.5848    1.2504 H         1 <0>         0.1445
     31 H8         -7.3850   -3.1694    1.2756 H         1 <0>         0.1486
     32 H9         -8.0024   -6.6182   -1.1716 H         1 <0>         0.1469
     33 H10        -5.5765   -7.0289   -1.2061 H         1 <0>         0.1439
     34 H11        -9.4940   -4.0713   -0.6527 H         1 <0>         0.3994
@<TRIPOS>BOND
     1    1    6 ar
     2    1    2 ar
     3    1   24 1
     4    2    3 ar
     5    2   25 1
     6    3    4 ar
     7    3   23 1
     8    4    5 ar
     9    4   26 1
    10    5    6 ar
    11    5   27 1
    12    6    7 1
    13    7    8 2
    14    7    9 1
    15    9   10 1
    16    9   28 1
    17    9   29 1
    18   10   11 1
    19   11   15 1
    20   11   12 2
    21   12   13 1
    22   13   14 2
    23   14   15 1
    24   15   16 1
    25   16   21 ar
    26   16   17 ar
    27   17   18 ar
    28   17   30 1
    29   18   19 ar
    30   18   31 1
    31   19   20 ar
    32   19   22 1
    33   20   21 ar
    34   20   32 1
    35   21   33 1
    36   22   34 1
@<TRIPOS>MOLECULE
ZINC28710850
   58    58     0     0     0
SMALL
USER_CHARGES
[(2S)-oxiran-2-yl]methyl (9Z,12Z,15Z)-octadeca-9,12,15-trienoate
@<TRIPOS>ATOM
      1 C1         -0.1977    1.3640   -1.5245 C.3       1 <0>        -0.1490
      2 C2          0.3073    0.6711   -0.2573 C.3       1 <0>        -0.1086
      3 C3         -0.2703    1.3566    0.9541 C.2       1 <0>        -0.1609
      4 C4         -0.8910    0.6551    1.8700 C.2       1 <0>        -0.1557
      5 C5         -0.8875   -0.8501    1.7972 C.3       1 <0>        -0.0846
      6 C6         -0.3927   -1.4151    3.1038 C.2       1 <0>        -0.1534
      7 C7         -1.0988   -2.3197    3.7356 C.2       1 <0>        -0.1538
      8 C8         -2.3197   -2.9142    3.0820 C.3       1 <0>        -0.0841
      9 C9         -2.2105   -4.4173    3.0872 C.2       1 <0>        -0.1548
     10 C10        -3.1828   -5.1429    3.5812 C.2       1 <0>        -0.1605
     11 C11        -4.4809   -4.4908    3.9823 C.3       1 <0>        -0.1029
     12 C12        -5.6454   -5.2092    3.2977 C.3       1 <0>        -0.1147
     13 C13        -6.9633   -4.5472    3.7049 C.3       1 <0>        -0.1209
     14 C14        -8.1278   -5.2656    3.0203 C.3       1 <0>        -0.1210
     15 C15        -9.4457   -4.6035    3.4276 C.3       1 <0>        -0.1203
     16 C16       -10.6102   -5.3219    2.7430 C.3       1 <0>        -0.1115
     17 C17       -11.9281   -4.6599    3.1502 C.3       1 <0>        -0.1155
     18 C18       -13.0751   -5.3675    2.4759 C.2       1 <0>         0.4632
     19 O1        -12.8606   -6.3051    1.7447 O.2       1 <0>        -0.5048
     20 O2        -14.3351   -4.9561    2.6877 O.3       1 <0>        -0.3603
     21 C19       -15.3898   -5.6845    2.0054 C.3       1 <0>         0.0459
     22 C20       -16.7461   -5.0754    2.3665 C.3       1 <0>        -0.0765
     23 H1        -16.4011   -4.6938    3.3388 H         1 <0>         0.1639
     24 C21       -18.0030   -5.7725    1.8420 C.3       1 <0>        -0.0011
     25 O3        -17.5359   -4.5328    1.3064 O.3       1 <0>        -0.3028
     26 H2          0.2239    0.8637   -2.4088 H         1 <0>         0.0563
     27 H3          0.1157    2.4184   -1.5155 H         1 <0>         0.0549
     28 H4         -1.2957    1.3081   -1.5602 H         1 <0>         0.0549
     29 H5         -0.0061   -0.3833   -0.2663 H         1 <0>         0.0761
     30 H6          1.4053    0.7270   -0.2216 H         1 <0>         0.0691
     31 H7         -0.1707    2.4460    1.0693 H         1 <0>         0.1108
     32 H8         -1.4147    1.1648    2.6922 H         1 <0>         0.1104
     33 H9         -1.9090   -1.2103    1.6054 H         1 <0>         0.0837
     34 H10        -0.2246   -1.1763    0.9822 H         1 <0>         0.0846
     35 H11         0.5614   -1.0678    3.5269 H         1 <0>         0.1113
     36 H12        -0.8006   -2.6453    4.7431 H         1 <0>         0.1114
     37 H13        -3.2184   -2.6099    3.6385 H         1 <0>         0.0844
     38 H14        -2.3918   -2.5553    2.0447 H         1 <0>         0.0834
     39 H15        -1.3143   -4.9051    2.6762 H         1 <0>         0.1100
     40 H16        -3.0518   -6.2282    3.7033 H         1 <0>         0.1104
     41 H17        -4.6014   -4.5547    5.0738 H         1 <0>         0.0687
     42 H18        -4.4706   -3.4344    3.6758 H         1 <0>         0.0762
     43 H19        -5.5249   -5.1453    2.2062 H         1 <0>         0.0624
     44 H20        -5.6557   -6.2656    3.6042 H         1 <0>         0.0622
     45 H21        -7.0838   -4.6111    4.7964 H         1 <0>         0.0622
     46 H22        -6.9531   -3.4908    3.3984 H         1 <0>         0.0619
     47 H23        -8.0073   -5.2017    1.9288 H         1 <0>         0.0632
     48 H24        -8.1381   -6.3220    3.3268 H         1 <0>         0.0633
     49 H25        -9.5662   -4.6674    4.5191 H         1 <0>         0.0654
     50 H26        -9.4354   -3.5471    3.1211 H         1 <0>         0.0654
     51 H27       -10.4897   -5.2580    1.6515 H         1 <0>         0.0728
     52 H28       -10.6205   -6.3783    3.0495 H         1 <0>         0.0730
     53 H29       -12.0486   -4.7238    4.2417 H         1 <0>         0.1085
     54 H30       -11.9179   -3.6035    2.8437 H         1 <0>         0.1082
     55 H31       -15.2363   -5.6192    0.9181 H         1 <0>         0.0757
     56 H32       -15.3671   -6.7394    2.3162 H         1 <0>         0.0900
     57 H33       -17.7370   -6.7690    1.4596 H         1 <0>         0.1235
     58 H34       -18.7328   -5.8759    2.6586 H         1 <0>         0.1300
@<TRIPOS>BOND
     1    1    2 1
     2    1   26 1
     3    1   27 1
     4    1   28 1
     5    2    3 1
     6    2   29 1
     7    2   30 1
     8    3    4 2
     9    3   31 1
    10    4    5 1
    11    4   32 1
    12    5    6 1
    13    5   33 1
    14    5   34 1
    15    6    7 2
    16    6   35 1
    17    7    8 1
    18    7   36 1
    19    8    9 1
    20    8   37 1
    21    8   38 1
    22    9   10 2
    23    9   39 1
    24   10   11 1
    25   10   40 1
    26   11   12 1
    27   11   41 1
    28   11   42 1
    29   12   13 1
    30   12   43 1
    31   12   44 1
    32   13   14 1
    33   13   45 1
    34   13   46 1
    35   14   15 1
    36   14   47 1
    37   14   48 1
    38   15   16 1
    39   15   49 1
    40   15   50 1
    41   16   17 1
    42   16   51 1
    43   16   52 1
    44   17   18 1
    45   17   53 1
    46   17   54 1
    47   18   19 2
    48   18   20 1
    49   20   21 1
    50   21   22 1
    51   21   55 1
    52   21   56 1
    53   22   23 1
    54   22   25 1
    55   22   24 1
    56   24   25 1
    57   24   57 1
    58   24   58 1
@<TRIPOS>MOLECULE
ZINC28710851
   58    58     0     0     0
SMALL
USER_CHARGES
[(2R)-oxiran-2-yl]methyl (9Z,12Z,15Z)-octadeca-9,12,15-trienoate
@<TRIPOS>ATOM
      1 C1         -4.9246  -16.0743   -5.7526 C.3       1 <0>        -0.1488
      2 C2         -6.3548  -15.5648   -5.9419 C.3       1 <0>        -0.1086
      3 C3         -6.9805  -15.3122   -4.5945 C.2       1 <0>        -0.1610
      4 C4         -7.5205  -14.1481   -4.3309 C.2       1 <0>        -0.1554
      5 C5         -7.6743  -13.1237   -5.4254 C.3       1 <0>        -0.0845
      6 C6         -9.1077  -12.6623   -5.4838 C.2       1 <0>        -0.1538
      7 C7         -9.3873  -11.3839   -5.4227 C.2       1 <0>        -0.1535
      8 C8         -8.2758  -10.3669   -5.4582 C.3       1 <0>        -0.0841
      9 C9         -8.5592   -9.3503   -6.5339 C.2       1 <0>        -0.1552
     10 C10        -8.5619   -8.0729   -6.2436 C.2       1 <0>        -0.1602
     11 C11        -8.1237   -7.6096   -4.8781 C.3       1 <0>        -0.1029
     12 C12        -7.0498   -6.5299   -5.0263 C.3       1 <0>        -0.1149
     13 C13        -6.6048   -6.0596   -3.6400 C.3       1 <0>        -0.1209
     14 C14        -5.5309   -4.9799   -3.7881 C.3       1 <0>        -0.1210
     15 C15        -5.0860   -4.5096   -2.4019 C.3       1 <0>        -0.1203
     16 C16        -4.0121   -3.4299   -2.5500 C.3       1 <0>        -0.1115
     17 C17        -3.5671   -2.9596   -1.1638 C.3       1 <0>        -0.1155
     18 C18        -2.5093   -1.8961   -1.3097 C.2       1 <0>         0.4630
     19 O1         -2.1484   -1.5500   -2.4095 O.2       1 <0>        -0.5049
     20 O2         -1.9682   -1.3335   -0.2177 O.3       1 <0>        -0.3602
     21 C19        -0.9550   -0.3161   -0.4337 C.3       1 <0>         0.0459
     22 C20        -0.4593    0.2048    0.9168 C.3       1 <0>        -0.0765
     23 H1         -0.6520   -0.7442    1.4386 H         1 <0>         0.1635
     24 C21         0.6584    1.2496    0.9124 C.3       1 <0>        -0.0005
     25 O3         -0.6958    1.5794    1.2277 O.3       1 <0>        -0.3028
     26 H2         -4.4679  -16.2587   -6.7362 H         1 <0>         0.0564
     27 H3         -4.9423  -17.0104   -5.1752 H         1 <0>         0.0549
     28 H4         -4.3355  -15.3201   -5.2103 H         1 <0>         0.0549
     29 H5         -6.3371  -14.6287   -6.5193 H         1 <0>         0.0760
     30 H6         -6.9440  -16.3190   -6.4842 H         1 <0>         0.0689
     31 H7         -6.9838  -16.1053   -3.8323 H         1 <0>         0.1108
     32 H8         -7.8616  -13.9184   -3.3107 H         1 <0>         0.1104
     33 H9         -7.0205  -12.2639   -5.2173 H         1 <0>         0.0836
     34 H10        -7.3940  -13.5725   -6.3898 H         1 <0>         0.0843
     35 H11        -9.9192  -13.3989   -5.5777 H         1 <0>         0.1114
     36 H12       -10.4334  -11.0528   -5.3455 H         1 <0>         0.1114
     37 H13        -8.2105   -9.8610   -4.4836 H         1 <0>         0.0847
     38 H14        -7.3229  -10.8725   -5.6734 H         1 <0>         0.0834
     39 H15        -8.7638   -9.6809   -7.5629 H         1 <0>         0.1101
     40 H16        -8.8840   -7.3385   -6.9965 H         1 <0>         0.1105
     41 H17        -8.9873   -7.1960   -4.3366 H         1 <0>         0.0690
     42 H18        -7.7124   -8.4613   -4.3164 H         1 <0>         0.0763
     43 H19        -6.1863   -6.9435   -5.5679 H         1 <0>         0.0625
     44 H20        -7.4612   -5.6782   -5.5879 H         1 <0>         0.0622
     45 H21        -7.4683   -5.6460   -3.0985 H         1 <0>         0.0622
     46 H22        -6.1935   -6.9113   -3.0784 H         1 <0>         0.0618
     47 H23        -4.6674   -5.3935   -4.3296 H         1 <0>         0.0632
     48 H24        -5.9422   -4.1282   -4.3497 H         1 <0>         0.0633
     49 H25        -5.9496   -4.0960   -1.8604 H         1 <0>         0.0654
     50 H26        -4.6747   -5.3613   -1.8403 H         1 <0>         0.0654
     51 H27        -3.1486   -3.8435   -3.0916 H         1 <0>         0.0730
     52 H28        -4.4234   -2.5782   -3.1116 H         1 <0>         0.0728
     53 H29        -4.4306   -2.5460   -0.6222 H         1 <0>         0.1082
     54 H30        -3.1558   -3.8113   -0.6022 H         1 <0>         0.1085
     55 H31        -0.1120   -0.7507   -0.9909 H         1 <0>         0.0905
     56 H32        -1.3868    0.5147   -1.0111 H         1 <0>         0.0752
     57 H33         1.4289    0.9654    1.6442 H         1 <0>         0.1301
     58 H34         1.1071    1.3024   -0.0906 H         1 <0>         0.1235
@<TRIPOS>BOND
     1    1    2 1
     2    1   26 1
     3    1   27 1
     4    1   28 1
     5    2    3 1
     6    2   29 1
     7    2   30 1
     8    3    4 2
     9    3   31 1
    10    4    5 1
    11    4   32 1
    12    5    6 1
    13    5   33 1
    14    5   34 1
    15    6    7 2
    16    6   35 1
    17    7    8 1
    18    7   36 1
    19    8    9 1
    20    8   37 1
    21    8   38 1
    22    9   10 2
    23    9   39 1
    24   10   11 1
    25   10   40 1
    26   11   12 1
    27   11   41 1
    28   11   42 1
    29   12   13 1
    30   12   43 1
    31   12   44 1
    32   13   14 1
    33   13   45 1
    34   13   46 1
    35   14   15 1
    36   14   47 1
    37   14   48 1
    38   15   16 1
    39   15   49 1
    40   15   50 1
    41   16   17 1
    42   16   51 1
    43   16   52 1
    44   17   18 1
    45   17   53 1
    46   17   54 1
    47   18   19 2
    48   18   20 1
    49   20   21 1
    50   21   22 1
    51   21   55 1
    52   21   56 1
    53   22   23 1
    54   22   25 1
    55   22   24 1
    56   24   25 1
    57   24   57 1
    58   24   58 1
@<TRIPOS>MOLECULE
ZINC03871503
   66    66     0     0     0
SMALL
USER_CHARGES

@<TRIPOS>ATOM
      1 C1         -2.7514    2.0129   -1.0905 C.3       1 <0>        -0.1543
      2 C2         -2.7801    0.5018   -1.3285 C.3       1 <0>        -0.1260
      3 C3         -4.0308   -0.0933   -0.6785 C.3       1 <0>        -0.1214
      4 C4         -4.0595   -1.6044   -0.9165 C.3       1 <0>        -0.1145
      5 C5         -5.3102   -2.1994   -0.2665 C.3       1 <0>        -0.1024
      6 C6         -5.3384   -3.6878   -0.5009 C.2       1 <0>        -0.1578
      7 C7         -5.4889   -4.5073    0.5100 C.2       1 <0>        -0.1538
      8 C8         -5.8085   -3.9645    1.8790 C.3       1 <0>        -0.0832
      9 C9         -7.0395   -4.6483    2.4157 C.2       1 <0>        -0.1506
     10 C10        -7.0151   -5.2052    3.6012 C.2       1 <0>        -0.1526
     11 C11        -5.8205   -5.0131    4.4995 C.3       1 <0>        -0.0837
     12 C12        -6.2773   -4.4949    5.8389 C.2       1 <0>        -0.1511
     13 C13        -5.9233   -5.1158    6.9368 C.2       1 <0>        -0.1520
     14 C14        -4.9199   -6.2386    6.8774 C.3       1 <0>        -0.0833
     15 C15        -3.7996   -5.9629    7.8470 C.2       1 <0>        -0.1511
     16 C16        -3.4700   -6.8628    8.7400 C.2       1 <0>        -0.1578
     17 C17        -4.0869   -8.2368    8.6885 C.3       1 <0>        -0.1015
     18 C18        -2.9806   -9.2935    8.7078 C.3       1 <0>        -0.0994
     19 C19        -3.6069  -10.6885    8.6554 C.3       1 <0>        -0.1401
     20 C20        -2.5173  -11.7294    8.6744 C.2       1 <0>         0.5115
     21 O1         -1.3542  -11.3889    8.7249 O.2       1 <0>        -0.5168
     22 N1         -2.8352  -13.0385    8.6354 N.am      1 <0>        -0.6765
     23 C21        -1.8303  -14.0074    8.7563 C.ar      1 <0>         0.1365
     24 C22        -1.9463  -15.2162    8.0831 C.ar      1 <0>        -0.1299
     25 C23        -0.9553  -16.1704    8.2023 C.ar      1 <0>        -0.1249
     26 C24         0.1558  -15.9217    8.9948 C.ar      1 <0>         0.0891
     27 C25         0.2721  -14.7143    9.6680 C.ar      1 <0>        -0.1246
     28 C26        -0.7152  -13.7568    9.5447 C.ar      1 <0>        -0.1051
     29 O2          1.1310  -16.8619    9.1121 O.3       1 <0>        -0.4989
     30 H1         -1.8604    2.4368   -1.5536 H         1 <0>         0.0536
     31 H2         -3.6399    2.4667   -1.5295 H         1 <0>         0.0534
     32 H3         -2.7336    2.2117   -0.0190 H         1 <0>         0.0534
     33 H4         -2.7980    0.3030   -2.4001 H         1 <0>         0.0606
     34 H5         -1.8916    0.0479   -0.8896 H         1 <0>         0.0606
     35 H6         -4.0129    0.1055    0.3931 H         1 <0>         0.0610
     36 H7         -4.9193    0.3606   -1.1174 H         1 <0>         0.0613
     37 H8         -4.0773   -1.8031   -1.9881 H         1 <0>         0.0617
     38 H9         -3.1710   -2.0582   -0.4775 H         1 <0>         0.0620
     39 H10        -5.2923   -2.0006    0.8051 H         1 <0>         0.0754
     40 H11        -6.1987   -1.7455   -0.7054 H         1 <0>         0.0688
     41 H12        -5.2346   -4.0788   -1.5022 H         1 <0>         0.1089
     42 H13        -5.3838   -5.5720    0.3622 H         1 <0>         0.1085
     43 H14        -4.9687   -4.1500    2.5486 H         1 <0>         0.0826
     44 H15        -5.9892   -2.8917    1.8114 H         1 <0>         0.0838
     45 H16        -7.9418   -4.6794    1.8230 H         1 <0>         0.1097
     46 H17        -7.8512   -5.8019    3.9348 H         1 <0>         0.1098
     47 H18        -5.3098   -5.9666    4.6338 H         1 <0>         0.0832
     48 H19        -5.1367   -4.2954    4.0462 H         1 <0>         0.0833
     49 H20        -6.8964   -3.6117    5.8936 H         1 <0>         0.1099
     50 H21        -6.3507   -4.8230    7.8844 H         1 <0>         0.1099
     51 H22        -5.4079   -7.1763    7.1431 H         1 <0>         0.0832
     52 H23        -4.5165   -6.3123    5.8675 H         1 <0>         0.0831
     53 H24        -3.2686   -5.0234    7.8055 H         1 <0>         0.1096
     54 H25        -2.7562   -6.6200    9.5133 H         1 <0>         0.1106
     55 H26        -4.7372   -8.3757    9.5522 H         1 <0>         0.0712
     56 H27        -4.6709   -8.3388    7.7738 H         1 <0>         0.0769
     57 H28        -2.3303   -9.1546    7.8441 H         1 <0>         0.0724
     58 H29        -2.3966   -9.1915    9.6225 H         1 <0>         0.0721
     59 H30        -4.2572  -10.8275    9.5191 H         1 <0>         0.0991
     60 H31        -4.1909  -10.7905    7.7408 H         1 <0>         0.0974
     61 H32        -3.7597  -13.3100    8.5236 H         1 <0>         0.4124
     62 H33        -2.8116  -15.4102    7.4667 H         1 <0>         0.1305
     63 H34        -1.0455  -17.1107    7.6788 H         1 <0>         0.1334
     64 H35         1.1371  -14.5216   10.2853 H         1 <0>         0.1327
     65 H36        -0.6222  -12.8150   10.0650 H         1 <0>         0.1395
     66 H37         1.8317  -16.7864    8.4500 H         1 <0>         0.3905
@<TRIPOS>BOND
     1    1    2 1
     2    1   30 1
     3    1   31 1
     4    1   32 1
     5    2    3 1
     6    2   33 1
     7    2   34 1
     8    3    4 1
     9    3   35 1
    10    3   36 1
    11    4    5 1
    12    4   37 1
    13    4   38 1
    14    5    6 1
    15    5   39 1
    16    5   40 1
    17    6    7 2
    18    6   41 1
    19    7    8 1
    20    7   42 1
    21    8    9 1
    22    8   43 1
    23    8   44 1
    24    9   10 2
    25    9   45 1
    26   10   11 1
    27   10   46 1
    28   11   12 1
    29   11   47 1
    30   11   48 1
    31   12   13 2
    32   12   49 1
    33   13   14 1
    34   13   50 1
    35   14   15 1
    36   14   51 1
    37   14   52 1
    38   15   16 2
    39   15   53 1
    40   16   17 1
    41   16   54 1
    42   17   18 1
    43   17   55 1
    44   17   56 1
    45   18   19 1
    46   18   57 1
    47   18   58 1
    48   19   20 1
    49   19   59 1
    50   19   60 1
    51   20   21 2
    52   20   22 am
    53   22   23 1
    54   22   61 1
    55   23   28 ar
    56   23   24 ar
    57   24   25 ar
    58   24   62 1
    59   25   26 ar
    60   25   63 1
    61   26   27 ar
    62   26   29 1
    63   27   28 ar
    64   27   64 1
    65   28   65 1
    66   29   66 1
@<TRIPOS>MOLECULE
ZINC08035017
   58    57     0     0     0
SMALL
USER_CHARGES
N-(2-hydroxyethyl)hexadecanamide
@<TRIPOS>ATOM
      1 C1         -5.8075   19.0315   12.0746 C.3       1 <0>        -0.1543
      2 C2         -5.1659   18.5871   10.7586 C.3       1 <0>        -0.1262
      3 C3         -5.0244   17.0637   10.7491 C.3       1 <0>        -0.1212
      4 C4         -4.3827   16.6193    9.4332 C.3       1 <0>        -0.1212
      5 C5         -4.2413   15.0959    9.4236 C.3       1 <0>        -0.1206
      6 C6         -3.5996   14.6515    8.1077 C.3       1 <0>        -0.1208
      7 C7         -3.4581   13.1281    8.0982 C.3       1 <0>        -0.1204
      8 C8         -2.8165   12.6837    6.7822 C.3       1 <0>        -0.1208
      9 C9         -2.6750   11.1603    6.7727 C.3       1 <0>        -0.1203
     10 C10        -2.0333   10.7159    5.4567 C.3       1 <0>        -0.1211
     11 C11        -1.8918    9.1925    5.4472 C.3       1 <0>        -0.1199
     12 C12        -1.2502    8.7481    4.1313 C.3       1 <0>        -0.1207
     13 C13        -1.1087    7.2247    4.1217 C.3       1 <0>        -0.1201
     14 C14        -0.4670    6.7803    2.8058 C.3       1 <0>        -0.1050
     15 C15        -0.3256    5.2569    2.7963 C.3       1 <0>        -0.1404
     16 C16         0.3065    4.8192    1.5001 C.2       1 <0>         0.5101
     17 O1          0.6135    5.6445    0.6661 O.2       1 <0>        -0.5411
     18 N1          0.5305    3.5107    1.2677 N.am      1 <0>        -0.7288
     19 C17         1.1449    3.0852    0.0077 C.3       1 <0>         0.1176
     20 C18         1.2864    1.5618   -0.0018 C.3       1 <0>         0.0628
     21 O2         -0.0110    0.9628    0.0073 O.3       1 <0>        -0.5723
     22 H1         -5.9083   20.1168   12.0814 H         1 <0>         0.0534
     23 H2         -6.7924   18.5745   12.1711 H         1 <0>         0.0533
     24 H3         -5.1790   18.7197   12.9087 H         1 <0>         0.0533
     25 H4         -4.1810   19.0441   10.6621 H         1 <0>         0.0602
     26 H5         -5.7944   18.8989    9.9244 H         1 <0>         0.0603
     27 H6         -6.0093   16.6067   10.8456 H         1 <0>         0.0605
     28 H7         -4.3959   16.7519   11.5833 H         1 <0>         0.0605
     29 H8         -3.3979   17.0763    9.3366 H         1 <0>         0.0605
     30 H9         -5.0113   16.9311    8.5990 H         1 <0>         0.0605
     31 H10        -5.2261   14.6389    9.5201 H         1 <0>         0.0604
     32 H11        -3.6127   14.7841   10.2578 H         1 <0>         0.0603
     33 H12        -2.6147   15.1085    8.0112 H         1 <0>         0.0604
     34 H13        -4.2281   14.9633    7.2735 H         1 <0>         0.0604
     35 H14        -4.4430   12.6711    8.1947 H         1 <0>         0.0602
     36 H15        -2.8296   12.8164    8.9323 H         1 <0>         0.0602
     37 H16        -1.8316   13.1407    6.6857 H         1 <0>         0.0604
     38 H17        -3.4450   12.9955    5.9480 H         1 <0>         0.0604
     39 H18        -3.6598   10.7033    6.8692 H         1 <0>         0.0602
     40 H19        -2.0465   10.8486    7.6069 H         1 <0>         0.0601
     41 H20        -1.0484   11.1729    5.3602 H         1 <0>         0.0606
     42 H21        -2.6618   11.0277    4.6226 H         1 <0>         0.0607
     43 H22        -2.8767    8.7355    5.5437 H         1 <0>         0.0605
     44 H23        -1.2633    8.8808    6.2814 H         1 <0>         0.0603
     45 H24        -0.2653    9.2051    4.0347 H         1 <0>         0.0620
     46 H25        -1.8787    9.0599    3.2971 H         1 <0>         0.0621
     47 H26        -2.0936    6.7677    4.2183 H         1 <0>         0.0620
     48 H27        -0.4802    6.9130    4.9559 H         1 <0>         0.0618
     49 H28         0.5178    7.2373    2.7093 H         1 <0>         0.0693
     50 H29        -1.0956    7.0921    1.9716 H         1 <0>         0.0695
     51 H30        -1.3104    4.8000    2.8928 H         1 <0>         0.0936
     52 H31         0.3030    4.9452    3.6305 H         1 <0>         0.0929
     53 H32         0.2849    2.8506    1.9348 H         1 <0>         0.4035
     54 H33         2.1297    3.5421   -0.0888 H         1 <0>         0.0823
     55 H34         0.5164    3.3969   -0.8265 H         1 <0>         0.0751
     56 H35         1.8401    1.2428    0.8812 H         1 <0>         0.0540
     57 H36         1.8231    1.2523   -0.8987 H         1 <0>         0.0648
     58 H37         0.0021   -0.0041    0.0020 H         1 <0>         0.3841
@<TRIPOS>BOND
     1    1    2 1
     2    1   22 1
     3    1   23 1
     4    1   24 1
     5    2    3 1
     6    2   25 1
     7    2   26 1
     8    3    4 1
     9    3   27 1
    10    3   28 1
    11    4    5 1
    12    4   29 1
    13    4   30 1
    14    5    6 1
    15    5   31 1
    16    5   32 1
    17    6    7 1
    18    6   33 1
    19    6   34 1
    20    7    8 1
    21    7   35 1
    22    7   36 1
    23    8    9 1
    24    8   37 1
    25    8   38 1
    26    9   10 1
    27    9   39 1
    28    9   40 1
    29   10   11 1
    30   10   41 1
    31   10   42 1
    32   11   12 1
    33   11   43 1
    34   11   44 1
    35   12   13 1
    36   12   45 1
    37   12   46 1
    38   13   14 1
    39   13   47 1
    40   13   48 1
    41   14   15 1
    42   14   49 1
    43   14   50 1
    44   15   16 1
    45   15   51 1
    46   15   52 1
    47   16   17 2
    48   16   18 am
    49   18   19 1
    50   18   53 1
    51   19   20 1
    52   19   54 1
    53   19   55 1
    54   20   21 1
    55   20   56 1
    56   20   57 1
    57   21   58 1
@<TRIPOS>MOLECULE
ZINC00398657
   36    37     0     0     0
SMALL
USER_CHARGES

@<TRIPOS>ATOM
      1 C1          0.0636    1.5033    0.0008 C.3       1 <0>        -0.1171
      2 C2          0.0621   -0.0037   -0.0050 C.ar      1 <0>        -0.0820
      3 C3          1.2238   -0.6961    0.2826 C.ar      1 <0>        -0.1053
      4 C4          1.2250   -2.0775    0.2780 C.ar      1 <0>        -0.1161
      5 C5          0.0593   -2.7700   -0.0151 C.ar      1 <0>         0.0981
      6 C6         -1.1051   -2.0730   -0.3028 C.ar      1 <0>        -0.1114
      7 C7         -1.1023   -0.6916   -0.2922 C.ar      1 <0>        -0.1063
      8 O1          0.0580   -4.1294   -0.0207 O.3       1 <0>        -0.3089
      9 C8          0.1763   -4.7666    1.1599 C.2       1 <0>         0.6445
     10 O2          0.1716   -4.1319    2.1961 O.2       1 <0>        -0.5524
     11 N1          0.2999   -6.1083    1.1920 N.am      1 <0>        -0.7026
     12 C9          0.4286   -6.8015    2.4762 C.3       1 <0>         0.1617
     13 C10        -0.9628   -7.0626    3.0565 C.3       1 <0>        -0.1329
     14 C11        -0.8285   -7.7866    4.3976 C.3       1 <0>        -0.1173
     15 C12        -0.1052   -9.1184    4.1880 C.3       1 <0>        -0.1238
     16 C13         1.2862   -8.8574    3.6077 C.3       1 <0>        -0.1158
     17 C14         1.1518   -8.1334    2.2666 C.3       1 <0>        -0.1270
     18 H1         -0.1801    1.8631    1.0004 H         1 <0>         0.0740
     19 H2          1.0506    1.8668   -0.2855 H         1 <0>         0.0692
     20 H3         -0.6784    1.8701   -0.7084 H         1 <0>         0.0694
     21 H4          2.1312   -0.1565    0.5107 H         1 <0>         0.1308
     22 H5          2.1329   -2.6180    0.5020 H         1 <0>         0.1268
     23 H6         -2.0138   -2.6099   -0.5317 H         1 <0>         0.1318
     24 H7         -2.0095   -0.1485   -0.5125 H         1 <0>         0.1326
     25 H8          0.3037   -6.6150    0.3648 H         1 <0>         0.4077
     26 H9          1.0003   -6.1825    3.1675 H         1 <0>         0.0929
     27 H10        -1.4781   -6.1138    3.2058 H         1 <0>         0.0688
     28 H11        -1.5346   -7.6817    2.3651 H         1 <0>         0.0666
     29 H12        -0.2568   -7.1675    5.0890 H         1 <0>         0.0658
     30 H13        -1.8197   -7.9726    4.8110 H         1 <0>         0.0674
     31 H14        -0.0095   -9.6342    5.1435 H         1 <0>         0.0661
     32 H15        -0.6769   -9.7375    3.4966 H         1 <0>         0.0640
     33 H16         1.8579   -8.2383    4.2991 H         1 <0>         0.0668
     34 H17         1.8015   -9.8062    3.4584 H         1 <0>         0.0706
     35 H18         0.5801   -8.7525    1.5752 H         1 <0>         0.0717
     36 H19         2.1431   -7.9474    1.8532 H         1 <0>         0.0719
@<TRIPOS>BOND
     1    1    2 1
     2    1   18 1
     3    1   19 1
     4    1   20 1
     5    2    7 ar
     6    2    3 ar
     7    3    4 ar
     8    3   21 1
     9    4    5 ar
    10    4   22 1
    11    5    6 ar
    12    5    8 1
    13    6    7 ar
    14    6   23 1
    15    7   24 1
    16    8    9 1
    17    9   10 2
    18    9   11 am
    19   11   12 1
    20   11   25 1
    21   12   17 1
    22   12   13 1
    23   12   26 1
    24   13   14 1
    25   13   27 1
    26   13   28 1
    27   14   15 1
    28   14   29 1
    29   14   30 1
    30   15   16 1
    31   15   31 1
    32   15   32 1
    33   16   17 1
    34   16   33 1
    35   16   34 1
    36   17   35 1
    37   17   36 1
@<TRIPOS>MOLECULE
ZINC34803437
   56    55     0     0     0
SMALL
USER_CHARGES

@<TRIPOS>ATOM
      1 C1          0.1245    1.2913    1.2265 C.3       1 <0>        -0.1544
      2 C2          0.1194   -0.2123    0.9436 C.3       1 <0>        -0.1261
      3 C3         -1.3223   -0.7245    0.9342 C.3       1 <0>        -0.1214
      4 C4         -1.3274   -2.2282    0.6513 C.3       1 <0>        -0.1210
      5 C5         -2.7691   -2.7404    0.6419 C.3       1 <0>        -0.1206
      6 C6         -2.7742   -4.2440    0.3590 C.3       1 <0>        -0.1205
      7 C7         -4.2159   -4.7563    0.3496 C.3       1 <0>        -0.1140
      8 C8         -4.2210   -6.2599    0.0667 C.3       1 <0>        -0.1018
      9 C9         -5.6410   -6.7645    0.0574 C.2       1 <0>        -0.1593
     10 C10        -6.0832   -7.4576   -0.9625 C.2       1 <0>        -0.1607
     11 C11        -5.1311   -7.8959   -2.0452 C.3       1 <0>        -0.1018
     12 C12        -5.2475   -9.4083   -2.2451 C.3       1 <0>        -0.1142
     13 C13        -4.2809   -9.8534   -3.3444 C.3       1 <0>        -0.1203
     14 C14        -4.3973  -11.3658   -3.5443 C.3       1 <0>        -0.1210
     15 C15        -3.4307  -11.8109   -4.6435 C.3       1 <0>        -0.1198
     16 C16        -3.5471  -13.3233   -4.8434 C.3       1 <0>        -0.1143
     17 C17        -2.5805  -13.7684   -5.9427 C.3       1 <0>        -0.1631
     18 C18        -2.6952  -15.2580   -6.1396 C.2       1 <0>         0.3285
     19 O1         -3.4701  -15.8977   -5.4698 O.2       1 <0>        -0.3737
     20 C19        -1.8428  -15.9494   -7.1723 C.3       1 <0>         0.4164
     21 F1         -2.1257  -17.3195   -7.1690 F         1 <0>        -0.1648
     22 F2         -2.1201  -15.4191   -8.4368 F         1 <0>        -0.1663
     23 F3         -0.4913  -15.7516   -6.8698 F         1 <0>        -0.1663
     24 H1          1.1516    1.6563    1.2332 H         1 <0>         0.0535
     25 H2         -0.4399    1.8089    0.4508 H         1 <0>         0.0533
     26 H3         -0.3345    1.4800    2.1969 H         1 <0>         0.0533
     27 H4          0.5784   -0.4010   -0.0269 H         1 <0>         0.0602
     28 H5          0.6838   -0.7299    1.7192 H         1 <0>         0.0603
     29 H6         -1.7813   -0.5358    1.9046 H         1 <0>         0.0606
     30 H7         -1.8867   -0.2070    0.1585 H         1 <0>         0.0606
     31 H8         -0.8684   -2.4169   -0.3192 H         1 <0>         0.0606
     32 H9         -0.7630   -2.7457    1.4270 H         1 <0>         0.0606
     33 H10        -3.2281   -2.5517    1.6123 H         1 <0>         0.0607
     34 H11        -3.3335   -2.2229   -0.1338 H         1 <0>         0.0607
     35 H12        -2.3152   -4.4327   -0.6115 H         1 <0>         0.0608
     36 H13        -2.2098   -4.7616    1.1347 H         1 <0>         0.0611
     37 H14        -4.6749   -4.5676    1.3201 H         1 <0>         0.0612
     38 H15        -4.7803   -4.2387   -0.4261 H         1 <0>         0.0616
     39 H16        -3.7620   -6.4486   -0.9038 H         1 <0>         0.0758
     40 H17        -3.6566   -6.7775    0.8424 H         1 <0>         0.0679
     41 H18        -6.2941   -6.5546    0.8916 H         1 <0>         0.1073
     42 H19        -7.1301   -7.7148   -1.0273 H         1 <0>         0.1073
     43 H20        -5.3798   -7.3862   -2.9760 H         1 <0>         0.0678
     44 H21        -4.1107   -7.6453   -1.7551 H         1 <0>         0.0759
     45 H22        -4.9988   -9.9181   -1.3143 H         1 <0>         0.0620
     46 H23        -6.2679   -9.6590   -2.5352 H         1 <0>         0.0616
     47 H24        -4.5296   -9.3437   -4.2752 H         1 <0>         0.0621
     48 H25        -3.2605   -9.6028   -3.0543 H         1 <0>         0.0618
     49 H26        -4.1486  -11.8756   -2.6135 H         1 <0>         0.0631
     50 H27        -5.4177  -11.6165   -3.8344 H         1 <0>         0.0632
     51 H28        -3.6794  -11.3012   -5.5743 H         1 <0>         0.0663
     52 H29        -2.4103  -11.5602   -4.3534 H         1 <0>         0.0662
     53 H30        -3.2984  -13.8330   -3.9126 H         1 <0>         0.0735
     54 H31        -4.5675  -13.5740   -5.1335 H         1 <0>         0.0735
     55 H32        -2.8292  -13.2586   -6.8735 H         1 <0>         0.1182
     56 H33        -1.5601  -13.5177   -5.6526 H         1 <0>         0.1181
@<TRIPOS>BOND
     1    1    2 1
     2    1   24 1
     3    1   25 1
     4    1   26 1
     5    2    3 1
     6    2   27 1
     7    2   28 1
     8    3    4 1
     9    3   29 1
    10    3   30 1
    11    4    5 1
    12    4   31 1
    13    4   32 1
    14    5    6 1
    15    5   33 1
    16    5   34 1
    17    6    7 1
    18    6   35 1
    19    6   36 1
    20    7    8 1
    21    7   37 1
    22    7   38 1
    23    8    9 1
    24    8   39 1
    25    8   40 1
    26    9   10 2
    27    9   41 1
    28   10   11 1
    29   10   42 1
    30   11   12 1
    31   11   43 1
    32   11   44 1
    33   12   13 1
    34   12   45 1
    35   12   46 1
    36   13   14 1
    37   13   47 1
    38   13   48 1
    39   14   15 1
    40   14   49 1
    41   14   50 1
    42   15   16 1
    43   15   51 1
    44   15   52 1
    45   16   17 1
    46   16   53 1
    47   16   54 1
    48   17   18 1
    49   17   55 1
    50   17   56 1
    51   18   19 2
    52   18   20 1
    53   20   21 1
    54   20   22 1
    55   20   23 1
@<TRIPOS>MOLECULE
ZINC03816417
   43    45     0     0     0
SMALL
USER_CHARGES
(3-phenylphenyl) cyclohexylaminoformate
@<TRIPOS>ATOM
      1 C1         -3.5810    4.4988   -9.9320 C.ar      1 <0>        -0.1161
      2 C2         -3.8905    3.2076  -10.3197 C.ar      1 <0>        -0.1174
      3 C3         -3.4239    2.1342   -9.5883 C.ar      1 <0>        -0.1079
      4 C4         -2.6393    2.3530   -8.4579 C.ar      1 <0>        -0.0482
      5 C5         -2.3346    3.6558   -8.0692 C.ar      1 <0>        -0.1081
      6 C6         -2.8021    4.7218   -8.8109 C.ar      1 <0>        -0.1169
      7 C7         -2.1352    1.2028   -7.6673 C.ar      1 <0>        -0.0301
      8 C8         -2.4456   -0.1001   -8.0531 C.ar      1 <0>        -0.1058
      9 C9         -1.9759   -1.1683   -7.3158 C.ar      1 <0>        -0.1011
     10 C10        -1.1927   -0.9502   -6.1976 C.ar      1 <0>        -0.1158
     11 C11        -0.8839    0.3442   -5.8036 C.ar      1 <0>         0.1053
     12 C12        -1.3512    1.4221   -6.5377 C.ar      1 <0>        -0.1055
     13 O1         -0.1182    0.5542   -4.7001 O.3       1 <0>        -0.3058
     14 C13        -0.7545    0.9471   -3.5800 C.2       1 <0>         0.6427
     15 O2         -1.9459    1.1843   -3.6096 O.2       1 <0>        -0.5508
     16 N1         -0.0699    1.0770   -2.4264 N.am      1 <0>        -0.7024
     17 C14        -0.7621    1.5044   -1.2080 C.3       1 <0>         0.1616
     18 C15         0.0011    0.9964    0.0169 C.3       1 <0>        -0.1270
     19 C16        -0.7218    1.4427    1.2894 C.3       1 <0>        -0.1159
     20 C17        -0.7896    2.9707    1.3282 C.3       1 <0>        -0.1238
     21 C18        -1.5528    3.4786    0.1033 C.3       1 <0>        -0.1173
     22 C19        -0.8299    3.0324   -1.1692 C.3       1 <0>        -0.1327
     23 H1         -3.9484    5.3359  -10.5070 H         1 <0>         0.1242
     24 H2         -4.4988    3.0392  -11.1961 H         1 <0>         0.1261
     25 H3         -3.6663    1.1264   -9.8919 H         1 <0>         0.1268
     26 H4         -1.7305    3.8312   -7.1912 H         1 <0>         0.1236
     27 H5         -2.5627    5.7319   -8.5131 H         1 <0>         0.1254
     28 H6         -3.0538   -0.2738   -8.9285 H         1 <0>         0.1330
     29 H7         -2.2172   -2.1773   -7.6159 H         1 <0>         0.1363
     30 H8         -0.8236   -1.7894   -5.6267 H         1 <0>         0.1327
     31 H9         -1.1077    2.4298   -6.2350 H         1 <0>         0.1307
     32 H10         0.8811    0.8876   -2.4029 H         1 <0>         0.4077
     33 H11        -1.7725    1.0956   -1.2018 H         1 <0>         0.0931
     34 H12         0.0494   -0.0921   -0.0107 H         1 <0>         0.0720
     35 H13         1.0115    1.4052    0.0107 H         1 <0>         0.0717
     36 H14        -1.7322    1.0339    1.2956 H         1 <0>         0.0668
     37 H15        -0.1781    1.0809    2.1620 H         1 <0>         0.0706
     38 H16         0.2209    3.3795    1.3220 H         1 <0>         0.0640
     39 H17        -1.3046    3.2887    2.2347 H         1 <0>         0.0662
     40 H18        -1.6011    4.5672    0.1309 H         1 <0>         0.0674
     41 H19        -2.5632    3.0698    0.1095 H         1 <0>         0.0659
     42 H20         0.1805    3.4412   -1.1754 H         1 <0>         0.0666
     43 H21        -1.3736    3.3942   -2.0419 H         1 <0>         0.0686
@<TRIPOS>BOND
     1    1    6 ar
     2    1    2 ar
     3    1   23 1
     4    2    3 ar
     5    2   24 1
     6    3    4 ar
     7    3   25 1
     8    4    5 ar
     9    4    7 1
    10    5    6 ar
    11    5   26 1
    12    6   27 1
    13    7   12 ar
    14    7    8 ar
    15    8    9 ar
    16    8   28 1
    17    9   10 ar
    18    9   29 1
    19   10   11 ar
    20   10   30 1
    21   11   12 ar
    22   11   13 1
    23   12   31 1
    24   13   14 1
    25   14   15 2
    26   14   16 am
    27   16   17 1
    28   16   32 1
    29   17   22 1
    30   17   18 1
    31   17   33 1
    32   18   19 1
    33   18   34 1
    34   18   35 1
    35   19   20 1
    36   19   36 1
    37   19   37 1
    38   20   21 1
    39   20   38 1
    40   20   39 1
    41   21   22 1
    42   21   40 1
    43   21   41 1
    44   22   42 1
    45   22   43 1
@<TRIPOS>MOLECULE
ZINC04394394
   37    38     0     0     0
SMALL
USER_CHARGES
[4-(4,5-dihydrothiazol-2-yl)phenyl] butylaminoformate
@<TRIPOS>ATOM
      1 C1          8.7863   11.9342   -3.0932 C.3       1 <0>        -0.1537
      2 C2          8.0652   10.6047   -3.3243 C.3       1 <0>        -0.1216
      3 C3          7.2472   10.2456   -2.0822 C.3       1 <0>        -0.1333
      4 C4          6.5261    8.9161   -2.3133 C.3       1 <0>         0.1336
      5 N1          5.7428    8.5723   -1.1240 N.am      1 <0>        -0.7049
      6 C5          5.0196    7.4352   -1.0989 C.2       1 <0>         0.6433
      7 O1          5.0174    6.6953   -2.0627 O.2       1 <0>        -0.5494
      8 O2          4.2994    7.1191   -0.0054 O.3       1 <0>        -0.3050
      9 C6          3.6942    5.9031    0.0040 C.ar      1 <0>         0.1285
     10 C7          4.4597    4.7490    0.1101 C.ar      1 <0>        -0.1241
     11 C8          3.8491    3.5136    0.1195 C.ar      1 <0>        -0.0493
     12 C9          2.4599    3.4230    0.0224 C.ar      1 <0>        -0.0366
     13 C10         1.6943    4.5845   -0.0894 C.ar      1 <0>        -0.0637
     14 C11         2.3113    5.8167   -0.0928 C.ar      1 <0>        -0.1165
     15 C12         1.8007    2.0985    0.0317 C.2       1 <0>         0.2592
     16 N2          2.3765    0.9414    0.1228 N.2       1 <0>        -0.5292
     17 C13         1.6238   -0.2920    0.1207 C.3       1 <0>         0.0355
     18 C14         0.1008   -0.0627    0.0003 C.3       1 <0>        -0.0988
     19 S1          0.0534    1.7693   -0.0812 S.3       1 <0>        -0.2299
     20 H1          8.0524   12.7172   -2.9026 H         1 <0>         0.0554
     21 H2          9.4511   11.8425   -2.2343 H         1 <0>         0.0553
     22 H3          9.3691   12.1900   -3.9781 H         1 <0>         0.0577
     23 H4          8.7991    9.8216   -3.5148 H         1 <0>         0.0669
     24 H5          7.4004   10.6964   -4.1832 H         1 <0>         0.0670
     25 H6          6.5133   11.0287   -1.8916 H         1 <0>         0.0731
     26 H7          7.9120   10.1539   -1.2233 H         1 <0>         0.0730
     27 H8          7.2600    8.1331   -2.5038 H         1 <0>         0.0741
     28 H9          5.8613    9.0079   -3.1722 H         1 <0>         0.0741
     29 H10         5.7446    9.1630   -0.3546 H         1 <0>         0.4098
     30 H11         5.5347    4.8198    0.1856 H         1 <0>         0.1364
     31 H12         4.4449    2.6166    0.2017 H         1 <0>         0.1443
     32 H13         0.6193    4.5178   -0.1689 H         1 <0>         0.1414
     33 H14         1.7191    6.7162   -0.1752 H         1 <0>         0.1424
     34 H15         1.8266   -0.8296    1.0470 H         1 <0>         0.1080
     35 H16         1.9548   -0.9048   -0.7178 H         1 <0>         0.1081
     36 H17        -0.4255   -0.4330    0.8801 H         1 <0>         0.1144
     37 H18        -0.2953   -0.5093   -0.9117 H         1 <0>         0.1143
@<TRIPOS>BOND
     1    1    2 1
     2    1   20 1
     3    1   21 1
     4    1   22 1
     5    2    3 1
     6    2   23 1
     7    2   24 1
     8    3    4 1
     9    3   25 1
    10    3   26 1
    11    4    5 1
    12    4   27 1
    13    4   28 1
    14    5    6 am
    15    5   29 1
    16    6    7 2
    17    6    8 1
    18    8    9 1
    19    9   14 ar
    20    9   10 ar
    21   10   11 ar
    22   10   30 1
    23   11   12 ar
    24   11   31 1
    25   12   13 ar
    26   12   15 1
    27   13   14 ar
    28   13   32 1
    29   14   33 1
    30   15   19 1
    31   15   16 2
    32   16   17 1
    33   17   18 1
    34   17   34 1
    35   17   35 1
    36   18   19 1
    37   18   36 1
    38   18   37 1
@<TRIPOS>MOLECULE
ZINC01028145
   45    48     0     0     0
SMALL
USER_CHARGES

@<TRIPOS>ATOM
      1 C1          0.7229    1.3570    2.1633 C.ar      1 <0>        -0.0985
      2 C2          1.7063    2.0820    1.5147 C.ar      1 <0>        -0.1270
      3 C3          2.8227    1.4425    1.0153 C.ar      1 <0>        -0.0757
      4 C4          2.9583    0.0637    1.1659 C.ar      1 <0>        -0.0318
      5 C5          1.9647   -0.6616    1.8206 C.ar      1 <0>        -0.0691
      6 C6          0.8523   -0.0117    2.3155 C.ar      1 <0>        -0.1286
      7 C7          4.1559   -0.6294    0.6307 C.2       1 <0>         0.3411
      8 N1          4.3013   -1.9374    0.7588 N.2       1 <0>        -0.5850
      9 C8          5.3941   -2.4846    0.2571 C.2       1 <0>         0.3219
     10 S1          6.2062   -1.1629   -0.3883 S.3       1 <0>         0.2270
     11 N2          5.1059    0.0377    0.0080 N.2       1 <0>        -0.4895
     12 N3          5.7749   -3.8140    0.2623 N.pl3     1 <0>        -0.5538
     13 C9          4.9167   -4.8355    0.8786 C.3       1 <0>         0.1094
     14 C10         4.6259   -5.9241   -0.1619 C.3       1 <0>         0.1147
     15 N4          5.8958   -6.3408   -0.7731 N.am      1 <0>        -0.6273
     16 C11         6.7540   -5.3193   -1.3894 C.3       1 <0>         0.0951
     17 C12         7.0422   -4.2315   -0.3539 C.3       1 <0>         0.1071
     18 C13         6.2669   -7.6364   -0.7680 C.2       1 <0>         0.7097
     19 O1          5.5987   -8.4579   -0.1704 O.2       1 <0>        -0.5625
     20 N5          7.3787   -8.0215   -1.4254 N.am      1 <0>        -0.6862
     21 C14         7.6848   -9.3818   -1.5455 C.ar      1 <0>         0.1614
     22 C15         6.6647  -10.3169   -1.6610 C.ar      1 <0>        -0.1198
     23 C16         6.9701  -11.6586   -1.7799 C.ar      1 <0>        -0.0991
     24 C17         8.2899  -12.0711   -1.7839 C.ar      1 <0>        -0.1355
     25 C18         9.3080  -11.1424   -1.6685 C.ar      1 <0>        -0.0992
     26 C19         9.0093   -9.7987   -1.5551 C.ar      1 <0>        -0.1479
     27 H1         -0.1471    1.8621    2.5562 H         1 <0>         0.1267
     28 H2          1.6001    3.1505    1.3986 H         1 <0>         0.1293
     29 H3          3.5895    2.0094    0.5084 H         1 <0>         0.1330
     30 H4          2.0648   -1.7303    1.9400 H         1 <0>         0.1350
     31 H5          0.0814   -0.5729    2.8227 H         1 <0>         0.1289
     32 H6          5.4284   -5.2751    1.7348 H         1 <0>         0.0814
     33 H7          3.9810   -4.3800    1.2029 H         1 <0>         0.1113
     34 H8          4.1561   -6.7790    0.3246 H         1 <0>         0.1143
     35 H9          3.9626   -5.5275   -0.9306 H         1 <0>         0.0774
     36 H10         7.6897   -5.7747   -1.7137 H         1 <0>         0.0961
     37 H11         6.2423   -4.8797   -2.2456 H         1 <0>         0.0853
     38 H12         7.5098   -3.3772   -0.8434 H         1 <0>         0.1004
     39 H13         7.7087   -4.6271    0.4125 H         1 <0>         0.0906
     40 H14         7.9667   -7.3558   -1.8152 H         1 <0>         0.4048
     41 H15         5.6337   -9.9954   -1.6576 H         1 <0>         0.1331
     42 H16         6.1772  -12.3864   -1.8694 H         1 <0>         0.1261
     43 H17         8.5261  -13.1208   -1.8769 H         1 <0>         0.1240
     44 H18        10.3378  -11.4677   -1.6716 H         1 <0>         0.1269
     45 H19         9.8050   -9.0734   -1.4698 H         1 <0>         0.1243
@<TRIPOS>BOND
     1    1    6 ar
     2    1    2 ar
     3    1   27 1
     4    2    3 ar
     5    2   28 1
     6    3    4 ar
     7    3   29 1
     8    4    5 ar
     9    4    7 1
    10    5    6 ar
    11    5   30 1
    12    6   31 1
    13    7   11 2
    14    7    8 1
    15    8    9 2
    16    9   10 1
    17    9   12 1
    18   10   11 1
    19   12   17 1
    20   12   13 1
    21   13   14 1
    22   13   32 1
    23   13   33 1
    24   14   15 1
    25   14   34 1
    26   14   35 1
    27   15   16 1
    28   15   18 am
    29   16   17 1
    30   16   36 1
    31   16   37 1
    32   17   38 1
    33   17   39 1
    34   18   19 2
    35   18   20 am
    36   20   21 1
    37   20   40 1
    38   21   26 ar
    39   21   22 ar
    40   22   23 ar
    41   22   41 1
    42   23   24 ar
    43   23   42 1
    44   24   25 ar
    45   24   43 1
    46   25   26 ar
    47   25   44 1
    48   26   45 1
@<TRIPOS>MOLECULE
ZINC00953335
   56    60     0     0     0
SMALL
USER_CHARGES

@<TRIPOS>ATOM
      1 C1         -0.1223    1.4738   -0.1176 C.3       1 <0>        -0.1151
      2 C2          0.1064    0.0893    0.4321 C.ar      1 <0>        -0.0579
      3 C3          0.9400   -0.1019    1.5254 C.ar      1 <0>        -0.1120
      4 C4          1.1659   -1.3384    2.0436 C.ar      1 <0>        -0.0548
      5 C5          0.5536   -2.4838    1.4808 C.ar      1 <0>         0.0724
      6 C6         -0.2902   -2.2564    0.3678 C.ar      1 <0>        -0.1352
      7 C7         -0.5164   -1.0022   -0.1440 C.ar      1 <0>        -0.0712
      8 S1         -0.8448   -3.8970   -0.0283 S.3       1 <0>        -0.0068
      9 C8          0.0469   -4.7525    1.2631 C.2       1 <0>         0.2061
     10 N1          0.6719   -3.7678    1.8715 N.2       1 <0>        -0.4989
     11 C9          0.0749   -6.1979    1.5694 C.ar      1 <0>        -0.0429
     12 C10        -0.6631   -7.0923    0.7914 C.ar      1 <0>        -0.0629
     13 C11        -0.6349   -8.4392    1.0795 C.ar      1 <0>        -0.1216
     14 C12         0.1269   -8.9082    2.1440 C.ar      1 <0>         0.1723
     15 C13         0.8625   -8.0201    2.9208 C.ar      1 <0>        -0.1482
     16 C14         0.8439   -6.6728    2.6338 C.ar      1 <0>        -0.0429
     17 N2          0.1530  -10.2744    2.4338 N.am      1 <0>        -0.6745
     18 C15         0.0648  -11.1766    1.4364 C.2       1 <0>         0.5184
     19 O1          0.0593  -10.8056    0.2818 O.2       1 <0>        -0.5078
     20 C16        -0.0269  -12.6465    1.7560 C.3       1 <0>        -0.1041
     21 C17         1.2168  -13.0770    2.5371 C.3       1 <0>        -0.1267
     22 C18         1.1040  -14.5634    2.8901 C.3       1 <0>         0.1179
     23 N3          0.8726  -15.3263    1.6560 N.pl3     1 <0>        -0.9958
     24 C19        -0.2440  -14.9372    0.7839 C.3       1 <0>         0.1164
     25 C20        -0.1162  -13.4466    0.4545 C.3       1 <0>        -0.1136
     26 S2          1.8519  -16.6001    1.2552 S.o2      1 <0>         2.7237
     27 O2          1.7612  -16.7544   -0.1544 O.2       1 <0>        -0.9427
     28 O3          3.0894  -16.3859    1.9201 O.2       1 <0>        -0.9446
     29 C21         1.1418  -18.0472    1.9669 C.2       1 <0>        -0.7671
     30 C22         0.2405  -18.9071    1.4326 C.2       1 <0>        -0.0053
     31 C23        -0.1802  -19.9891    2.1830 C.2       1 <0>        -0.1928
     32 C24         0.3211  -20.1582    3.4309 C.2       1 <0>        -0.1302
     33 S3          1.4287  -18.7656    3.5759 S.3       1 <0>         0.1626
     34 H1         -0.9761    1.9279    0.3853 H         1 <0>         0.0775
     35 H2          0.7654    2.0832    0.0518 H         1 <0>         0.0734
     36 H3         -0.3217    1.4116   -1.1874 H         1 <0>         0.0714
     37 H4          1.4218    0.7534    1.9756 H         1 <0>         0.1353
     38 H5          1.8210   -1.4481    2.8952 H         1 <0>         0.1343
     39 H6         -1.1716   -0.8703   -0.9924 H         1 <0>         0.1346
     40 H7         -1.2556   -6.7286   -0.0351 H         1 <0>         0.1324
     41 H8         -1.2055   -9.1315    0.4782 H         1 <0>         0.1438
     42 H9          1.4527   -8.3874    3.7474 H         1 <0>         0.1365
     43 H10         1.4196   -5.9841    3.2344 H         1 <0>         0.1416
     44 H11         0.2345  -10.5738    3.3528 H         1 <0>         0.4139
     45 H12        -0.9161  -12.8324    2.3583 H         1 <0>         0.1082
     46 H13         2.1046  -12.9145    1.9259 H         1 <0>         0.0810
     47 H14         1.2925  -12.4903    3.4527 H         1 <0>         0.0840
     48 H15         2.0291  -14.8988    3.3590 H         1 <0>         0.1013
     49 H16         0.2694  -14.7141    3.5748 H         1 <0>         0.0777
     50 H17        -0.2084  -15.5193   -0.1370 H         1 <0>         0.1009
     51 H18        -1.1886  -15.1184    1.2968 H         1 <0>         0.0755
     52 H19        -0.9892  -13.1231   -0.1123 H         1 <0>         0.0893
     53 H20         0.7842  -13.2807   -0.1371 H         1 <0>         0.0811
     54 H21        -0.1436  -18.7490    0.4357 H         1 <0>         0.1479
     55 H22        -0.8978  -20.6890    1.7810 H         1 <0>         0.1465
     56 H23         0.1087  -20.9360    4.1495 H         1 <0>         0.1974
@<TRIPOS>BOND
     1    1    2 1
     2    1   34 1
     3    1   35 1
     4    1   36 1
     5    2    7 ar
     6    2    3 ar
     7    3    4 ar
     8    3   37 1
     9    4    5 ar
    10    4   38 1
    11    5   10 1
    12    5    6 ar
    13    6    7 ar
    14    6    8 1
    15    7   39 1
    16    8    9 1
    17    9   10 2
    18    9   11 1
    19   11   16 ar
    20   11   12 ar
    21   12   13 ar
    22   12   40 1
    23   13   14 ar
    24   13   41 1
    25   14   15 ar
    26   14   17 1
    27   15   16 ar
    28   15   42 1
    29   16   43 1
    30   17   18 am
    31   17   44 1
    32   18   19 2
    33   18   20 1
    34   20   25 1
    35   20   21 1
    36   20   45 1
    37   21   22 1
    38   21   46 1
    39   21   47 1
    40   22   23 1
    41   22   48 1
    42   22   49 1
    43   23   24 1
    44   23   26 1
    45   24   25 1
    46   24   50 1
    47   24   51 1
    48   25   52 1
    49   25   53 1
    50   26   27 2
    51   26   28 2
    52   26   29 1
    53   29   33 1
    54   29   30 2
    55   30   31 1
    56   30   54 1
    57   31   32 2
    58   31   55 1
    59   32   33 1
    60   32   56 1
@<TRIPOS>MOLECULE
ZINC10186822
   53    57     0     0     0
SMALL
USER_CHARGES

@<TRIPOS>ATOM
      1 C1          2.6682    2.0507   -1.0348 C.ar      1 <0>        -0.1113
      2 C2          1.5693    2.2080   -0.2016 C.ar      1 <0>        -0.0925
      3 C3          1.0392    1.1022    0.4368 C.ar      1 <0>        -0.0682
      4 C4          1.6089   -0.1311    0.2354 C.ar      1 <0>        -0.1413
      5 C5          2.7291   -0.3238   -0.6074 C.ar      1 <0>         0.0792
      6 C6          3.2397    0.8344   -1.2410 C.ar      1 <0>        -0.0600
      7 N1          3.1755   -1.5913   -0.7050 N.2       1 <0>        -0.5005
      8 C7          2.6122   -2.5909   -0.0617 C.2       1 <0>         0.2098
      9 S1          1.2863   -1.7777    0.8188 S.3       1 <0>        -0.0085
     10 C8          2.9816   -4.0217   -0.0660 C.ar      1 <0>        -0.0443
     11 C9          4.0679   -4.4617   -0.8251 C.ar      1 <0>        -0.0421
     12 C10         4.4096   -5.7963   -0.8270 C.ar      1 <0>        -0.1247
     13 C11         3.6739   -6.7049   -0.0743 C.ar      1 <0>         0.1729
     14 C12         2.5914   -6.2701    0.6823 C.ar      1 <0>        -0.1455
     15 C13         2.2486   -4.9358    0.6937 C.ar      1 <0>        -0.0624
     16 N2          4.0227   -8.0575   -0.0787 N.am      1 <0>        -0.6746
     17 C14         5.3163   -8.4194   -0.1887 C.2       1 <0>         0.5183
     18 O1          6.1850   -7.5731   -0.1876 O.2       1 <0>        -0.5071
     19 C15         5.6833   -9.8757   -0.3131 C.3       1 <0>        -0.1040
     20 C16         5.1896  -10.6332    0.9216 C.3       1 <0>        -0.1265
     21 C17         5.5338  -12.1188    0.7759 C.3       1 <0>         0.1179
     22 N3          6.9758  -12.2478    0.5254 N.pl3     1 <0>        -0.9958
     23 C18         7.5708  -11.4894   -0.5835 C.3       1 <0>         0.1164
     24 C19         7.2038  -10.0108   -0.4224 C.3       1 <0>        -0.1137
     25 S2          7.9127  -13.2289    1.4751 S.o2      1 <0>         2.7238
     26 O2          9.2426  -12.7377    1.3788 O.2       1 <0>        -0.9427
     27 O3          7.2361  -13.3573    2.7180 O.2       1 <0>        -0.9446
     28 C20         7.9113  -14.8273    0.7335 C.2       1 <0>        -0.7670
     29 C21         8.7622  -15.3416   -0.1878 C.2       1 <0>        -0.0052
     30 C22         8.5671  -16.6360   -0.6317 C.2       1 <0>        -0.1928
     31 C23         7.5306  -17.3529   -0.1325 C.2       1 <0>        -0.1301
     32 S3          6.7936  -16.1924    1.0066 S.3       1 <0>         0.1624
     33 H1          3.0771    2.9159   -1.5355 H         1 <0>         0.1357
     34 H2          1.1328    3.1847   -0.0532 H         1 <0>         0.1404
     35 H3          0.1845    1.2074    1.0886 H         1 <0>         0.1352
     36 H4          4.0940    0.7509   -1.8965 H         1 <0>         0.1339
     37 H5          4.6393   -3.7565   -1.4105 H         1 <0>         0.1408
     38 H6          5.2497   -6.1372   -1.4140 H         1 <0>         0.1435
     39 H7          2.0215   -6.9785    1.2653 H         1 <0>         0.1371
     40 H8          1.4106   -4.5980    1.2854 H         1 <0>         0.1335
     41 H9          3.3340   -8.7362   -0.0026 H         1 <0>         0.4138
     42 H10         5.2166  -10.2929   -1.2055 H         1 <0>         0.1082
     43 H11         5.6747  -10.2331    1.8120 H         1 <0>         0.0810
     44 H12         4.1096  -10.5171    1.0120 H         1 <0>         0.0839
     45 H13         5.2738  -12.6459    1.6938 H         1 <0>         0.1013
     46 H14         4.9782  -12.5422   -0.0609 H         1 <0>         0.0776
     47 H15         8.6549  -11.6012   -0.5624 H         1 <0>         0.1009
     48 H16         7.1814  -11.8615   -1.5311 H         1 <0>         0.0755
     49 H17         7.5574   -9.4518   -1.2888 H         1 <0>         0.0894
     50 H18         7.6699   -9.6166    0.4805 H         1 <0>         0.0811
     51 H19         9.5802  -14.7487   -0.5696 H         1 <0>         0.1479
     52 H20         9.2303  -17.0696   -1.3655 H         1 <0>         0.1465
     53 H21         7.2309  -18.3649   -0.3614 H         1 <0>         0.1973
@<TRIPOS>BOND
     1    1    6 ar
     2    1    2 ar
     3    1   33 1
     4    2    3 ar
     5    2   34 1
     6    3    4 ar
     7    3   35 1
     8    4    9 1
     9    4    5 ar
    10    5    6 ar
    11    5    7 1
    12    6   36 1
    13    7    8 2
    14    8    9 1
    15    8   10 1
    16   10   15 ar
    17   10   11 ar
    18   11   12 ar
    19   11   37 1
    20   12   13 ar
    21   12   38 1
    22   13   14 ar
    23   13   16 1
    24   14   15 ar
    25   14   39 1
    26   15   40 1
    27   16   17 am
    28   16   41 1
    29   17   18 2
    30   17   19 1
    31   19   24 1
    32   19   20 1
    33   19   42 1
    34   20   21 1
    35   20   43 1
    36   20   44 1
    37   21   22 1
    38   21   45 1
    39   21   46 1
    40   22   23 1
    41   22   25 1
    42   23   24 1
    43   23   47 1
    44   23   48 1
    45   24   49 1
    46   24   50 1
    47   25   26 2
    48   25   27 2
    49   25   28 1
    50   28   32 1
    51   28   29 2
    52   29   30 1
    53   29   51 1
    54   30   31 2
    55   30   52 1
    56   31   32 1
    57   31   53 1
@<TRIPOS>MOLECULE
ZINC15602326
   55    58     0     0     0
SMALL
USER_CHARGES
1-ethylsulfonyl-N-[4-(6-methyl-1,3-benzothiazol-2-yl)phenyl]piperidine-4-carboxamide
@<TRIPOS>ATOM
      1 C1         -6.7534   14.4997   -3.7704 C.3       1 <0>        -0.1481
      2 C2         -6.4733   13.3342   -2.8195 C.3       1 <0>        -0.6322
      3 S1         -7.6749   13.3601   -1.4608 S.o2      1 <0>         2.6065
      4 O1         -8.9744   13.0593   -1.9508 O.2       1 <0>        -0.9517
      5 O2         -7.4568   14.4966   -0.6362 O.2       1 <0>        -0.9504
      6 N1         -7.2713   12.0651   -0.5109 N.pl3     1 <0>        -1.0015
      7 C3         -6.3118   12.2156    0.5916 C.3       1 <0>         0.1193
      8 C4         -5.2026   11.1721    0.4258 C.3       1 <0>        -0.1183
      9 C5         -5.8289    9.7795    0.3233 C.3       1 <0>        -0.1037
     10 C6         -6.7388    9.7167   -0.9057 C.3       1 <0>        -0.1315
     11 C7         -7.8655   10.7437   -0.7549 C.3       1 <0>         0.1216
     12 C8         -4.7388    8.7470    0.1942 C.2       1 <0>         0.5179
     13 O3         -3.5758    9.0909    0.1851 O.2       1 <0>        -0.5089
     14 N2         -5.0563    7.4414    0.0889 N.am      1 <0>        -0.6744
     15 C9         -4.0471    6.4757    0.0802 C.ar      1 <0>         0.1711
     16 C10        -2.8900    6.6747    0.8251 C.ar      1 <0>        -0.1241
     17 C11        -1.8928    5.7242    0.8186 C.ar      1 <0>        -0.0430
     18 C12        -2.0450    4.5599    0.0628 C.ar      1 <0>        -0.0419
     19 C13        -3.2058    4.3657   -0.6887 C.ar      1 <0>        -0.0633
     20 C14        -4.2016    5.3177   -0.6738 C.ar      1 <0>        -0.1451
     21 C15        -0.9774    3.5383    0.0536 C.2       1 <0>         0.2054
     22 N3          0.1739    3.5420    0.6900 N.2       1 <0>        -0.4976
     23 C16         1.0625    2.5347    0.5852 C.ar      1 <0>         0.0722
     24 C17         2.3286    2.4173    1.2072 C.ar      1 <0>        -0.0543
     25 C18         3.1084    1.3231    0.9991 C.ar      1 <0>        -0.1119
     26 C19         2.7002    0.2830    0.1755 C.ar      1 <0>        -0.0572
     27 C20         1.4701    0.3576   -0.4510 C.ar      1 <0>        -0.0716
     28 C21         0.6748    1.4587   -0.2479 C.ar      1 <0>        -0.1343
     29 S2         -0.9249    1.9792   -0.8188 S.3       1 <0>        -0.0091
     30 C22         3.5894   -0.9156   -0.0339 C.3       1 <0>        -0.1153
     31 H1         -7.7612   14.4046   -4.1747 H         1 <0>         0.0725
     32 H2         -6.6673   15.4407   -3.2270 H         1 <0>         0.0729
     33 H3         -6.0314   14.4841   -4.5868 H         1 <0>         0.0828
     34 H4         -5.4656   13.4293   -2.4152 H         1 <0>         0.1311
     35 H5         -6.5595   12.3932   -3.3628 H         1 <0>         0.1297
     36 H6         -6.8208   12.0598    1.5428 H         1 <0>         0.0795
     37 H7         -5.8794   13.2158    0.5657 H         1 <0>         0.0979
     38 H8         -4.5366   11.2090    1.2879 H         1 <0>         0.0886
     39 H9         -4.6359   11.3838   -0.4810 H         1 <0>         0.0770
     40 H10        -6.4154    9.5783    1.2197 H         1 <0>         0.1090
     41 H11        -6.1581    9.9423   -1.8001 H         1 <0>         0.0767
     42 H12        -7.1662    8.7177   -0.9912 H         1 <0>         0.0830
     43 H13        -8.5011   10.4679    0.0865 H         1 <0>         0.0812
     44 H14        -8.4581   10.7727   -1.6692 H         1 <0>         0.0978
     45 H15        -5.9857    7.1724    0.0192 H         1 <0>         0.4139
     46 H16        -2.7731    7.5753    1.4097 H         1 <0>         0.1432
     47 H17        -0.9945    5.8792    1.3977 H         1 <0>         0.1408
     48 H18        -3.3246    3.4684   -1.2778 H         1 <0>         0.1334
     49 H19        -5.1014    5.1662   -1.2516 H         1 <0>         0.1367
     50 H20         2.6798    3.2069    1.8549 H         1 <0>         0.1346
     51 H21         4.0700    1.2618    1.4867 H         1 <0>         0.1356
     52 H22         1.1374   -0.4432   -1.0947 H         1 <0>         0.1347
     53 H23         3.3660   -1.6700    0.7204 H         1 <0>         0.0778
     54 H24         3.4123   -1.3304   -1.0262 H         1 <0>         0.0715
     55 H25         4.6331   -0.6133    0.0526 H         1 <0>         0.0736
@<TRIPOS>BOND
     1    1    2 1
     2    1   31 1
     3    1   32 1
     4    1   33 1
     5    2    3 1
     6    2   34 1
     7    2   35 1
     8    3    4 2
     9    3    5 2
    10    3    6 1
    11    6   11 1
    12    6    7 1
    13    7    8 1
    14    7   36 1
    15    7   37 1
    16    8    9 1
    17    8   38 1
    18    8   39 1
    19    9   10 1
    20    9   12 1
    21    9   40 1
    22   10   11 1
    23   10   41 1
    24   10   42 1
    25   11   43 1
    26   11   44 1
    27   12   13 2
    28   12   14 am
    29   14   15 1
    30   14   45 1
    31   15   20 ar
    32   15   16 ar
    33   16   17 ar
    34   16   46 1
    35   17   18 ar
    36   17   47 1
    37   18   19 ar
    38   18   21 1
    39   19   20 ar
    40   19   48 1
    41   20   49 1
    42   21   29 1
    43   21   22 2
    44   22   23 1
    45   23   28 ar
    46   23   24 ar
    47   24   25 ar
    48   24   50 1
    49   25   26 ar
    50   25   51 1
    51   26   27 ar
    52   26   30 1
    53   27   28 ar
    54   27   52 1
    55   28   29 1
    56   30   53 1
    57   30   54 1
    58   30   55 1
@<TRIPOS>MOLECULE
ZINC09585591
   55    59     0     0     0
SMALL
USER_CHARGES
N-[4-(6-methylbenzothiazol-2-yl)phenyl]-1-(2-thienylcarbonyl)piperidine-4-carboxamide
@<TRIPOS>ATOM
      1 C1         13.0382    2.1894   -1.5306 C.3       1 <0>        -0.1152
      2 C2         11.5355    2.2477   -1.4322 C.ar      1 <0>        -0.0577
      3 C3         10.8574    3.4172   -1.7470 C.ar      1 <0>        -0.1120
      4 C4          9.5026    3.5005   -1.6685 C.ar      1 <0>        -0.0548
      5 C5          8.7300    2.3873   -1.2593 C.ar      1 <0>         0.0722
      6 C6          9.4498    1.2102   -0.9453 C.ar      1 <0>        -0.1351
      7 C7         10.8187    1.1369   -1.0280 C.ar      1 <0>        -0.0712
      8 S1          8.1535    0.0832   -0.4920 S.3       1 <0>        -0.0066
      9 C8          6.7847    1.2057   -0.7389 C.2       1 <0>         0.2058
     10 N1          7.3909    2.3036   -1.1356 N.2       1 <0>        -0.4989
     11 C9          5.3395    0.9608   -0.5513 C.ar      1 <0>        -0.0434
     12 C10         4.4189    1.9807   -0.8004 C.ar      1 <0>        -0.0424
     13 C11         3.0723    1.7493   -0.6242 C.ar      1 <0>        -0.1498
     14 C12         2.6295    0.5016   -0.1991 C.ar      1 <0>         0.1728
     15 C13         3.5441   -0.5144    0.0552 C.ar      1 <0>        -0.1238
     16 C14         4.8917   -0.2910   -0.1241 C.ar      1 <0>        -0.0621
     17 N2          1.2635    0.2701   -0.0218 N.am      1 <0>        -0.6730
     18 C15         0.7565   -0.9616   -0.2274 C.2       1 <0>         0.5190
     19 O1          1.4639   -1.8428   -0.6679 O.2       1 <0>        -0.5061
     20 C16        -0.6894   -1.2439    0.0900 C.3       1 <0>        -0.1055
     21 C17        -0.9462   -0.9800    1.5754 C.3       1 <0>        -0.1258
     22 C18        -2.4243   -1.2347    1.8871 C.3       1 <0>         0.1054
     23 N3         -2.7736   -2.5920    1.4462 N.am      1 <0>        -0.6126
     24 C19        -2.4848   -2.9803    0.0589 C.3       1 <0>         0.1144
     25 C20        -1.0060   -2.7061   -0.2323 C.3       1 <0>        -0.1163
     26 C21        -3.3483   -3.4641    2.2979 C.2       1 <0>         0.6080
     27 O2         -3.4617   -4.6349    1.9855 O.2       1 <0>        -0.5197
     28 C22        -3.8368   -3.0025    3.6006 C.2       1 <0>        -0.2456
     29 C23        -4.3086   -3.7468    4.6705 C.2       1 <0>        -0.0643
     30 C24        -4.7053   -3.0542    5.7873 C.2       1 <0>        -0.1780
     31 C25        -4.6284   -1.6975    5.7886 C.2       1 <0>        -0.1985
     32 S2         -3.9865   -1.3359    4.2193 S.3       1 <0>         0.1506
     33 H1         13.4764    2.4825   -0.5765 H         1 <0>         0.0776
     34 H2         13.3471    1.1731   -1.7753 H         1 <0>         0.0714
     35 H3         13.3780    2.8703   -2.3110 H         1 <0>         0.0734
     36 H4         11.4204    4.2832   -2.0628 H         1 <0>         0.1353
     37 H5          9.0098    4.4275   -1.9218 H         1 <0>         0.1343
     38 H6         11.3309    0.2191   -0.7794 H         1 <0>         0.1347
     39 H7          4.7621    2.9500   -1.1306 H         1 <0>         0.1416
     40 H8          2.3597    2.5378   -0.8167 H         1 <0>         0.1364
     41 H9          3.1974   -1.4809    0.3898 H         1 <0>         0.1454
     42 H10         5.6012   -1.0819    0.0694 H         1 <0>         0.1324
     43 H11         0.6791    0.9967    0.2454 H         1 <0>         0.4141
     44 H12        -1.3265   -0.5937   -0.5096 H         1 <0>         0.1079
     45 H13        -0.3277   -1.6472    2.1757 H         1 <0>         0.0804
     46 H14        -0.6983    0.0554    1.8092 H         1 <0>         0.0871
     47 H15        -3.0400   -0.5083    1.3565 H         1 <0>         0.0842
     48 H16        -2.5923   -1.1445    2.9603 H         1 <0>         0.0903
     49 H17        -3.1055   -2.3964   -0.6208 H         1 <0>         0.0756
     50 H18        -2.6927   -4.0420   -0.0742 H         1 <0>         0.1027
     51 H19        -0.8007   -2.8993   -1.2852 H         1 <0>         0.0899
     52 H20        -0.3869   -3.3570    0.3850 H         1 <0>         0.0796
     53 H21        -4.3593   -4.8248    4.6284 H         1 <0>         0.1480
     54 H22        -5.0786   -3.5811    6.6530 H         1 <0>         0.1395
     55 H23        -4.9010   -1.0109    6.5764 H         1 <0>         0.1882
@<TRIPOS>BOND
     1    1    2 1
     2    1   33 1
     3    1   34 1
     4    1   35 1
     5    2    7 ar
     6    2    3 ar
     7    3    4 ar
     8    3   36 1
     9    4    5 ar
    10    4   37 1
    11    5   10 1
    12    5    6 ar
    13    6    7 ar
    14    6    8 1
    15    7   38 1
    16    8    9 1
    17    9   10 2
    18    9   11 1
    19   11   16 ar
    20   11   12 ar
    21   12   13 ar
    22   12   39 1
    23   13   14 ar
    24   13   40 1
    25   14   15 ar
    26   14   17 1
    27   15   16 ar
    28   15   41 1
    29   16   42 1
    30   17   18 am
    31   17   43 1
    32   18   19 2
    33   18   20 1
    34   20   25 1
    35   20   21 1
    36   20   44 1
    37   21   22 1
    38   21   45 1
    39   21   46 1
    40   22   23 1
    41   22   47 1
    42   22   48 1
    43   23   24 1
    44   23   26 am
    45   24   25 1
    46   24   49 1
    47   24   50 1
    48   25   51 1
    49   25   52 1
    50   26   27 2
    51   26   28 1
    52   28   32 1
    53   28   29 2
    54   29   30 1
    55   29   53 1
    56   30   31 2
    57   30   54 1
    58   31   32 1
    59   31   55 1
@<TRIPOS>MOLECULE
ZINC01028142
   49    52     0     0     0
SMALL
USER_CHARGES
4-(3-phenyl-1,2,4-thiadiazol-5-yl)-N-[4-(trifluoromethoxy)phenyl]piperazine-1-carboxamide
@<TRIPOS>ATOM
      1 C1          7.8511   -6.4104   -4.0153 C.ar      1 <0>        -0.0963
      2 C2          8.6526   -5.3351   -4.3537 C.ar      1 <0>        -0.1263
      3 C3          8.3583   -4.0743   -3.8757 C.ar      1 <0>        -0.0753
      4 C4          7.2512   -3.8858   -3.0505 C.ar      1 <0>        -0.0372
      5 C5          6.4505   -4.9737   -2.7082 C.ar      1 <0>        -0.0681
      6 C6          6.7510   -6.2291   -3.1966 C.ar      1 <0>        -0.1281
      7 C7          6.9297   -2.5328   -2.5336 C.2       1 <0>         0.3264
      8 N1          5.8849   -2.3512   -1.7478 N.2       1 <0>        -0.5398
      9 C8          5.6258   -1.1293   -1.3088 C.2       1 <0>         0.2948
     10 S1          6.9144   -0.2165   -2.0267 S.3       1 <0>         0.1595
     11 N2          7.6885   -1.5017   -2.8507 N.2       1 <0>        -0.4441
     12 N3          4.6005   -0.6957   -0.4883 N.pl3     1 <0>        -0.4204
     13 C9          4.6958    0.7501   -0.2460 C.3       1 <0>         0.0267
     14 C10         3.6580    1.1580    0.8051 C.3       1 <0>         0.1370
     15 N4          2.3363    0.6872    0.3639 N.am      1 <0>        -0.6308
     16 C11         2.1939   -0.7247   -0.0225 C.3       1 <0>         0.1135
     17 C12         3.2907   -1.0572   -1.0466 C.3       1 <0>         0.0461
     18 C13         1.2823    1.5260    0.3202 C.2       1 <0>         0.7131
     19 O1          1.4441    2.7161    0.5101 O.2       1 <0>        -0.5612
     20 N5          0.0489    1.0458    0.0661 N.am      1 <0>        -0.6786
     21 C14        -1.0697    1.8787    0.2048 C.ar      1 <0>         0.1474
     22 C15        -0.9192    3.2579    0.1540 C.ar      1 <0>        -0.1036
     23 C16        -2.0226    4.0779    0.2855 C.ar      1 <0>        -0.1659
     24 C17        -3.2795    3.5241    0.4797 C.ar      1 <0>         0.0818
     25 C18        -3.4298    2.1462    0.5359 C.ar      1 <0>        -0.0989
     26 C19        -2.3280    1.3250    0.3988 C.ar      1 <0>        -0.1173
     27 O2         -4.3647    4.3321    0.6148 O.3       1 <0>        -0.3108
     28 C20        -4.1368    5.7412    0.5467 C.3       1 <0>         0.6038
     29 F1         -3.5799    6.0641   -0.6954 F         1 <0>        -0.1649
     30 F2         -5.3511    6.4181    0.7035 F         1 <0>        -0.1310
     31 F3         -3.2563    6.1209    1.5654 F         1 <0>        -0.1643
     32 H1          8.0849   -7.3952   -4.3920 H         1 <0>         0.1277
     33 H2          9.5101   -5.4823   -4.9936 H         1 <0>         0.1301
     34 H3          8.9846   -3.2353   -4.1408 H         1 <0>         0.1331
     35 H4          5.5939   -4.8340   -2.0655 H         1 <0>         0.1363
     36 H5          6.1288   -7.0723   -2.9353 H         1 <0>         0.1299
     37 H6          4.5040    1.2879   -1.1745 H         1 <0>         0.0727
     38 H7          5.6949    0.9931    0.1158 H         1 <0>         0.1092
     39 H8          3.6454    2.2434    0.9052 H         1 <0>         0.1161
     40 H9          3.9067    0.7047    1.7646 H         1 <0>         0.0879
     41 H10         2.3061   -1.3583    0.8573 H         1 <0>         0.0934
     42 H11         1.2128   -0.8848   -0.4698 H         1 <0>         0.0924
     43 H12         3.1184   -0.4942   -1.9639 H         1 <0>         0.0646
     44 H13         3.2709   -2.1247   -1.2659 H         1 <0>         0.1141
     45 H14        -0.0642    0.1248   -0.2166 H         1 <0>         0.4085
     46 H15         0.0599    3.6893    0.0072 H         1 <0>         0.1763
     47 H16        -1.9063    5.1507    0.2411 H         1 <0>         0.1365
     48 H17        -4.4086    1.7156    0.6871 H         1 <0>         0.1439
     49 H18        -2.4453    0.2522    0.4422 H         1 <0>         0.1402
@<TRIPOS>BOND
     1    1    6 ar
     2    1    2 ar
     3    1   32 1
     4    2    3 ar
     5    2   33 1
     6    3    4 ar
     7    3   34 1
     8    4    5 ar
     9    4    7 1
    10    5    6 ar
    11    5   35 1
    12    6   36 1
    13    7   11 2
    14    7    8 1
    15    8    9 2
    16    9   10 1
    17    9   12 1
    18   10   11 1
    19   12   17 1
    20   12   13 1
    21   13   14 1
    22   13   37 1
    23   13   38 1
    24   14   15 1
    25   14   39 1
    26   14   40 1
    27   15   16 1
    28   15   18 am
    29   16   17 1
    30   16   41 1
    31   16   42 1
    32   17   43 1
    33   17   44 1
    34   18   19 2
    35   18   20 am
    36   20   21 1
    37   20   45 1
    38   21   26 ar
    39   21   22 ar
    40   22   23 ar
    41   22   46 1
    42   23   24 ar
    43   23   47 1
    44   24   25 ar
    45   24   27 1
    46   25   26 ar
    47   25   48 1
    48   26   49 1
    49   27   28 1
    50   28   29 1
    51   28   30 1
    52   28   31 1
@<TRIPOS>MOLECULE
ZINC13813297
   40    42     0     0     0
SMALL
USER_CHARGES

@<TRIPOS>ATOM
      1 C1          0.1070    1.2655   -0.1922 C.3       1 <0>         0.0964
      2 N1         -0.1191   -0.1668    0.0166 N.am      1 <0>        -0.5974
      3 C2          1.0113   -1.0983   -0.0088 C.3       1 <0>         0.0695
      4 C3         -1.3672   -0.6276    0.2322 C.2       1 <0>         0.7241
      5 O1         -2.3157    0.1269    0.1504 O.2       1 <0>        -0.5212
      6 N2         -1.5629   -1.9254    0.5384 N.am      1 <0>        -0.3860
      7 C4         -2.7468   -2.5653    0.6926 C.2       1 <0>         0.3167
      8 N3         -2.4786   -3.8098    0.9844 N.2       1 <0>        -0.3193
      9 N4         -1.2098   -4.0030    1.0257 N.2       1 <0>        -0.0089
     10 N5         -0.5821   -2.9083    0.7605 N.2       1 <0>        -0.0667
     11 C5         -4.1177   -1.9550    0.5539 C.3       1 <0>        -0.0121
     12 C6         -4.5793   -2.0763   -0.8755 C.ar      1 <0>        -0.0964
     13 C7         -4.2874   -1.0726   -1.7814 C.ar      1 <0>        -0.1006
     14 C8         -4.7077   -1.1786   -3.0918 C.ar      1 <0>        -0.1142
     15 C9         -5.4273   -2.2992   -3.5014 C.ar      1 <0>        -0.0348
     16 C10        -5.7186   -3.3072   -2.5846 C.ar      1 <0>        -0.1126
     17 C11        -5.2885   -3.1936   -1.2781 C.ar      1 <0>        -0.0936
     18 C12        -5.8823   -2.4184   -4.9088 C.ar      1 <0>        -0.0502
     19 C13        -5.5865   -1.4129   -5.8269 C.ar      1 <0>        -0.1098
     20 C14        -6.0117   -1.5291   -7.1348 C.ar      1 <0>        -0.1178
     21 C15        -6.7307   -2.6411   -7.5347 C.ar      1 <0>        -0.1168
     22 C16        -7.0275   -3.6421   -6.6274 C.ar      1 <0>        -0.1174
     23 C17        -6.6019   -3.5391   -5.3185 C.ar      1 <0>        -0.1089
     24 H1          1.1704    1.4463   -0.3492 H         1 <0>         0.0901
     25 H2         -0.4511    1.5976   -1.0676 H         1 <0>         0.0728
     26 H3         -0.2299    1.8182    0.6848 H         1 <0>         0.0714
     27 H4          1.3529   -1.2830    1.0097 H         1 <0>         0.0716
     28 H5          0.6975   -2.0382   -0.4629 H         1 <0>         0.0873
     29 H6          1.8247   -0.6667   -0.5921 H         1 <0>         0.0840
     30 H7         -4.8161   -2.4783    1.2069 H         1 <0>         0.1221
     31 H8         -4.0769   -0.9025    0.8345 H         1 <0>         0.1262
     32 H9         -3.7299   -0.2043   -1.4627 H         1 <0>         0.1375
     33 H10        -4.4796   -0.3942   -3.7982 H         1 <0>         0.1269
     34 H11        -6.2764   -4.1778   -2.8968 H         1 <0>         0.1296
     35 H12        -5.5096   -3.9765   -0.5678 H         1 <0>         0.1327
     36 H13        -5.0258   -0.5439   -5.5155 H         1 <0>         0.1248
     37 H14        -5.7829   -0.7503   -7.8472 H         1 <0>         0.1251
     38 H15        -7.0618   -2.7279   -8.5590 H         1 <0>         0.1239
     39 H16        -7.5895   -4.5080   -6.9449 H         1 <0>         0.1256
     40 H17        -6.8304   -4.3233   -4.6120 H         1 <0>         0.1262
@<TRIPOS>BOND
     1    1    2 1
     2    1   24 1
     3    1   25 1
     4    1   26 1
     5    2    3 1
     6    2    4 am
     7    3   27 1
     8    3   28 1
     9    3   29 1
    10    4    5 2
    11    4    6 am
    12    6   10 1
    13    6    7 1
    14    7    8 2
    15    7   11 1
    16    8    9 1
    17    9   10 2
    18   11   12 1
    19   11   30 1
    20   11   31 1
    21   12   17 ar
    22   12   13 ar
    23   13   14 ar
    24   13   32 1
    25   14   15 ar
    26   14   33 1
    27   15   16 ar
    28   15   18 1
    29   16   17 ar
    30   16   34 1
    31   17   35 1
    32   18   23 ar
    33   18   19 ar
    34   19   20 ar
    35   19   36 1
    36   20   21 ar
    37   20   37 1
    38   21   22 ar
    39   21   38 1
    40   22   23 ar
    41   22   39 1
    42   23   40 1
@<TRIPOS>MOLECULE
ZINC27647183
   48    51     0     0     0
SMALL
USER_CHARGES
N-phenyl-4-(2-quinolylmethyl)piperazine-1-carboxamide
@<TRIPOS>ATOM
      1 C1          1.0470    6.1920    0.2441 C.ar      1 <0>        -0.1403
      2 C2          2.2387    5.5210    0.0396 C.ar      1 <0>        -0.0992
      3 C3          2.2492    4.1434   -0.0585 C.ar      1 <0>        -0.1519
      4 C4          1.0614    3.4321    0.0485 C.ar      1 <0>         0.1712
      5 C5         -0.1344    4.1093    0.2481 C.ar      1 <0>        -0.1245
      6 C6         -0.1375    5.4866    0.3511 C.ar      1 <0>        -0.0988
      7 N1          1.0686    2.0361   -0.0504 N.am      1 <0>        -0.7001
      8 C7          0.0170    1.3938   -0.5963 C.2       1 <0>         0.7097
      9 O1         -0.8741    2.0282   -1.1272 O.2       1 <0>        -0.5725
     10 N2         -0.0495    0.0485   -0.5489 N.am      1 <0>        -0.6271
     11 C8         -1.2465   -0.6652   -1.0191 C.3       1 <0>         0.1329
     12 C9         -0.8009   -1.7554   -2.0065 C.3       1 <0>         0.0371
     13 N3          0.2153   -2.6020   -1.3672 N.3       1 <0>        -0.5240
     14 C10         1.4226   -1.8314   -1.0412 C.3       1 <0>         0.0404
     15 C11         1.0705   -0.7445   -0.0199 C.3       1 <0>         0.1159
     16 C12         0.5416   -3.7602   -2.2100 C.3       1 <0>         0.1023
     17 C13        -0.7313   -4.3814   -2.7247 C.ar      1 <0>         0.1597
     18 C14        -1.2083   -4.0093   -3.9798 C.ar      1 <0>        -0.1714
     19 C15        -2.3574   -4.5659   -4.4647 C.ar      1 <0>        -0.0546
     20 C16        -3.0333   -5.5018   -3.6592 C.ar      1 <0>        -0.1033
     21 C17        -4.2236   -6.1111   -4.0881 C.ar      1 <0>        -0.0975
     22 C18        -4.8477   -7.0114   -3.2798 C.ar      1 <0>        -0.1140
     23 C19        -4.3209   -7.3369   -2.0313 C.ar      1 <0>        -0.1000
     24 C20        -3.1696   -6.7656   -1.5844 C.ar      1 <0>        -0.0911
     25 C21        -2.4958   -5.8312   -2.3904 C.ar      1 <0>         0.1284
     26 N4         -1.3632   -5.2536   -1.9775 N.ar      1 <0>        -0.4511
     27 H1          1.0414    7.2693    0.3201 H         1 <0>         0.1225
     28 H2          3.1623    6.0747   -0.0431 H         1 <0>         0.1253
     29 H3          3.1802    3.6199   -0.2186 H         1 <0>         0.1231
     30 H4         -1.0605    3.5592    0.3270 H         1 <0>         0.1329
     31 H5         -1.0666    6.0135    0.5104 H         1 <0>         0.1245
     32 H6          1.9325    1.4631    0.3174 H         1 <0>         0.4250
     33 H7         -1.7622   -1.1211   -0.1611 H         1 <0>         0.0765
     34 H8         -1.9230    0.0434   -1.5193 H         1 <0>         0.0999
     35 H9         -1.6680   -2.3703   -2.2896 H         1 <0>         0.0888
     36 H10        -0.3761   -1.2846   -2.9054 H         1 <0>         0.0426
     37 H11         2.1828   -2.5033   -0.6161 H         1 <0>         0.0952
     38 H12         1.8169   -1.3634   -1.9553 H         1 <0>         0.0431
     39 H13         1.9384   -0.0890    0.1447 H         1 <0>         0.0807
     40 H14         0.7744   -1.2070    0.9332 H         1 <0>         0.0846
     41 H15         1.1595   -3.4332   -3.0592 H         1 <0>         0.0556
     42 H16         1.0971   -4.5010   -1.6161 H         1 <0>         0.1008
     43 H17        -0.6677   -3.2845   -4.5704 H         1 <0>         0.1344
     44 H18        -2.7394   -4.2921   -5.4371 H         1 <0>         0.1406
     45 H19        -4.6413   -5.8672   -5.0537 H         1 <0>         0.1306
     46 H20        -5.7633   -7.4793   -3.6102 H         1 <0>         0.1290
     47 H21        -4.8349   -8.0538   -1.4083 H         1 <0>         0.1314
     48 H22        -2.7751   -7.0288   -0.6141 H         1 <0>         0.1367
@<TRIPOS>BOND
     1    1    6 ar
     2    1    2 ar
     3    1   27 1
     4    2    3 ar
     5    2   28 1
     6    3    4 ar
     7    3   29 1
     8    4    5 ar
     9    4    7 1
    10    5    6 ar
    11    5   30 1
    12    6   31 1
    13    7    8 am
    14    7   32 1
    15    8    9 2
    16    8   10 am
    17   10   15 1
    18   10   11 1
    19   11   12 1
    20   11   33 1
    21   11   34 1
    22   12   13 1
    23   12   35 1
    24   12   36 1
    25   13   14 1
    26   13   16 1
    27   14   15 1
    28   14   37 1
    29   14   38 1
    30   15   39 1
    31   15   40 1
    32   16   17 1
    33   16   41 1
    34   16   42 1
    35   17   26 ar
    36   17   18 ar
    37   18   19 ar
    38   18   43 1
    39   19   20 ar
    40   19   44 1
    41   20   25 ar
    42   20   21 ar
    43   21   22 ar
    44   21   45 1
    45   22   23 ar
    46   22   46 1
    47   23   24 ar
    48   23   47 1
    49   24   25 ar
    50   24   48 1
    51   25   26 ar
@<TRIPOS>MOLECULE
ZINC27647183
   49    52     0     0     0
SMALL
USER_CHARGES
N-phenyl-4-(2-quinolylmethyl)piperazine-1-carboxamide
@<TRIPOS>ATOM
      1 C1          1.0470    6.1920    0.2441 C.ar      1 <0>        -0.1282
      2 C2          2.2387    5.5210    0.0396 C.ar      1 <0>        -0.0974
      3 C3          2.2492    4.1434   -0.0585 C.ar      1 <0>        -0.1444
      4 C4          1.0614    3.4321    0.0485 C.ar      1 <0>         0.1531
      5 C5         -0.1344    4.1093    0.2481 C.ar      1 <0>        -0.1215
      6 C6         -0.1375    5.4866    0.3511 C.ar      1 <0>        -0.0975
      7 N1          1.0686    2.0361   -0.0504 N.am      1 <0>        -0.6907
      8 C7          0.0170    1.3938   -0.5963 C.2       1 <0>         0.7125
      9 O1         -0.8741    2.0282   -1.1272 O.2       1 <0>        -0.5500
     10 N2         -0.0495    0.0485   -0.5489 N.am      1 <0>        -0.6434
     11 C8         -1.2465   -0.6652   -1.0191 C.3       1 <0>         0.1069
     12 C9         -0.8009   -1.7554   -2.0065 C.3       1 <0>        -0.0222
     13 N3          0.2153   -2.6020   -1.3672 N.4       1 <0>        -0.3957
     14 C10         1.4226   -1.8314   -1.0412 C.3       1 <0>        -0.0166
     15 C11         1.0705   -0.7445   -0.0199 C.3       1 <0>         0.0858
     16 C12         0.5416   -3.7602   -2.2100 C.3       1 <0>         0.0579
     17 C13        -0.7313   -4.3814   -2.7247 C.ar      1 <0>         0.0889
     18 C14        -1.2083   -4.0093   -3.9798 C.ar      1 <0>        -0.1740
     19 C15        -2.3574   -4.5659   -4.4647 C.ar      1 <0>        -0.0360
     20 C16        -3.0333   -5.5018   -3.6592 C.ar      1 <0>        -0.0837
     21 C17        -4.2236   -6.1111   -4.0881 C.ar      1 <0>        -0.1011
     22 C18        -4.8477   -7.0114   -3.2798 C.ar      1 <0>        -0.0915
     23 C19        -4.3209   -7.3369   -2.0313 C.ar      1 <0>        -0.0866
     24 C20        -3.1696   -6.7656   -1.5844 C.ar      1 <0>        -0.0914
     25 C21        -2.4958   -5.8312   -2.3904 C.ar      1 <0>         0.1250
     26 N4         -1.3632   -5.2536   -1.9775 N.ar      1 <0>        -0.4448
     27 H1          1.0414    7.2693    0.3201 H         1 <0>         0.1279
     28 H2          3.1623    6.0747   -0.0431 H         1 <0>         0.1301
     29 H3          3.1802    3.6199   -0.2186 H         1 <0>         0.1246
     30 H4         -1.0605    3.5592    0.3270 H         1 <0>         0.1315
     31 H5         -1.0666    6.0135    0.5104 H         1 <0>         0.1287
     32 H6          1.9325    1.4631    0.3174 H         1 <0>         0.4240
     33 H7         -1.7622   -1.1211   -0.1611 H         1 <0>         0.0962
     34 H8         -1.9230    0.0434   -1.5193 H         1 <0>         0.1399
     35 H9         -1.6680   -2.3703   -2.2896 H         1 <0>         0.1404
     36 H10        -0.3761   -1.2846   -2.9054 H         1 <0>         0.1346
     37 H11         2.1828   -2.5033   -0.6161 H         1 <0>         0.1497
     38 H12         1.8169   -1.3634   -1.9553 H         1 <0>         0.1342
     39 H13         1.9384   -0.0890    0.1447 H         1 <0>         0.1217
     40 H14         0.7744   -1.2070    0.9332 H         1 <0>         0.1035
     41 H15         1.1595   -3.4332   -3.0592 H         1 <0>         0.1433
     42 H16         1.0971   -4.5010   -1.6161 H         1 <0>         0.1503
     43 H17        -0.6677   -3.2845   -4.5704 H         1 <0>         0.1435
     44 H18        -2.7394   -4.2921   -5.4371 H         1 <0>         0.1518
     45 H19        -4.6413   -5.8672   -5.0537 H         1 <0>         0.1405
     46 H20        -5.7633   -7.4793   -3.6102 H         1 <0>         0.1396
     47 H21        -4.8349   -8.0538   -1.4083 H         1 <0>         0.1412
     48 H22        -2.7751   -7.0288   -0.6141 H         1 <0>         0.1424
     49 H23        -0.2072   -2.9768   -0.4232 H         1 <0>         0.4468
@<TRIPOS>BOND
     1    1    6 ar
     2    1    2 ar
     3    1   27 1
     4    2    3 ar
     5    2   28 1
     6    3    4 ar
     7    3   29 1
     8    4    5 ar
     9    4    7 1
    10    5    6 ar
    11    5   30 1
    12    6   31 1
    13    7    8 am
    14    7   32 1
    15    8    9 2
    16    8   10 am
    17   10   15 1
    18   10   11 1
    19   11   12 1
    20   11   33 1
    21   11   34 1
    22   12   13 1
    23   12   35 1
    24   12   36 1
    25   13   14 1
    26   13   16 1
    27   13   49 1
    28   14   15 1
    29   14   37 1
    30   14   38 1
    31   15   39 1
    32   15   40 1
    33   16   17 1
    34   16   41 1
    35   16   42 1
    36   17   26 ar
    37   17   18 ar
    38   18   19 ar
    39   18   43 1
    40   19   20 ar
    41   19   44 1
    42   20   25 ar
    43   20   21 ar
    44   21   22 ar
    45   21   45 1
    46   22   23 ar
    47   22   46 1
    48   23   24 ar
    49   23   47 1
    50   24   25 ar
    51   24   48 1
    52   25   26 ar
@<TRIPOS>MOLECULE
ZINC27647183
   49    52     0     0     0
SMALL
USER_CHARGES
N-phenyl-4-(2-quinolylmethyl)piperazine-1-carboxamide
@<TRIPOS>ATOM
      1 C1          1.0470    6.1920    0.2441 C.ar      1 <0>        -0.1341
      2 C2          2.2387    5.5210    0.0396 C.ar      1 <0>        -0.0979
      3 C3          2.2492    4.1434   -0.0585 C.ar      1 <0>        -0.1486
      4 C4          1.0614    3.4321    0.0485 C.ar      1 <0>         0.1621
      5 C5         -0.1344    4.1093    0.2481 C.ar      1 <0>        -0.1234
      6 C6         -0.1375    5.4866    0.3511 C.ar      1 <0>        -0.0983
      7 N1          1.0686    2.0361   -0.0504 N.am      1 <0>        -0.6963
      8 C7          0.0170    1.3938   -0.5963 C.2       1 <0>         0.7103
      9 O1         -0.8741    2.0282   -1.1272 O.2       1 <0>        -0.5661
     10 N2         -0.0495    0.0485   -0.5489 N.am      1 <0>        -0.6325
     11 C8         -1.2465   -0.6652   -1.0191 C.3       1 <0>         0.1332
     12 C9         -0.8009   -1.7554   -2.0065 C.3       1 <0>         0.0261
     13 N3          0.2153   -2.6020   -1.3672 N.3       1 <0>        -0.5301
     14 C10         1.4226   -1.8314   -1.0412 C.3       1 <0>         0.0390
     15 C11         1.0705   -0.7445   -0.0199 C.3       1 <0>         0.1141
     16 C12         0.5416   -3.7602   -2.2100 C.3       1 <0>         0.0565
     17 C13        -0.7313   -4.3814   -2.7247 C.ar      1 <0>         0.2436
     18 C14        -1.2083   -4.0093   -3.9798 C.ar      1 <0>        -0.1730
     19 C15        -2.3574   -4.5659   -4.4647 C.ar      1 <0>         0.0468
     20 C16        -3.0333   -5.5018   -3.6592 C.ar      1 <0>        -0.0864
     21 C17        -4.2236   -6.1111   -4.0881 C.ar      1 <0>        -0.0646
     22 C18        -4.8477   -7.0114   -3.2798 C.ar      1 <0>        -0.0963
     23 C19        -4.3209   -7.3369   -2.0313 C.ar      1 <0>        -0.0329
     24 C20        -3.1696   -6.7656   -1.5844 C.ar      1 <0>        -0.1410
     25 C21        -2.4958   -5.8312   -2.3904 C.ar      1 <0>         0.1403
     26 N4         -1.3632   -5.2536   -1.9775 N.ar      1 <0>        -0.4611
     27 H1          1.0414    7.2693    0.3201 H         1 <0>         0.1255
     28 H2          3.1623    6.0747   -0.0431 H         1 <0>         0.1280
     29 H3          3.1802    3.6199   -0.2186 H         1 <0>         0.1236
     30 H4         -1.0605    3.5592    0.3270 H         1 <0>         0.1315
     31 H5         -1.0666    6.0135    0.5104 H         1 <0>         0.1265
     32 H6          1.9325    1.4631    0.3174 H         1 <0>         0.4245
     33 H7         -1.7622   -1.1211   -0.1611 H         1 <0>         0.0769
     34 H8         -1.9230    0.0434   -1.5193 H         1 <0>         0.1073
     35 H9         -1.6680   -2.3703   -2.2896 H         1 <0>         0.0812
     36 H10        -0.3761   -1.2846   -2.9054 H         1 <0>         0.0586
     37 H11         2.1828   -2.5033   -0.6161 H         1 <0>         0.1031
     38 H12         1.8169   -1.3634   -1.9553 H         1 <0>         0.0562
     39 H13         1.9384   -0.0890    0.1447 H         1 <0>         0.0897
     40 H14         0.7744   -1.2070    0.9332 H         1 <0>         0.0865
     41 H15         1.1595   -3.4332   -3.0592 H         1 <0>         0.0986
     42 H16         1.0971   -4.5010   -1.6161 H         1 <0>         0.1213
     43 H17        -0.6677   -3.2845   -4.5704 H         1 <0>         0.1808
     44 H18        -2.7394   -4.2921   -5.4371 H         1 <0>         0.1792
     45 H19        -4.6413   -5.8672   -5.0537 H         1 <0>         0.1599
     46 H20        -5.7633   -7.4793   -3.6102 H         1 <0>         0.1545
     47 H21        -4.8349   -8.0538   -1.4083 H         1 <0>         0.1566
     48 H22        -2.7751   -7.0288   -0.6141 H         1 <0>         0.1568
     49 H23        -0.9629   -5.5234   -0.9891 H         1 <0>         0.4839
@<TRIPOS>BOND
     1    1    6 ar
     2    1    2 ar
     3    1   27 1
     4    2    3 ar
     5    2   28 1
     6    3    4 ar
     7    3   29 1
     8    4    5 ar
     9    4    7 1
    10    5    6 ar
    11    5   30 1
    12    6   31 1
    13    7    8 am
    14    7   32 1
    15    8    9 2
    16    8   10 am
    17   10   15 1
    18   10   11 1
    19   11   12 1
    20   11   33 1
    21   11   34 1
    22   12   13 1
    23   12   35 1
    24   12   36 1
    25   13   14 1
    26   13   16 1
    27   14   15 1
    28   14   37 1
    29   14   38 1
    30   15   39 1
    31   15   40 1
    32   16   17 1
    33   16   41 1
    34   16   42 1
    35   17   26 ar
    36   17   18 ar
    37   18   19 ar
    38   18   43 1
    39   19   20 ar
    40   19   44 1
    41   20   25 ar
    42   20   21 ar
    43   21   22 ar
    44   21   45 1
    45   22   23 ar
    46   22   46 1
    47   23   24 ar
    48   23   47 1
    49   24   25 ar
    50   24   48 1
    51   25   26 ar
    52   26   49 1
@<TRIPOS>MOLECULE
ZINC17589614
   47    50     0     0     0
SMALL
USER_CHARGES

@<TRIPOS>ATOM
      1 C1         -0.0387    1.3626    0.0433 C.2       1 <0>        -0.1928
      2 C2          1.1639    2.0439    0.0279 C.2       1 <0>        -0.0054
      3 C3          2.3200    1.3364    0.0125 C.2       1 <0>        -0.7670
      4 S1          1.7234   -0.3462    0.0196 S.3       1 <0>         0.1624
      5 C4         -0.0264    0.0072    0.0426 C.2       1 <0>        -0.1302
      6 S2          3.9808    1.9247   -0.0094 S.o2      1 <0>         2.7234
      7 O1          4.7720    0.8865   -0.5709 O.2       1 <0>        -0.9446
      8 O2          3.9404    3.2343   -0.5596 O.2       1 <0>        -0.9427
      9 N1          4.4632    2.0880    1.5663 N.pl3     1 <0>        -0.9957
     10 C5          4.2536    3.3516    2.2862 C.3       1 <0>         0.1165
     11 C6          5.5920    3.8136    2.8712 C.3       1 <0>        -0.1134
     12 C7          6.1837    2.6924    3.7285 C.3       1 <0>        -0.1038
     13 C8          6.4372    1.4607    2.8563 C.3       1 <0>        -0.1252
     14 C9          5.1034    0.9702    2.2729 C.3       1 <0>         0.1178
     15 C10         7.4840    3.1557    4.3332 C.2       1 <0>         0.5184
     16 O3          7.8967    4.2723    4.1014 O.2       1 <0>        -0.5089
     17 N2          8.1882    2.3291    5.1315 N.am      1 <0>        -0.6742
     18 C11         9.4397    2.7220    5.6141 C.ar      1 <0>         0.1651
     19 C12         9.6712    4.0540    5.9381 C.ar      1 <0>        -0.1224
     20 C13        10.9038    4.4445    6.4146 C.ar      1 <0>        -0.0483
     21 C14        11.9207    3.5009    6.5719 C.ar      1 <0>        -0.0353
     22 C15        11.6850    2.1640    6.2456 C.ar      1 <0>        -0.0698
     23 C16        10.4485    1.7790    5.7746 C.ar      1 <0>        -0.1429
     24 C17        13.2441    3.9164    7.0822 C.2       1 <0>         0.1605
     25 N3         13.6646    5.1189    7.4498 N.2       1 <0>        -0.5013
     26 C18        14.8885    5.3090    7.8850 C.2       1 <0>         0.0298
     27 C19        15.7497    4.2605    7.9645 C.2       1 <0>        -0.2018
     28 S3         14.7068    2.9314    7.3777 S.3       1 <0>         0.0040
     29 H1         -0.9741    1.9022    0.0602 H         1 <0>         0.1465
     30 H2          1.1822    3.1237    0.0278 H         1 <0>         0.1478
     31 H3         -0.8591   -0.6805    0.0535 H         1 <0>         0.1973
     32 H4          3.8761    4.1067    1.5968 H         1 <0>         0.1007
     33 H5          3.5360    3.1982    3.0922 H         1 <0>         0.0753
     34 H6          6.2800    4.0534    2.0605 H         1 <0>         0.0811
     35 H7          5.4334    4.6981    3.4880 H         1 <0>         0.0893
     36 H8          5.4843    2.4361    4.5242 H         1 <0>         0.1071
     37 H9          7.1173    1.7226    2.0457 H         1 <0>         0.0806
     38 H10         6.8803    0.6706    3.4625 H         1 <0>         0.0840
     39 H11         4.4537    0.6266    3.0778 H         1 <0>         0.0777
     40 H12         5.2867    0.1535    1.5746 H         1 <0>         0.1012
     41 H13         7.8265    1.4616    5.3712 H         1 <0>         0.4135
     42 H14         8.8843    4.7835    5.8159 H         1 <0>         0.1474
     43 H15        11.0831    5.4795    6.6658 H         1 <0>         0.1400
     44 H16        12.4696    1.4317    6.3658 H         1 <0>         0.1320
     45 H17        10.2642    0.7444    5.5259 H         1 <0>         0.1358
     46 H18        15.2106    6.2970    8.1790 H         1 <0>         0.1701
     47 H19        16.7777    4.2360    8.2947 H         1 <0>         0.2003
@<TRIPOS>BOND
     1    1    5 2
     2    1    2 1
     3    1   29 1
     4    2    3 2
     5    2   30 1
     6    3    4 1
     7    3    6 1
     8    4    5 1
     9    5   31 1
    10    6    7 2
    11    6    8 2
    12    6    9 1
    13    9   14 1
    14    9   10 1
    15   10   11 1
    16   10   32 1
    17   10   33 1
    18   11   12 1
    19   11   34 1
    20   11   35 1
    21   12   13 1
    22   12   15 1
    23   12   36 1
    24   13   14 1
    25   13   37 1
    26   13   38 1
    27   14   39 1
    28   14   40 1
    29   15   16 2
    30   15   17 am
    31   17   18 1
    32   17   41 1
    33   18   23 ar
    34   18   19 ar
    35   19   20 ar
    36   19   42 1
    37   20   21 ar
    38   20   43 1
    39   21   22 ar
    40   21   24 1
    41   22   23 ar
    42   22   44 1
    43   23   45 1
    44   24   28 1
    45   24   25 2
    46   25   26 1
    47   26   27 2
    48   26   46 1
    49   27   28 1
    50   27   47 1
@<TRIPOS>MOLECULE
ZINC03119736
   34    35     0     0     0
SMALL
USER_CHARGES
(4-thiadiazol-4-ylphenyl) butylaminoformate
@<TRIPOS>ATOM
      1 C1         -3.6667   11.9008   -0.5661 C.3       1 <0>        -0.1537
      2 C2         -3.8533   10.3857   -0.4634 C.3       1 <0>        -0.1216
      3 C3         -2.4849    9.7091   -0.3608 C.3       1 <0>        -0.1333
      4 C4         -2.6715    8.1940   -0.2582 C.3       1 <0>         0.1338
      5 N1         -1.3612    7.5461   -0.1599 N.am      1 <0>        -0.7054
      6 C5         -1.2786    6.2046   -0.0593 C.2       1 <0>         0.6427
      7 O1         -2.2909    5.5325   -0.0501 O.2       1 <0>        -0.5509
      8 O2         -0.0741    5.6091    0.0310 O.3       1 <0>        -0.3049
      9 C6         -0.0540    4.2501    0.0043 C.ar      1 <0>         0.1169
     10 C7          0.2701    3.5396    1.1518 C.ar      1 <0>        -0.1141
     11 C8          0.2917    2.1606    1.1276 C.ar      1 <0>        -0.0681
     12 C9         -0.0122    1.4809   -0.0502 C.ar      1 <0>        -0.0176
     13 C10        -0.3320    2.1970   -1.2020 C.ar      1 <0>        -0.0802
     14 C11        -0.3571    3.5758   -1.1704 C.ar      1 <0>        -0.1185
     15 C12         0.0107   -0.0029   -0.0796 C.2       1 <0>         0.0646
     16 C13        -0.2826   -0.7362   -1.2018 C.2       1 <0>        -0.2549
     17 S1         -0.0837   -2.3503   -0.6055 S.3       1 <0>         0.3973
     18 N2          0.3125   -2.0248    0.8870 N.2       1 <0>        -0.2487
     19 N3          0.3106   -0.7437    0.9758 N.2       1 <0>        -0.2535
     20 H1         -3.1475   12.2638    0.3209 H         1 <0>         0.0554
     21 H2         -3.0781   12.1351   -1.4531 H         1 <0>         0.0553
     22 H3         -4.6416   12.3828   -0.6392 H         1 <0>         0.0577
     23 H4         -4.3725   10.0226   -1.3504 H         1 <0>         0.0668
     24 H5         -4.4419   10.1514    0.4236 H         1 <0>         0.0670
     25 H6         -1.9656   10.0721    0.5261 H         1 <0>         0.0730
     26 H7         -1.8963    9.9434   -1.2478 H         1 <0>         0.0729
     27 H8         -3.1907    7.8309   -1.1451 H         1 <0>         0.0738
     28 H9         -3.2601    7.9597    0.6288 H         1 <0>         0.0738
     29 H10        -0.5531    8.0826   -0.1672 H         1 <0>         0.4096
     30 H11         0.5051    4.0669    2.0645 H         1 <0>         0.1393
     31 H12         0.5443    1.6082    2.0207 H         1 <0>         0.1452
     32 H13        -0.5639    1.6730   -2.1174 H         1 <0>         0.1359
     33 H14        -0.6089    4.1314   -2.0617 H         1 <0>         0.1344
     34 H15        -0.5607   -0.3986   -2.1892 H         1 <0>         0.2098
@<TRIPOS>BOND
     1    1    2 1
     2    1   20 1
     3    1   21 1
     4    1   22 1
     5    2    3 1
     6    2   23 1
     7    2   24 1
     8    3    4 1
     9    3   25 1
    10    3   26 1
    11    4    5 1
    12    4   27 1
    13    4   28 1
    14    5    6 am
    15    5   29 1
    16    6    7 2
    17    6    8 1
    18    8    9 1
    19    9   14 ar
    20    9   10 ar
    21   10   11 ar
    22   10   30 1
    23   11   12 ar
    24   11   31 1
    25   12   13 ar
    26   12   15 1
    27   13   14 ar
    28   13   32 1
    29   14   33 1
    30   15   19 1
    31   15   16 2
    32   16   17 1
    33   16   34 1
    34   17   18 1
    35   18   19 2
@<TRIPOS>MOLECULE
ZINC00753167
   46    47     0     0     0
SMALL
USER_CHARGES
2-(4-isobutylphenyl)-N-(3-methyl-2-pyridyl)-propanamide
@<TRIPOS>ATOM
      1 C1          3.6355    3.5590   -0.0130 C.3       1 <0>        -0.1093
      2 C2          2.3185    4.2913    0.0030 C.ar      1 <0>        -0.1757
      3 C3          2.2855    5.6749    0.0107 C.ar      1 <0>        -0.0503
      4 C4          1.0502    6.3077    0.0259 C.ar      1 <0>        -0.2005
      5 C5         -0.1006    5.5440    0.0328 C.ar      1 <0>         0.1262
      6 N1         -0.0381    4.2265    0.0197 N.ar      1 <0>        -0.4740
      7 C6          1.1206    3.5864    0.0106 C.ar      1 <0>         0.3598
      8 N2          1.1395    2.1925    0.0030 N.am      1 <0>        -0.6627
      9 C7         -0.0184    1.5028    0.0103 C.2       1 <0>         0.5051
     10 O1         -1.0768    2.0948    0.0185 O.2       1 <0>        -0.4549
     11 C8          0.0021   -0.0041    0.0020 C.3       1 <0>        -0.0672
     12 H1          0.5123   -0.3556   -0.8948 H         1 <0>         0.1065
     13 C9          0.7421   -0.5109    1.2415 C.3       1 <0>        -0.1434
     14 C10        -1.4117   -0.5257    0.0127 C.ar      1 <0>        -0.0776
     15 C11        -2.2557   -0.2136    1.0621 C.ar      1 <0>        -0.0814
     16 C12        -3.5540   -0.6881    1.0695 C.ar      1 <0>        -0.1154
     17 C13        -4.0052   -1.4833    0.0327 C.ar      1 <0>        -0.0736
     18 C14        -3.1596   -1.7997   -1.0141 C.ar      1 <0>        -0.1201
     19 C15        -1.8629   -1.3209   -1.0241 C.ar      1 <0>        -0.1069
     20 C16        -5.4187   -2.0057    0.0439 C.3       1 <0>        -0.0788
     21 C17        -5.4570   -3.3580    0.7585 C.3       1 <0>        -0.0902
     22 C18        -5.0841   -3.1680    2.2301 C.3       1 <0>        -0.1514
     23 C19        -6.8660   -3.9465    0.6613 C.3       1 <0>        -0.1489
     24 H2          3.9434    3.3876   -1.0445 H         1 <0>         0.0745
     25 H3          4.3904    4.1576    0.4968 H         1 <0>         0.0755
     26 H4          3.5253    2.6020    0.4970 H         1 <0>         0.0623
     27 H5          3.2001    6.2492    0.0047 H         1 <0>         0.1377
     28 H6          0.9896    7.3860    0.0319 H         1 <0>         0.1362
     29 H7         -1.0640    6.0319    0.0443 H         1 <0>         0.1587
     30 H8          1.9860    1.7190   -0.0077 H         1 <0>         0.4151
     31 H9          0.7568   -1.6008    1.2356 H         1 <0>         0.0750
     32 H10         1.7647   -0.1336    1.2338 H         1 <0>         0.0622
     33 H11         0.2319   -0.1594    2.1383 H         1 <0>         0.0651
     34 H12        -1.9018    0.4041    1.8743 H         1 <0>         0.1167
     35 H13        -4.2145   -0.4412    1.8876 H         1 <0>         0.1204
     36 H14        -3.5120   -2.4213   -1.8239 H         1 <0>         0.1208
     37 H15        -1.2022   -1.5684   -1.8417 H         1 <0>         0.1199
     38 H16        -6.0629   -1.2996    0.5678 H         1 <0>         0.0722
     39 H17        -5.7696   -2.1263   -0.9810 H         1 <0>         0.0718
     40 H18        -4.7462   -4.0376    0.2884 H         1 <0>         0.0701
     41 H19        -5.7949   -2.4884    2.7002 H         1 <0>         0.0537
     42 H20        -5.1114   -4.1314    2.7392 H         1 <0>         0.0528
     43 H21        -4.0803   -2.7488    2.2994 H         1 <0>         0.0592
     44 H22        -7.1317   -4.0819   -0.3871 H         1 <0>         0.0545
     45 H23        -6.8933   -4.9099    1.1704 H         1 <0>         0.0555
     46 H24        -7.5768   -3.2669    1.1314 H         1 <0>         0.0551
@<TRIPOS>BOND
     1    1    2 1
     2    1   24 1
     3    1   25 1
     4    1   26 1
     5    2    7 ar
     6    2    3 ar
     7    3    4 ar
     8    3   27 1
     9    4    5 ar
    10    4   28 1
    11    5    6 ar
    12    5   29 1
    13    6    7 ar
    14    7    8 1
    15    8    9 am
    16    8   30 1
    17    9   10 2
    18    9   11 1
    19   11   12 1
    20   11   13 1
    21   11   14 1
    22   13   31 1
    23   13   32 1
    24   13   33 1
    25   14   19 ar
    26   14   15 ar
    27   15   16 ar
    28   15   34 1
    29   16   17 ar
    30   16   35 1
    31   17   18 ar
    32   17   20 1
    33   18   19 ar
    34   18   36 1
    35   19   37 1
    36   20   21 1
    37   20   38 1
    38   20   39 1
    39   21   22 1
    40   21   23 1
    41   21   40 1
    42   22   41 1
    43   22   42 1
    44   22   43 1
    45   23   44 1
    46   23   45 1
    47   23   46 1
@<TRIPOS>MOLECULE
ZINC00753168
   46    47     0     0     0
SMALL
USER_CHARGES
2-(4-isobutylphenyl)-N-(3-methyl-2-pyridyl)-propanamide
@<TRIPOS>ATOM
      1 C1         -5.5238    6.1451    7.5562 C.3       1 <0>        -0.1093
      2 C2         -5.4119    6.7607    6.1852 C.ar      1 <0>        -0.1756
      3 C3         -6.0201    7.9728    5.9088 C.ar      1 <0>        -0.0503
      4 C4         -5.8912    8.5024    4.6323 C.ar      1 <0>        -0.2005
      5 C5         -5.1656    7.8098    3.6830 C.ar      1 <0>         0.1262
      6 N1         -4.5922    6.6588    3.9770 N.ar      1 <0>        -0.4739
      7 C6         -4.6968    6.1186    5.1810 C.ar      1 <0>         0.3598
      8 N2         -4.0792    4.8971    5.4459 N.am      1 <0>        -0.6627
      9 C7         -3.3842    4.2692    4.4768 C.2       1 <0>         0.5050
     10 O1         -3.2962    4.7667    3.3743 O.2       1 <0>        -0.4548
     11 C8         -2.7166    2.9488    4.7631 C.3       1 <0>        -0.0672
     12 H1         -3.4686    2.2190    5.0630 H         1 <0>         0.1063
     13 C9         -1.6992    3.1260    5.8920 C.3       1 <0>        -0.1434
     14 C10        -2.0116    2.4630    3.5230 C.ar      1 <0>        -0.0780
     15 C11        -2.3662    1.2536    2.9553 C.ar      1 <0>        -0.1077
     16 C12        -1.7194    0.8079    1.8177 C.ar      1 <0>        -0.1179
     17 C13        -0.7181    1.5718    1.2479 C.ar      1 <0>        -0.0735
     18 C14        -0.3599    2.7788    1.8186 C.ar      1 <0>        -0.1185
     19 C15        -1.0105    3.2271    2.9529 C.ar      1 <0>        -0.0798
     20 C16        -0.0127    1.0858    0.0080 C.3       1 <0>        -0.0779
     21 C17        -0.7527    1.5927   -1.2315 C.3       1 <0>        -0.0913
     22 C18         0.0310    1.2054   -2.4872 C.3       1 <0>        -0.1483
     23 C19        -2.1465    0.9639   -1.2860 C.3       1 <0>        -0.1510
     24 H2         -4.6980    6.4907    8.1781 H         1 <0>         0.0746
     25 H3         -6.4694    6.4404    8.0109 H         1 <0>         0.0754
     26 H4         -5.4849    5.0592    7.4712 H         1 <0>         0.0624
     27 H5         -6.5819    8.4948    6.6692 H         1 <0>         0.1376
     28 H6         -6.3533    9.4465    4.3841 H         1 <0>         0.1362
     29 H7         -5.0625    8.2179    2.6884 H         1 <0>         0.1587
     30 H8         -4.1496    4.4992    6.3277 H         1 <0>         0.4151
     31 H9         -2.2091    3.4774    6.7889 H         1 <0>         0.0624
     32 H10        -1.2163    2.1710    6.0991 H         1 <0>         0.0750
     33 H11        -0.9472    3.8559    5.5921 H         1 <0>         0.0651
     34 H12        -3.1482    0.6566    3.4007 H         1 <0>         0.1198
     35 H13        -1.9962   -0.1372    1.3744 H         1 <0>         0.1211
     36 H14         0.4254    3.3735    1.3759 H         1 <0>         0.1200
     37 H15        -0.7337    4.1722    3.3963 H         1 <0>         0.1168
     38 H16         0.0021   -0.0041    0.0020 H         1 <0>         0.0718
     39 H17         1.0099    1.4631    0.0003 H         1 <0>         0.0716
     40 H18        -0.8452    2.6775   -1.1811 H         1 <0>         0.0709
     41 H19         0.1235    0.1205   -2.5376 H         1 <0>         0.0547
     42 H20        -0.4962    1.5665   -3.3703 H         1 <0>         0.0555
     43 H21         1.0239    1.6533   -2.4484 H         1 <0>         0.0544
     44 H22        -2.7048    1.2398   -0.3914 H         1 <0>         0.0596
     45 H23        -2.6737    1.3250   -2.1691 H         1 <0>         0.0528
     46 H24        -2.0540   -0.1210   -1.3364 H         1 <0>         0.0531
@<TRIPOS>BOND
     1    1    2 1
     2    1   24 1
     3    1   25 1
     4    1   26 1
     5    2    7 ar
     6    2    3 ar
     7    3    4 ar
     8    3   27 1
     9    4    5 ar
    10    4   28 1
    11    5    6 ar
    12    5   29 1
    13    6    7 ar
    14    7    8 1
    15    8    9 am
    16    8   30 1
    17    9   10 2
    18    9   11 1
    19   11   12 1
    20   11   13 1
    21   11   14 1
    22   13   31 1
    23   13   32 1
    24   13   33 1
    25   14   19 ar
    26   14   15 ar
    27   15   16 ar
    28   15   34 1
    29   16   17 ar
    30   16   35 1
    31   17   18 ar
    32   17   20 1
    33   18   19 ar
    34   18   36 1
    35   19   37 1
    36   20   21 1
    37   20   38 1
    38   20   39 1
    39   21   22 1
    40   21   23 1
    41   21   40 1
    42   22   41 1
    43   22   42 1
    44   22   43 1
    45   23   44 1
    46   23   45 1
    47   23   46 1
@<TRIPOS>MOLECULE
ZINC04475082
   32    34     0     0     0
SMALL
USER_CHARGES

@<TRIPOS>ATOM
      1 C1         -0.0160    1.3564    0.0398 C.ar      1 <0>        -0.1178
      2 C2          1.1689    2.0904    0.0326 C.ar      1 <0>        -0.1075
      3 C3          2.3787    1.4677    0.0074 C.ar      1 <0>        -0.1178
      4 C4          2.4379    0.0636   -0.0111 C.ar      1 <0>        -0.0348
      5 C5          1.2329   -0.6828   -0.0033 C.ar      1 <0>        -0.0520
      6 C6          0.0023   -0.0042    0.0223 C.ar      1 <0>        -0.1008
      7 C7          1.2920   -2.0865   -0.0213 C.ar      1 <0>        -0.0965
      8 C8          2.5021   -2.7094   -0.0460 C.ar      1 <0>        -0.1142
      9 C9          3.6866   -1.9757   -0.0532 C.ar      1 <0>        -0.0899
     10 C10         3.6681   -0.6146   -0.0367 C.ar      1 <0>        -0.0695
     11 C11         4.9603    0.1606   -0.0459 C.3       1 <0>        -0.0952
     12 H1          4.7473    1.2259   -0.1346 H         1 <0>         0.1282
     13 C12         5.8239   -0.2920   -1.2300 C.3       1 <0>        -0.1107
     14 C13         7.1929    0.3935   -1.1345 C.3       1 <0>        -0.1331
     15 C14         7.7763    0.1137    0.2332 C.2       1 <0>         0.0962
     16 C15         9.0041   -0.3456    0.3674 C.2       1 <0>        -0.1785
     17 Br1        10.0666   -0.6652   -1.1639 Br        1 <0>        -0.0243
     18 O1          6.9897    0.3527    1.3254 O.3       1 <0>        -0.3002
     19 C16         5.7183   -0.1006    1.2368 C.2       1 <0>         0.4909
     20 O2          5.2051   -0.6996    2.1522 O.2       1 <0>        -0.4155
     21 H2         -0.9629    1.8753    0.0640 H         1 <0>         0.1253
     22 H3          1.1262    3.1694    0.0468 H         1 <0>         0.1251
     23 H4          3.2886    2.0495    0.0014 H         1 <0>         0.1254
     24 H5         -0.9239   -0.5597    0.0286 H         1 <0>         0.1294
     25 H6          0.3820   -2.6682   -0.0153 H         1 <0>         0.1303
     26 H7          2.5447   -3.7884   -0.0598 H         1 <0>         0.1273
     27 H8          4.6336   -2.4945   -0.0726 H         1 <0>         0.1198
     28 H9          5.9538   -1.3737   -1.1949 H         1 <0>         0.0827
     29 H10         5.3388   -0.0105   -2.1646 H         1 <0>         0.1004
     30 H11         7.8557   -0.0035   -1.9035 H         1 <0>         0.1141
     31 H12         7.0742    1.4686   -1.2690 H         1 <0>         0.1042
     32 H13         9.4035   -0.5395    1.3519 H         1 <0>         0.1590
@<TRIPOS>BOND
     1    1    6 ar
     2    1    2 ar
     3    1   21 1
     4    2    3 ar
     5    2   22 1
     6    3    4 ar
     7    3   23 1
     8    4   10 ar
     9    4    5 ar
    10    5    6 ar
    11    5    7 ar
    12    6   24 1
    13    7    8 ar
    14    7   25 1
    15    8    9 ar
    16    8   26 1
    17    9   10 ar
    18    9   27 1
    19   10   11 1
    20   11   12 1
    21   11   19 1
    22   11   13 1
    23   13   14 1
    24   13   28 1
    25   13   29 1
    26   14   15 1
    27   14   30 1
    28   14   31 1
    29   15   16 2
    30   15   18 1
    31   16   17 1
    32   16   32 1
    33   18   19 1
    34   19   20 2
@<TRIPOS>MOLECULE
ZINC04475083
   32    34     0     0     0
SMALL
USER_CHARGES

@<TRIPOS>ATOM
      1 C1          0.0079    1.3085   -0.6433 C.ar      1 <0>        -0.1178
      2 C2          1.1928    2.0423   -0.6543 C.ar      1 <0>        -0.1075
      3 C3          2.3950    1.4351   -0.4592 C.ar      1 <0>        -0.1178
      4 C4          2.4460    0.0474   -0.2425 C.ar      1 <0>        -0.0348
      5 C5          1.2409   -0.6989   -0.2308 C.ar      1 <0>        -0.0520
      6 C6          0.0185   -0.0366   -0.4366 C.ar      1 <0>        -0.1008
      7 C7          1.2918   -2.0861   -0.0137 C.ar      1 <0>        -0.0965
      8 C8          2.4942   -2.6935    0.1820 C.ar      1 <0>        -0.1142
      9 C9          3.6787   -1.9599    0.1709 C.ar      1 <0>        -0.0899
     10 C10         3.6681   -0.6146   -0.0367 C.ar      1 <0>        -0.0695
     11 C11         4.9603    0.1606   -0.0459 C.3       1 <0>        -0.0952
     12 H1          4.7469    1.2268   -0.1220 H         1 <0>         0.1282
     13 C12         5.7371   -0.1179    1.2471 C.3       1 <0>        -0.1107
     14 C13         7.1127    0.5542    1.1524 C.3       1 <0>        -0.1331
     15 C14         7.7886    0.0889   -0.1188 C.2       1 <0>         0.0962
     16 C15         9.0202   -0.3794   -0.1015 C.2       1 <0>        -0.1784
     17 Br1         9.9714   -0.4779    1.5299 Br        1 <0>        -0.0243
     18 O1          7.0812    0.1692   -1.2858 O.3       1 <0>        -0.3002
     19 C16         5.8046   -0.2735   -1.2236 C.2       1 <0>         0.4909
     20 O2          5.3535   -0.9970   -2.0798 O.2       1 <0>        -0.4155
     21 H2         -0.9332    1.8156   -0.7967 H         1 <0>         0.1253
     22 H3          1.1564    3.1088   -0.8206 H         1 <0>         0.1251
     23 H4          3.3051    2.0165   -0.4711 H         1 <0>         0.1255
     24 H5         -0.9077   -0.5921   -0.4304 H         1 <0>         0.1294
     25 H6          0.3817   -2.6674   -0.0019 H         1 <0>         0.1303
     26 H7          2.5305   -3.7599    0.3486 H         1 <0>         0.1273
     27 H8          4.6194   -2.4663    0.3292 H         1 <0>         0.1198
     28 H9          5.1894    0.2890    2.0971 H         1 <0>         0.1004
     29 H10         5.8638   -1.1932    1.3726 H         1 <0>         0.0827
     30 H11         6.9902    1.6370    1.1267 H         1 <0>         0.1042
     31 H12         7.7183    0.2718    2.0136 H         1 <0>         0.1141
     32 H13         9.4863   -0.7069   -1.0190 H         1 <0>         0.1590
@<TRIPOS>BOND
     1    1    6 ar
     2    1    2 ar
     3    1   21 1
     4    2    3 ar
     5    2   22 1
     6    3    4 ar
     7    3   23 1
     8    4   10 ar
     9    4    5 ar
    10    5    6 ar
    11    5    7 ar
    12    6   24 1
    13    7    8 ar
    14    7   25 1
    15    8    9 ar
    16    8   26 1
    17    9   10 ar
    18    9   27 1
    19   10   11 1
    20   11   12 1
    21   11   19 1
    22   11   13 1
    23   13   14 1
    24   13   28 1
    25   13   29 1
    26   14   15 1
    27   14   30 1
    28   14   31 1
    29   15   16 2
    30   15   18 1
    31   16   17 1
    32   16   32 1
    33   18   19 1
    34   19   20 2
@<TRIPOS>MOLECULE
ZINC00398653
   43    45     0     0     0
SMALL
USER_CHARGES

@<TRIPOS>ATOM
      1 C1         -0.0083    1.3893    0.1322 C.ar      1 <0>        -0.1166
      2 C2          0.4749    0.7801    1.2763 C.ar      1 <0>        -0.1172
      3 C3          1.6785    0.1056    1.2461 C.ar      1 <0>        -0.1091
      4 C4          2.4074    0.0389    0.0603 C.ar      1 <0>        -0.0486
      5 C5          1.9158    0.6545   -1.0892 C.ar      1 <0>        -0.1091
      6 C6          0.7110    1.3264   -1.0476 C.ar      1 <0>        -0.1173
      7 C7          3.7022   -0.6844    0.0219 C.ar      1 <0>        -0.0407
      8 C8          4.1902   -1.3041    1.1709 C.ar      1 <0>        -0.0948
      9 C9          5.3941   -1.9757    1.1321 C.ar      1 <0>        -0.1161
     10 C10         6.1200   -2.0344   -0.0497 C.ar      1 <0>         0.1065
     11 C11         5.6367   -1.4177   -1.1957 C.ar      1 <0>        -0.1112
     12 C12         4.4302   -0.7504   -1.1648 C.ar      1 <0>        -0.0959
     13 O1          7.3064   -2.6966   -0.0848 O.3       1 <0>        -0.3088
     14 C13         7.2835   -4.0401    0.0058 C.2       1 <0>         0.6448
     15 O2          6.2217   -4.6310    0.0065 O.2       1 <0>        -0.5514
     16 N1          8.4383   -4.7292    0.0956 N.am      1 <0>        -0.7022
     17 C14         8.4134   -6.1907    0.1941 C.3       1 <0>         0.1617
     18 C15         8.3323   -6.7951   -1.2091 C.3       1 <0>        -0.1330
     19 C16         8.3064   -8.3215   -1.1062 C.3       1 <0>        -0.1173
     20 C17         9.5814   -8.8077   -0.4143 C.3       1 <0>        -0.1238
     21 C18         9.6624   -8.2033    0.9889 C.3       1 <0>        -0.1159
     22 C19         9.6884   -6.6770    0.8861 C.3       1 <0>        -0.1270
     23 H1         -0.9529    1.9123    0.1592 H         1 <0>         0.1239
     24 H2         -0.0907    0.8328    2.1948 H         1 <0>         0.1255
     25 H3          2.0550   -0.3694    2.1400 H         1 <0>         0.1259
     26 H4          2.4768    0.6062   -2.0108 H         1 <0>         0.1262
     27 H5          0.3289    1.8035   -1.9379 H         1 <0>         0.1256
     28 H6          3.6263   -1.2582    2.0909 H         1 <0>         0.1342
     29 H7          5.7728   -2.4561    2.0222 H         1 <0>         0.1297
     30 H8          6.2040   -1.4645   -2.1136 H         1 <0>         0.1348
     31 H9          4.0524   -0.2749   -2.0579 H         1 <0>         0.1361
     32 H10         9.2858   -4.2575    0.0950 H         1 <0>         0.4078
     33 H11         7.5442   -6.5010    0.7741 H         1 <0>         0.0930
     34 H12         7.4240   -6.4487   -1.7020 H         1 <0>         0.0690
     35 H13         9.2015   -6.4848   -1.7891 H         1 <0>         0.0667
     36 H14         7.4372   -8.6318   -0.5262 H         1 <0>         0.0658
     37 H15         8.2486   -8.7521   -2.1059 H         1 <0>         0.0675
     38 H16         9.5628   -9.8951   -0.3409 H         1 <0>         0.0662
     39 H17        10.4505   -8.4974   -0.9943 H         1 <0>         0.0640
     40 H18         8.7933   -8.5136    1.5690 H         1 <0>         0.0668
     41 H19        10.5707   -8.5497    1.4819 H         1 <0>         0.0706
     42 H20        10.5575   -6.3667    0.3060 H         1 <0>         0.0717
     43 H21         9.7461   -6.2464    1.8857 H         1 <0>         0.0720
@<TRIPOS>BOND
     1    1    6 ar
     2    1    2 ar
     3    1   23 1
     4    2    3 ar
     5    2   24 1
     6    3    4 ar
     7    3   25 1
     8    4    5 ar
     9    4    7 1
    10    5    6 ar
    11    5   26 1
    12    6   27 1
    13    7   12 ar
    14    7    8 ar
    15    8    9 ar
    16    8   28 1
    17    9   10 ar
    18    9   29 1
    19   10   11 ar
    20   10   13 1
    21   11   12 ar
    22   11   30 1
    23   12   31 1
    24   13   14 1
    25   14   15 2
    26   14   16 am
    27   16   17 1
    28   16   32 1
    29   17   22 1
    30   17   18 1
    31   17   33 1
    32   18   19 1
    33   18   34 1
    34   18   35 1
    35   19   20 1
    36   19   36 1
    37   19   37 1
    38   20   21 1
    39   20   38 1
    40   20   39 1
    41   21   22 1
    42   21   40 1
    43   21   41 1
    44   22   42 1
    45   22   43 1
@<TRIPOS>MOLECULE
ZINC01738803
   39    41     0     0     0
SMALL
USER_CHARGES
2-naphthyl cyclohexylaminoformate
@<TRIPOS>ATOM
      1 C1         -3.5457   -1.5334   -9.5765 C.ar      1 <0>        -0.1125
      2 C2         -3.0810   -2.6260   -8.8466 C.ar      1 <0>        -0.1124
      3 C3         -2.3117   -2.4515   -7.7376 C.ar      1 <0>        -0.1035
      4 C4         -1.9785   -1.1514   -7.3196 C.ar      1 <0>        -0.0419
      5 C5         -1.1870   -0.9330   -6.1800 C.ar      1 <0>        -0.1019
      6 C6         -0.8838    0.3442   -5.8034 C.ar      1 <0>         0.1090
      7 C7         -1.3555    1.4389   -6.5346 C.ar      1 <0>        -0.1152
      8 C8         -2.1193    1.2608   -7.6455 C.ar      1 <0>        -0.0882
      9 C9         -2.4509   -0.0403   -8.0623 C.ar      1 <0>        -0.0504
     10 C10        -3.2433   -0.2604   -9.2017 C.ar      1 <0>        -0.1042
     11 O1         -0.1182    0.5542   -4.7001 O.3       1 <0>        -0.3073
     12 C11        -0.7545    0.9472   -3.5801 C.2       1 <0>         0.6432
     13 O2         -1.9459    1.1844   -3.6096 O.2       1 <0>        -0.5513
     14 N1         -0.0698    1.0774   -2.4265 N.am      1 <0>        -0.7027
     15 C12        -0.7620    1.5049   -1.2081 C.3       1 <0>         0.1615
     16 C13         0.0013    0.9972    0.0168 C.3       1 <0>        -0.1271
     17 C14        -0.7216    1.4436    1.2893 C.3       1 <0>        -0.1159
     18 C15        -0.7895    2.9717    1.3278 C.3       1 <0>        -0.1238
     19 C16        -1.5527    3.4793    0.1028 C.3       1 <0>        -0.1173
     20 C17        -0.8299    3.0329   -1.1696 C.3       1 <0>        -0.1327
     21 H1         -4.1552   -1.6994  -10.4525 H         1 <0>         0.1261
     22 H2         -3.3355   -3.6259   -9.1656 H         1 <0>         0.1264
     23 H3         -1.9592   -3.3075   -7.1814 H         1 <0>         0.1296
     24 H4         -0.8206   -1.7703   -5.6047 H         1 <0>         0.1362
     25 H5         -1.1063    2.4400   -6.2148 H         1 <0>         0.1292
     26 H6         -2.4733    2.1154   -8.2029 H         1 <0>         0.1365
     27 H7         -3.6106    0.5765   -9.7772 H         1 <0>         0.1303
     28 H8          0.8812    0.8881   -2.4030 H         1 <0>         0.4077
     29 H9         -1.7724    1.0960   -1.2018 H         1 <0>         0.0930
     30 H10         0.0496   -0.0914   -0.0106 H         1 <0>         0.0719
     31 H11         1.0117    1.4060    0.0105 H         1 <0>         0.0717
     32 H12        -1.7320    1.0348    1.2956 H         1 <0>         0.0668
     33 H13        -0.1779    1.0820    2.1620 H         1 <0>         0.0705
     34 H14         0.2209    3.3805    1.3215 H         1 <0>         0.0640
     35 H15        -1.3045    3.2897    2.2343 H         1 <0>         0.0661
     36 H16        -1.6011    4.5679    0.1303 H         1 <0>         0.0674
     37 H17        -2.5631    3.0705    0.1092 H         1 <0>         0.0658
     38 H18         0.1805    3.4417   -1.1759 H         1 <0>         0.0666
     39 H19        -1.3736    3.3946   -2.0423 H         1 <0>         0.0688
@<TRIPOS>BOND
     1    1   10 ar
     2    1    2 ar
     3    1   21 1
     4    2    3 ar
     5    2   22 1
     6    3    4 ar
     7    3   23 1
     8    4    9 ar
     9    4    5 ar
    10    5    6 ar
    11    5   24 1
    12    6    7 ar
    13    6   11 1
    14    7    8 ar
    15    7   25 1
    16    8    9 ar
    17    8   26 1
    18    9   10 ar
    19   10   27 1
    20   11   12 1
    21   12   13 2
    22   12   14 am
    23   14   15 1
    24   14   28 1
    25   15   20 1
    26   15   16 1
    27   15   29 1
    28   16   17 1
    29   16   30 1
    30   16   31 1
    31   17   18 1
    32   17   32 1
    33   17   33 1
    34   18   19 1
    35   18   34 1
    36   18   35 1
    37   19   20 1
    38   19   36 1
    39   19   37 1
    40   20   38 1
    41   20   39 1
