@<TRIPOS>MOLECULE
ZINC04099011
   27    27     0     0     0
SMALL
USER_CHARGES

@<TRIPOS>ATOM
      1 C1          0.1488    1.0445    0.9238 C.3       1 <0>        -0.0260
      2 C2          0.0832   -0.4444    0.7004 C.2       1 <0>        -0.5174
      3 C3         -1.1258   -1.0289    0.4474 C.2       1 <0>         0.4032
      4 C4         -1.0864   -2.5327    0.2365 C.3       1 <0>        -0.0239
      5 S1          0.7119   -2.8593    0.4407 S.3       1 <0>        -0.3002
      6 C5          1.2445   -1.1843    0.7504 C.2       1 <0>         0.3948
      7 O1          2.4982   -0.7433    0.9829 O.3       1 <0>        -0.6001
      8 C6         -1.9051   -3.2620    1.3037 C.3       1 <0>        -0.1181
      9 C7         -1.5525   -2.9004   -1.1487 C.2       1 <0>        -0.1138
     10 C8         -2.7786   -2.5762   -1.5450 C.2       1 <0>        -0.0973
     11 C9         -3.6478   -1.7082   -0.6720 C.3       1 <0>        -0.1186
     12 C10        -3.2876   -3.0647   -2.8360 C.2       1 <0>        -0.1091
     13 C11        -4.5136   -2.7405   -3.2323 C.2       1 <0>        -0.1949
     14 O2         -2.1603   -0.3903    0.3952 O.2       1 <0>        -0.5250
     15 H1          1.1822    1.3394    1.1061 H         1 <0>         0.0456
     16 H2         -0.2261    1.5613    0.0403 H         1 <0>         0.0277
     17 H3         -0.4624    1.3097    1.7865 H         1 <0>         0.0284
     18 H4         -2.9088   -2.8389    1.3436 H         1 <0>         0.0792
     19 H5         -1.9668   -4.3211    1.0535 H         1 <0>         0.0617
     20 H6         -1.4228   -3.1454    2.2742 H         1 <0>         0.0660
     21 H7         -0.8899   -3.4274   -1.8192 H         1 <0>         0.1180
     22 H8         -3.5275   -0.6646   -0.9628 H         1 <0>         0.0831
     23 H9         -4.6908   -2.0010   -0.7922 H         1 <0>         0.0314
     24 H10        -3.3536   -1.8311    0.3703 H         1 <0>         0.0978
     25 H11        -2.6646   -3.6868   -3.4616 H         1 <0>         0.1094
     26 H12        -4.8873   -3.0991   -4.1800 H         1 <0>         0.0958
     27 H13        -5.1366   -2.1184   -2.6067 H         1 <0>         0.1023
@<TRIPOS>BOND
     1    1    2 1
     2    1   15 1
     3    1   16 1
     4    1   17 1
     5    2    6 2
     6    2    3 1
     7    3    4 1
     8    3   14 2
     9    4    5 1
    10    4    8 1
    11    4    9 1
    12    5    6 1
    13    6    7 1
    14    8   18 1
    15    8   19 1
    16    8   20 1
    17    9   10 2
    18    9   21 1
    19   10   11 1
    20   10   12 1
    21   11   22 1
    22   11   23 1
    23   11   24 1
    24   12   13 2
    25   12   25 1
    26   13   26 1
    27   13   27 1
@<TRIPOS>MOLECULE
ZINC38145872
   28    28     0     0     0
SMALL
USER_CHARGES

@<TRIPOS>ATOM
      1 C1          1.4897    1.1902   -1.2889 C.3       1 <0>        -0.1325
      2 C2          1.1745   -0.2772   -0.9917 C.3       1 <0>        -0.2353
      3 C3          1.9098   -1.1273   -1.9878 C.2       1 <0>         0.3517
      4 S1          2.8997   -2.1473   -1.1045 S.3       1 <0>        -0.0936
      5 C4          2.5193   -1.6403    0.6114 C.3       1 <0>        -0.0487
      6 C5          1.4946   -0.5429    0.4402 C.2       1 <0>         0.3944
      7 O1          0.9903    0.0530    1.3615 O.2       1 <0>        -0.3933
      8 C6          3.7730   -1.1024    1.3040 C.3       1 <0>        -0.1249
      9 C7          1.9365   -2.7930    1.3877 C.2       1 <0>        -0.1535
     10 C8          1.0963   -3.6352    0.7960 C.2       1 <0>        -0.0527
     11 C9          0.5892   -3.3426   -0.5926 C.3       1 <0>        -0.1523
     12 C10         0.6610   -4.8535    1.4965 C.2       1 <0>        -0.1320
     13 C11        -0.1792   -5.6957    0.9048 C.2       1 <0>        -0.1617
     14 O2          1.8062   -1.0834   -3.1959 O.2       1 <0>        -0.3917
     15 H1          2.5463    1.3803   -1.1001 H         1 <0>         0.0684
     16 H2          1.2625    1.4064   -2.3328 H         1 <0>         0.0833
     17 H3          0.8850    1.8292   -0.6455 H         1 <0>         0.0823
     18 H4          4.1637   -0.2546    0.7411 H         1 <0>         0.0733
     19 H5          3.5206   -0.7821    2.3148 H         1 <0>         0.0866
     20 H6          4.5280   -1.8873    1.3494 H         1 <0>         0.0869
     21 H7          2.2018   -2.9345    2.4250 H         1 <0>         0.1414
     22 H8          1.3093   -3.7049   -1.3262 H         1 <0>         0.0996
     23 H9         -0.3668   -3.8440   -0.7435 H         1 <0>         0.0742
     24 H10         0.4583   -2.2671   -0.7124 H         1 <0>         0.0504
     25 H11         1.0244   -5.0632    2.4917 H         1 <0>         0.1213
     26 H12        -0.5426   -5.4860   -0.0903 H         1 <0>         0.1047
     27 H13        -0.4988   -6.5901    1.4191 H         1 <0>         0.1075
     28 H14         0.1051   -0.4303   -1.1366 H         1 <0>         0.1462
@<TRIPOS>BOND
     1    1    2 1
     2    1   15 1
     3    1   16 1
     4    1   17 1
     5    2    6 1
     6    2    3 1
     7    2   28 1
     8    3    4 1
     9    3   14 2
    10    4    5 1
    11    5    6 1
    12    5    8 1
    13    5    9 1
    14    6    7 2
    15    8   18 1
    16    8   19 1
    17    8   20 1
    18    9   10 2
    19    9   21 1
    20   10   11 1
    21   10   12 1
    22   11   22 1
    23   11   23 1
    24   11   24 1
    25   12   13 2
    26   12   25 1
    27   13   26 1
    28   13   27 1
@<TRIPOS>MOLECULE
ZINC38145872
   28    28     0     0     0
SMALL
USER_CHARGES

@<TRIPOS>ATOM
      1 C1          0.1097    0.5736    0.7848 C.3       1 <0>        -0.1408
      2 C2          0.4385   -0.9080    0.5910 C.3       1 <0>        -0.2348
      3 C3          0.7883   -1.1251   -0.8421 C.2       1 <0>         0.3939
      4 C4          2.1756   -1.6971   -1.0202 C.3       1 <0>        -0.0495
      5 S1          2.7987   -1.8598    0.6919 S.3       1 <0>        -0.0919
      6 C5          1.5019   -1.2872    1.5814 C.2       1 <0>         0.3491
      7 O1          1.4342   -1.1960    2.7893 O.2       1 <0>        -0.3917
      8 C6          2.1100   -3.0656   -1.7013 C.3       1 <0>        -0.1254
      9 C7          3.0414   -0.7508   -1.8115 C.2       1 <0>        -0.1557
     10 C8          3.6790    0.2389   -1.1955 C.2       1 <0>        -0.0526
     11 C9          3.3920    0.5330    0.2543 C.3       1 <0>        -0.1497
     12 C10         4.6652    1.0476   -1.9290 C.2       1 <0>        -0.1328
     13 C11         5.3028    2.0373   -1.3130 C.2       1 <0>        -0.1614
     14 O2          0.0447   -0.8721   -1.7594 O.2       1 <0>        -0.3942
     15 H1          1.0124    1.1678    0.6428 H         1 <0>         0.0751
     16 H2         -0.6432    0.8769    0.0572 H         1 <0>         0.0824
     17 H3         -0.2746    0.7317    1.7925 H         1 <0>         0.0842
     18 H4          1.6422   -2.9621   -2.6803 H         1 <0>         0.0863
     19 H5          3.1188   -3.4608   -1.8205 H         1 <0>         0.0869
     20 H6          1.5223   -3.7487   -1.0881 H         1 <0>         0.0743
     21 H7          3.1436   -0.8771   -2.8792 H         1 <0>         0.1415
     22 H8          4.0503   -0.0658    0.8838 H         1 <0>         0.0991
     23 H9          3.5644    1.5911    0.4514 H         1 <0>         0.0700
     24 H10         2.3538    0.2865    0.4765 H         1 <0>         0.0574
     25 H11         4.8708    0.8368   -2.9680 H         1 <0>         0.1206
     26 H12         5.0971    2.2481   -0.2740 H         1 <0>         0.1049
     27 H13         6.0267    2.6309   -1.8514 H         1 <0>         0.1070
     28 H14        -0.4579   -1.4864    0.8144 H         1 <0>         0.1479
@<TRIPOS>BOND
     1    1    2 1
     2    1   15 1
     3    1   16 1
     4    1   17 1
     5    2    6 1
     6    2    3 1
     7    2   28 1
     8    3    4 1
     9    3   14 2
    10    4    5 1
    11    4    8 1
    12    4    9 1
    13    5    6 1
    14    6    7 2
    15    8   18 1
    16    8   19 1
    17    8   20 1
    18    9   10 2
    19    9   21 1
    20   10   11 1
    21   10   12 1
    22   11   22 1
    23   11   23 1
    24   11   24 1
    25   12   13 2
    26   12   25 1
    27   13   26 1
    28   13   27 1
