@<TRIPOS>MOLECULE
ZINC53070632
   49    52     0     0     0
SMALL
USER_CHARGES

@<TRIPOS>ATOM
      1 C1          0.1172    1.6508   -1.0405 C.ar      1 <0>        -0.0950
      2 C2          1.3282    2.3156   -1.0379 C.ar      1 <0>        -0.0996
      3 C3          2.1971    2.1693    0.0353 C.ar      1 <0>         0.1482
      4 C4          1.8460    1.3545    1.1036 C.ar      1 <0>        -0.1090
      5 C5          0.6332    0.6919    1.0955 C.ar      1 <0>        -0.0255
      6 C6         -0.2305    0.8401    0.0240 C.ar      1 <0>        -0.1078
      7 Cl1         0.1928   -0.3275    2.4299 Cl        1 <0>        -0.0626
      8 N1          3.4245    2.8413    0.0400 N.am      1 <0>        -0.5626
      9 C7          4.6501    2.0559   -0.0734 C.3       1 <0>         0.1194
     10 C8          5.8122    2.9560   -0.4973 C.3       1 <0>         0.0339
     11 N2          5.8446    4.1333    0.3856 N.3       1 <0>        -0.5307
     12 C9          4.6821    4.9932    0.1262 C.3       1 <0>         0.0436
     13 C10         3.4224    4.1745    0.1428 C.2       1 <0>         0.5253
     14 O1          2.3593    4.7467    0.2590 O.2       1 <0>        -0.5257
     15 C11         7.0989    4.8802    0.2214 C.3       1 <0>         0.1243
     16 C12         7.2798    5.8203    1.3851 C.2       1 <0>        -0.0173
     17 C13         6.9108    7.1145    1.4365 C.2       1 <0>        -0.0153
     18 N3          7.2472    7.5943    2.6430 N.2       1 <0>        -0.4893
     19 C14         7.8107    6.6467    3.3412 C.2       1 <0>         0.1903
     20 N4          7.8453    5.5214    2.5953 N.pl3     1 <0>        -0.4424
     21 C15         8.3895    4.2240    3.0038 C.3       1 <0>         0.1420
     22 C16         9.8051    4.0932    2.5039 C.ar      1 <0>        -0.0864
     23 C17        10.0571    3.4323    1.3147 C.ar      1 <0>        -0.1030
     24 C18        11.3505    3.3088    0.8512 C.ar      1 <0>        -0.0693
     25 C19        12.4065    3.8530    1.5849 C.ar      1 <0>        -0.0149
     26 C20        12.1450    4.5191    2.7840 C.ar      1 <0>        -0.0677
     27 C21        10.8463    4.6394    3.2333 C.ar      1 <0>        -0.0977
     28 C22        13.7518    3.7283    1.1101 C.1       1 <0>         0.2456
     29 N5         14.8189    3.6293    0.7334 N.1       1 <0>        -0.4036
     30 H1         -0.5606    1.7680   -1.8730 H         1 <0>         0.1387
     31 H2          1.5990    2.9483   -1.8702 H         1 <0>         0.1283
     32 H3          2.5199    1.2386    1.9395 H         1 <0>         0.1355
     33 H4         -1.1779    0.3218    0.0197 H         1 <0>         0.1379
     34 H5          4.8783    1.6006    0.8903 H         1 <0>         0.0788
     35 H6          4.5098    1.2720   -0.8176 H         1 <0>         0.0863
     36 H7          6.7501    2.4076   -0.4097 H         1 <0>         0.1017
     37 H8          5.6687    3.2767   -1.5291 H         1 <0>         0.0541
     38 H9          4.6249    5.7654    0.8933 H         1 <0>         0.1213
     39 H10         4.7908    5.4635   -0.8511 H         1 <0>         0.0794
     40 H11         7.9352    4.1821    0.1848 H         1 <0>         0.0900
     41 H12         7.0624    5.4523   -0.7057 H         1 <0>         0.0692
     42 H13         6.4285    7.6688    0.6450 H         1 <0>         0.1658
     43 H14         8.1838    6.7449    4.3499 H         1 <0>         0.2043
     44 H15         8.3802    4.1523    4.0914 H         1 <0>         0.1084
     45 H16         7.7798    3.4252    2.5817 H         1 <0>         0.1081
     46 H17         9.2394    3.0119    0.7482 H         1 <0>         0.1339
     47 H18        11.5459    2.7921   -0.0768 H         1 <0>         0.1372
     48 H19        12.9572    4.9423    3.3564 H         1 <0>         0.1376
     49 H20        10.6421    5.1578    4.1585 H         1 <0>         0.1362
@<TRIPOS>BOND
     1    1    6 ar
     2    1    2 ar
     3    1   30 1
     4    2    3 ar
     5    2   31 1
     6    3    4 ar
     7    3    8 1
     8    4    5 ar
     9    4   32 1
    10    5    6 ar
    11    5    7 1
    12    6   33 1
    13    8   13 am
    14    8    9 1
    15    9   10 1
    16    9   34 1
    17    9   35 1
    18   10   11 1
    19   10   36 1
    20   10   37 1
    21   11   12 1
    22   11   15 1
    23   12   13 1
    24   12   38 1
    25   12   39 1
    26   13   14 2
    27   15   16 1
    28   15   40 1
    29   15   41 1
    30   16   20 1
    31   16   17 2
    32   17   18 1
    33   17   42 1
    34   18   19 2
    35   19   20 1
    36   19   43 1
    37   20   21 1
    38   21   22 1
    39   21   44 1
    40   21   45 1
    41   22   27 ar
    42   22   23 ar
    43   23   24 ar
    44   23   46 1
    45   24   25 ar
    46   24   47 1
    47   25   26 ar
    48   25   28 1
    49   26   27 ar
    50   26   48 1
    51   27   49 1
    52   28   29 3
@<TRIPOS>MOLECULE
ZINC53070632
   50    53     0     0     0
SMALL
USER_CHARGES

@<TRIPOS>ATOM
      1 C1          0.1172    1.6508   -1.0405 C.ar      1 <0>        -0.0928
      2 C2          1.3282    2.3156   -1.0379 C.ar      1 <0>        -0.0984
      3 C3          2.1971    2.1693    0.0353 C.ar      1 <0>         0.1382
      4 C4          1.8460    1.3545    1.1036 C.ar      1 <0>        -0.1082
      5 C5          0.6332    0.6919    1.0955 C.ar      1 <0>        -0.0258
      6 C6         -0.2305    0.8401    0.0240 C.ar      1 <0>        -0.1022
      7 Cl1         0.1928   -0.3275    2.4299 Cl        1 <0>        -0.0567
      8 N1          3.4245    2.8413    0.0400 N.am      1 <0>        -0.5579
      9 C7          4.6501    2.0559   -0.0734 C.3       1 <0>         0.1161
     10 C8          5.8122    2.9560   -0.4973 C.3       1 <0>         0.0350
     11 N2          5.8446    4.1333    0.3856 N.3       1 <0>        -0.5333
     12 C9          4.6821    4.9932    0.1262 C.3       1 <0>         0.0384
     13 C10         3.4224    4.1745    0.1428 C.2       1 <0>         0.5210
     14 O1          2.3593    4.7467    0.2590 O.2       1 <0>        -0.5193
     15 C11         7.0989    4.8802    0.2214 C.3       1 <0>         0.1034
     16 C12         7.2798    5.8203    1.3851 C.2       1 <0>         0.0651
     17 C13         6.9108    7.1145    1.4365 C.2       1 <0>         0.0071
     18 N3          7.2472    7.5943    2.6430 N.pl3     1 <0>        -0.4724
     19 C14         7.8107    6.6467    3.3412 C.cat     1 <0>         0.2935
     20 N4          7.8453    5.5214    2.5953 N.pl3     1 <0>        -0.3930
     21 C15         8.3895    4.2240    3.0038 C.3       1 <0>         0.1359
     22 C16         9.8051    4.0932    2.5039 C.ar      1 <0>        -0.1190
     23 C17        10.0571    3.4323    1.3147 C.ar      1 <0>        -0.0946
     24 C18        11.3505    3.3088    0.8512 C.ar      1 <0>        -0.0677
     25 C19        12.4065    3.8530    1.5849 C.ar      1 <0>         0.0123
     26 C20        12.1450    4.5191    2.7840 C.ar      1 <0>        -0.0678
     27 C21        10.8463    4.6394    3.2333 C.ar      1 <0>        -0.0946
     28 C22        13.7518    3.7283    1.1101 C.1       1 <0>         0.2287
     29 N5         14.8189    3.6293    0.7334 N.1       1 <0>        -0.3775
     30 H1         -0.5606    1.7680   -1.8730 H         1 <0>         0.1413
     31 H2          1.5990    2.9483   -1.8702 H         1 <0>         0.1283
     32 H3          2.5199    1.2386    1.9395 H         1 <0>         0.1346
     33 H4         -1.1779    0.3218    0.0197 H         1 <0>         0.1409
     34 H5          4.8783    1.6006    0.8903 H         1 <0>         0.0822
     35 H6          4.5098    1.2720   -0.8176 H         1 <0>         0.0937
     36 H7          6.7501    2.4076   -0.4097 H         1 <0>         0.1082
     37 H8          5.6687    3.2767   -1.5291 H         1 <0>         0.0637
     38 H9          4.6249    5.7654    0.8933 H         1 <0>         0.1133
     39 H10         4.7908    5.4635   -0.8511 H         1 <0>         0.0867
     40 H11         7.9352    4.1821    0.1848 H         1 <0>         0.1131
     41 H12         7.0624    5.4523   -0.7057 H         1 <0>         0.0940
     42 H13         6.4285    7.6688    0.6450 H         1 <0>         0.2215
     43 H14         8.1838    6.7449    4.3499 H         1 <0>         0.2612
     44 H15         8.3802    4.1523    4.0914 H         1 <0>         0.1344
     45 H16         7.7798    3.4252    2.5817 H         1 <0>         0.1370
     46 H17         9.2394    3.0119    0.7482 H         1 <0>         0.1383
     47 H18        11.5459    2.7921   -0.0768 H         1 <0>         0.1450
     48 H19        12.9572    4.9423    3.3564 H         1 <0>         0.1443
     49 H20        10.6421    5.1578    4.1585 H         1 <0>         0.1384
     50 H21         7.0959    8.5025    2.9483 H         1 <0>         0.4664
@<TRIPOS>BOND
     1    1    6 ar
     2    1    2 ar
     3    1   30 1
     4    2    3 ar
     5    2   31 1
     6    3    4 ar
     7    3    8 1
     8    4    5 ar
     9    4   32 1
    10    5    6 ar
    11    5    7 1
    12    6   33 1
    13    8   13 am
    14    8    9 1
    15    9   10 1
    16    9   34 1
    17    9   35 1
    18   10   11 1
    19   10   36 1
    20   10   37 1
    21   11   12 1
    22   11   15 1
    23   12   13 1
    24   12   38 1
    25   12   39 1
    26   13   14 2
    27   15   16 1
    28   15   40 1
    29   15   41 1
    30   16   20 1
    31   16   17 2
    32   17   18 1
    33   17   42 1
    34   18   19 2
    35   18   50 1
    36   19   20 1
    37   19   43 1
    38   20   21 1
    39   21   22 1
    40   21   44 1
    41   21   45 1
    42   22   27 ar
    43   22   23 ar
    44   23   24 ar
    45   23   46 1
    46   24   25 ar
    47   24   47 1
    48   25   26 ar
    49   25   28 1
    50   26   27 ar
    51   26   48 1
    52   27   49 1
    53   28   29 3
@<TRIPOS>MOLECULE
ZINC24809155
   56    60     0     0     0
SMALL
USER_CHARGES
6-[(R)-amino-(4-chlorophenyl)-(3-methylimidazol-4-yl)methyl]-4-(3-chlorophenyl)-1-methyl-quinolin-2-one
@<TRIPOS>ATOM
      1 C1          4.0958    4.0587    5.4913 C.3       1 <0>         0.0622
      2 N1          3.9399    5.4291    5.9851 N.pl3     1 <0>        -0.4500
      3 C2          4.8140    6.1056    6.7610 C.2       1 <0>         0.1876
      4 N2          4.3316    7.2953    6.9954 N.2       1 <0>        -0.4896
      5 C3          3.1469    7.4215    6.3792 C.2       1 <0>        -0.0049
      6 C4          2.8811    6.2631    5.7461 C.2       1 <0>        -0.0086
      7 C5          1.6564    5.9478    4.9264 C.3       1 <0>         0.2804
      8 C6          0.6824    7.0941    5.0172 C.ar      1 <0>        -0.0692
      9 C7          0.9485    8.2806    4.3595 C.ar      1 <0>        -0.0934
     10 C8          0.0528    9.3303    4.4378 C.ar      1 <0>        -0.1113
     11 C9         -1.1048    9.1974    5.1838 C.ar      1 <0>        -0.0278
     12 C10        -1.3678    8.0117    5.8464 C.ar      1 <0>        -0.1120
     13 C11        -0.4741    6.9607    5.7628 C.ar      1 <0>        -0.0777
     14 Cl1        -2.2271   10.5178    5.2879 Cl        1 <0>        -0.0683
     15 C12         2.0546    5.7396    3.4880 C.ar      1 <0>        -0.1439
     16 C13         3.0894    6.4884    2.9450 C.ar      1 <0>        -0.0472
     17 C14         3.4695    6.3133    1.6319 C.ar      1 <0>        -0.1558
     18 C15         2.8099    5.3778    0.8412 C.ar      1 <0>         0.1945
     19 C16         1.7627    4.6216    1.3961 C.ar      1 <0>        -0.1121
     20 C17         1.3939    4.8146    2.7289 C.ar      1 <0>        -0.0523
     21 C18         1.0731    3.6339    0.5505 C.2       1 <0>         0.0499
     22 C19         1.4866    3.4887   -0.7471 C.2       1 <0>        -0.1941
     23 C20         2.5376    4.2797   -1.2449 C.2       1 <0>         0.5342
     24 O1          2.8876    4.1391   -2.4044 O.2       1 <0>        -0.5306
     25 N3          3.1702    5.1824   -0.4762 N.am      1 <0>        -0.5207
     26 C21         4.2624    5.9739   -1.0478 C.3       1 <0>         0.0529
     27 C22        -0.0345    2.8143    1.0903 C.ar      1 <0>        -0.0525
     28 C23         0.1082    1.4304    1.2027 C.ar      1 <0>        -0.0918
     29 C24        -0.9275    0.6715    1.7070 C.ar      1 <0>        -0.1016
     30 C25        -2.1084    1.2784    2.0963 C.ar      1 <0>        -0.0987
     31 C26        -2.2549    2.6512    1.9925 C.ar      1 <0>        -0.0325
     32 C27        -1.2254    3.4218    1.4892 C.ar      1 <0>        -0.0917
     33 Cl2        -3.7381    3.4044    2.4892 Cl        1 <0>        -0.0577
     34 N4          1.0240    4.7259    5.4412 N.3       1 <0>        -0.8117
     35 H1          5.0501    3.6459    5.8504 H         1 <0>         0.0971
     36 H2          4.0886    4.0623    4.3913 H         1 <0>         0.0794
     37 H3          3.2658    3.4390    5.8614 H         1 <0>         0.0842
     38 H4          5.7563    5.7252    7.1267 H         1 <0>         0.2057
     39 H5          2.5155    8.2977    6.3911 H         1 <0>         0.1665
     40 H6          1.8542    8.3857    3.7808 H         1 <0>         0.1301
     41 H7          0.2586   10.2557    3.9203 H         1 <0>         0.1347
     42 H8         -2.2711    7.9076    6.4292 H         1 <0>         0.1350
     43 H9         -0.6791    6.0352    6.2803 H         1 <0>         0.1462
     44 H10         3.6020    7.2152    3.5577 H         1 <0>         0.1345
     45 H11         4.2759    6.9006    1.2180 H         1 <0>         0.1395
     46 H12         0.5897    4.2356    3.1583 H         1 <0>         0.1337
     47 H13         1.0020    2.7689   -1.3901 H         1 <0>         0.1587
     48 H14         4.4111    5.6878   -2.0995 H         1 <0>         0.1068
     49 H15         5.1868    5.7853   -0.4823 H         1 <0>         0.0780
     50 H16         4.0093    7.0429   -0.9908 H         1 <0>         0.0788
     51 H17         1.0279    0.9547    0.8957 H         1 <0>         0.1342
     52 H18        -0.8180   -0.3994    1.7939 H         1 <0>         0.1394
     53 H19        -2.9177    0.6791    2.4866 H         1 <0>         0.1384
     54 H20        -1.3416    4.4923    1.4050 H         1 <0>         0.1372
     55 H21         0.1301    4.4957    4.8429 H         1 <0>         0.3476
     56 H22         1.7350    3.8892    5.3749 H         1 <0>         0.3401
@<TRIPOS>BOND
     1    1    2 1
     2    1   35 1
     3    1   36 1
     4    1   37 1
     5    2    6 1
     6    2    3 1
     7    3    4 2
     8    3   38 1
     9    4    5 1
    10    5    6 2
    11    5   39 1
    12    6    7 1
    13    7    8 1
    14    7   15 1
    15    7   34 1
    16    8   13 ar
    17    8    9 ar
    18    9   10 ar
    19    9   40 1
    20   10   11 ar
    21   10   41 1
    22   11   12 ar
    23   11   14 1
    24   12   13 ar
    25   12   42 1
    26   13   43 1
    27   15   20 ar
    28   15   16 ar
    29   16   17 ar
    30   16   44 1
    31   17   18 ar
    32   17   45 1
    33   18   25 1
    34   18   19 ar
    35   19   20 ar
    36   19   21 1
    37   20   46 1
    38   21   22 2
    39   21   27 1
    40   22   23 1
    41   22   47 1
    42   23   24 2
    43   23   25 am
    44   25   26 1
    45   26   48 1
    46   26   49 1
    47   26   50 1
    48   27   32 ar
    49   27   28 ar
    50   28   29 ar
    51   28   51 1
    52   29   30 ar
    53   29   52 1
    54   30   31 ar
    55   30   53 1
    56   31   32 ar
    57   31   33 1
    58   32   54 1
    59   34   55 1
    60   34   56 1
@<TRIPOS>MOLECULE
ZINC24809155
   57    61     0     0     0
SMALL
USER_CHARGES
6-[(R)-amino-(4-chlorophenyl)-(3-methylimidazol-4-yl)methyl]-4-(3-chlorophenyl)-1-methyl-quinolin-2-one
@<TRIPOS>ATOM
      1 C1          4.0958    4.0587    5.4913 C.3       1 <0>         0.0431
      2 N1          3.9399    5.4291    5.9851 N.pl3     1 <0>        -0.4008
      3 C2          4.8140    6.1056    6.7610 C.cat     1 <0>         0.2791
      4 N2          4.3316    7.2953    6.9954 N.pl3     1 <0>        -0.4888
      5 C3          3.1469    7.4215    6.3792 C.2       1 <0>         0.0261
      6 C4          2.8811    6.2631    5.7461 C.2       1 <0>         0.0710
      7 C5          1.6564    5.9478    4.9264 C.3       1 <0>         0.2787
      8 C6          0.6824    7.0941    5.0172 C.ar      1 <0>        -0.0982
      9 C7          0.9485    8.2806    4.3595 C.ar      1 <0>        -0.0994
     10 C8          0.0528    9.3303    4.4378 C.ar      1 <0>        -0.1092
     11 C9         -1.1048    9.1974    5.1838 C.ar      1 <0>        -0.0198
     12 C10        -1.3678    8.0117    5.8464 C.ar      1 <0>        -0.1079
     13 C11        -0.4741    6.9607    5.7628 C.ar      1 <0>        -0.0717
     14 Cl1        -2.2271   10.5178    5.2879 Cl        1 <0>        -0.0511
     15 C12         2.0546    5.7396    3.4880 C.ar      1 <0>        -0.1672
     16 C13         3.0894    6.4884    2.9450 C.ar      1 <0>        -0.0635
     17 C14         3.4695    6.3133    1.6319 C.ar      1 <0>        -0.1494
     18 C15         2.8099    5.3778    0.8412 C.ar      1 <0>         0.2044
     19 C16         1.7627    4.6216    1.3961 C.ar      1 <0>        -0.1037
     20 C17         1.3939    4.8146    2.7289 C.ar      1 <0>        -0.0413
     21 C18         1.0731    3.6339    0.5505 C.2       1 <0>         0.0420
     22 C19         1.4866    3.4887   -0.7471 C.2       1 <0>        -0.1803
     23 C20         2.5376    4.2797   -1.2449 C.2       1 <0>         0.5323
     24 O1          2.8876    4.1391   -2.4044 O.2       1 <0>        -0.5147
     25 N3          3.1702    5.1824   -0.4762 N.am      1 <0>        -0.5221
     26 C21         4.2624    5.9739   -1.0478 C.3       1 <0>         0.0504
     27 C22        -0.0345    2.8143    1.0903 C.ar      1 <0>        -0.0580
     28 C23         0.1082    1.4304    1.2027 C.ar      1 <0>        -0.0913
     29 C24        -0.9275    0.6715    1.7070 C.ar      1 <0>        -0.0996
     30 C25        -2.1084    1.2784    2.0963 C.ar      1 <0>        -0.0954
     31 C26        -2.2549    2.6512    1.9925 C.ar      1 <0>        -0.0334
     32 C27        -1.2254    3.4218    1.4892 C.ar      1 <0>        -0.0940
     33 Cl2        -3.7381    3.4044    2.4892 Cl        1 <0>        -0.0542
     34 N4          1.0240    4.7259    5.4412 N.3       1 <0>        -0.8135
     35 H1          5.0501    3.6459    5.8504 H         1 <0>         0.1240
     36 H2          4.0886    4.0623    4.3913 H         1 <0>         0.1124
     37 H3          3.2658    3.4390    5.8614 H         1 <0>         0.1159
     38 H4          5.7563    5.7252    7.1267 H         1 <0>         0.2604
     39 H5          2.5155    8.2977    6.3911 H         1 <0>         0.2175
     40 H6          1.8542    8.3857    3.7808 H         1 <0>         0.1316
     41 H7          0.2586   10.2557    3.9203 H         1 <0>         0.1399
     42 H8         -2.2711    7.9076    6.4292 H         1 <0>         0.1414
     43 H9         -0.6791    6.0352    6.2803 H         1 <0>         0.1498
     44 H10         3.6020    7.2152    3.5577 H         1 <0>         0.1253
     45 H11         4.2759    6.9006    1.2180 H         1 <0>         0.1429
     46 H12         0.5897    4.2356    3.1583 H         1 <0>         0.1371
     47 H13         1.0020    2.7689   -1.3901 H         1 <0>         0.1633
     48 H14         4.4111    5.6878   -2.0995 H         1 <0>         0.1106
     49 H15         5.1868    5.7853   -0.4823 H         1 <0>         0.0792
     50 H16         4.0093    7.0429   -0.9908 H         1 <0>         0.0806
     51 H17         1.0279    0.9547    0.8957 H         1 <0>         0.1349
     52 H18        -0.8180   -0.3994    1.7939 H         1 <0>         0.1415
     53 H19        -2.9177    0.6791    2.4866 H         1 <0>         0.1406
     54 H20        -1.3416    4.4923    1.4050 H         1 <0>         0.1363
     55 H21         0.1301    4.4957    4.8429 H         1 <0>         0.3696
     56 H22         1.7350    3.8892    5.3749 H         1 <0>         0.3422
     57 H23         4.8965    8.0051    7.6175 H         1 <0>         0.5045
@<TRIPOS>BOND
     1    1    2 1
     2    1   35 1
     3    1   36 1
     4    1   37 1
     5    2    6 1
     6    2    3 1
     7    3    4 2
     8    3   38 1
     9    4    5 1
    10    4   57 1
    11    5    6 2
    12    5   39 1
    13    6    7 1
    14    7    8 1
    15    7   15 1
    16    7   34 1
    17    8   13 ar
    18    8    9 ar
    19    9   10 ar
    20    9   40 1
    21   10   11 ar
    22   10   41 1
    23   11   12 ar
    24   11   14 1
    25   12   13 ar
    26   12   42 1
    27   13   43 1
    28   15   20 ar
    29   15   16 ar
    30   16   17 ar
    31   16   44 1
    32   17   18 ar
    33   17   45 1
    34   18   25 1
    35   18   19 ar
    36   19   20 ar
    37   19   21 1
    38   20   46 1
    39   21   22 2
    40   21   27 1
    41   22   23 1
    42   22   47 1
    43   23   24 2
    44   23   25 am
    45   25   26 1
    46   26   48 1
    47   26   49 1
    48   26   50 1
    49   27   32 ar
    50   27   28 ar
    51   28   29 ar
    52   28   51 1
    53   29   30 ar
    54   29   52 1
    55   30   31 ar
    56   30   53 1
    57   31   32 ar
    58   31   33 1
    59   32   54 1
    60   34   55 1
    61   34   56 1
@<TRIPOS>MOLECULE
ZINC03950115
   67    71     0     0     0
SMALL
USER_CHARGES
4-[[4-(dibromo-chloro-BLAHyl)-1-piperidyl]carbonylmethyl]-N,N-bis[4-[[4-(dibromo-chloro-BLAHyl)-1-piperidyl]carbonylmethyl]-6-piperidyl]-piperidine-1-carboxamide
@<TRIPOS>ATOM
      1 C1          2.6466    3.4123    1.3119 C.ar      1 <0>        -0.0983
      2 C2          1.8873    4.5307    1.5449 C.ar      1 <0>        -0.0346
      3 C3          0.5476    4.5160    1.1970 C.ar      1 <0>        -0.0733
      4 C4          0.0142    3.3639    0.6759 C.ar      1 <0>        -0.0939
      5 C5          0.7962    2.2041    0.4804 C.ar      1 <0>        -0.0126
      6 C6          2.1013    2.2410    0.7390 C.ar      1 <0>        -0.0530
      7 C7          3.2036    1.2280    0.5083 C.3       1 <0>        -0.0745
      8 C8          2.8628   -0.1745    0.9057 C.3       1 <0>        -0.0711
      9 C9          1.7017   -0.7812    0.1507 C.ar      1 <0>        -0.1148
     10 C10         2.0114   -2.1203   -0.1993 C.ar      1 <0>        -0.0475
     11 C11         1.0559   -2.9244   -0.7767 C.ar      1 <0>        -0.1526
     12 C12        -0.2001   -2.3888   -1.0038 C.ar      1 <0>         0.1525
     13 N1         -0.4298   -1.1389   -0.6977 N.ar      1 <0>        -0.4676
     14 C13         0.4960   -0.3201   -0.1555 C.ar      1 <0>         0.1732
     15 C14        -0.0116    1.0583    0.0147 C.3       1 <0>        -0.0180
     16 H1         -0.8630    0.9891    0.6917 H         1 <0>         0.1104
     17 C15        -0.5983    1.4696   -1.3372 C.3       1 <0>        -0.0849
     18 C16        -1.9552    0.7892   -1.5324 C.3       1 <0>        -0.1462
     19 C17        -2.5552    1.2302   -2.8712 C.3       1 <0>         0.1072
     20 N2         -1.5834    0.9556   -3.9383 N.am      1 <0>        -0.6075
     21 C18        -0.2201    1.4873   -3.8063 C.3       1 <0>         0.1154
     22 C19         0.3538    1.0434   -2.4571 C.3       1 <0>        -0.1270
     23 C20        -1.9359    0.2302   -5.0181 C.2       1 <0>         0.5158
     24 O1         -1.1246    0.0107   -5.8925 O.2       1 <0>        -0.5379
     25 C21        -3.3382   -0.3084   -5.1390 C.3       1 <0>        -0.1356
     26 C22        -3.4735   -1.0896   -6.4475 C.3       1 <0>        -0.0700
     27 C23        -3.3011   -0.1351   -7.6313 C.3       1 <0>        -0.1339
     28 C24        -3.4027   -0.9264   -8.9391 C.3       1 <0>         0.1304
     29 N3         -4.6691   -1.6713   -8.9440 N.am      1 <0>        -0.6280
     30 C25        -4.9763   -2.5500   -7.8071 C.3       1 <0>         0.1125
     31 C26        -4.8571   -1.7405   -6.5120 C.3       1 <0>        -0.1318
     32 C27        -5.5328   -1.5506   -9.9715 C.2       1 <0>         0.7081
     33 O2         -5.2270   -0.8954  -10.9490 O.2       1 <0>        -0.5930
     34 N4         -6.7356   -2.1562   -9.9155 N.am      1 <0>        -0.8697
     35 Br1         1.4483   -4.7132   -1.2481 Br        1 <0>        -0.0292
     36 Br2        -1.8175    3.3281    0.2073 Br        1 <0>        -0.0170
     37 Cl1         2.5954    5.9425    2.2654 Cl        1 <0>        -0.0522
     38 H2          3.6941    3.4273    1.5745 H         1 <0>         0.1398
     39 H3         -0.0662    5.3941    1.3335 H         1 <0>         0.1482
     40 H4          4.0825    1.5414    1.0718 H         1 <0>         0.0903
     41 H5          3.4595    1.2330   -0.5512 H         1 <0>         0.0832
     42 H6          2.6245   -0.1832    1.9693 H         1 <0>         0.0831
     43 H7          3.7418   -0.7988    0.7457 H         1 <0>         0.0886
     44 H8          3.0009   -2.5103   -0.0116 H         1 <0>         0.1444
     45 H9         -0.9831   -2.9980   -1.4305 H         1 <0>         0.1687
     46 H10        -0.7278    2.5515   -1.3628 H         1 <0>         0.0915
     47 H11        -1.8230   -0.2928   -1.5318 H         1 <0>         0.1209
     48 H12        -2.6254    1.0748   -0.7216 H         1 <0>         0.0707
     49 H13        -2.7720    2.2980   -2.8403 H         1 <0>         0.0626
     50 H14        -3.4742    0.6761   -3.0624 H         1 <0>         0.0836
     51 H15        -0.2465    2.5761   -3.8517 H         1 <0>         0.0639
     52 H16         0.4040    1.1030   -4.6131 H         1 <0>         0.0903
     53 H17         1.3270    1.5099   -2.3044 H         1 <0>         0.0665
     54 H18         0.4642   -0.0410   -2.4477 H         1 <0>         0.0665
     55 H19        -3.5473   -0.9694   -4.2979 H         1 <0>         0.0946
     56 H20        -4.0470    0.5197   -5.1353 H         1 <0>         0.0917
     57 H21        -2.7062   -1.8626   -6.4899 H         1 <0>         0.0818
     58 H22        -4.0831    0.6238   -7.6036 H         1 <0>         0.0596
     59 H23        -2.3247    0.3457   -7.5719 H         1 <0>         0.0952
     60 H24        -2.5682   -1.6240   -9.0099 H         1 <0>         0.0670
     61 H25        -3.3787   -0.2409   -9.7862 H         1 <0>         0.0927
     62 H26        -4.2700   -3.3799   -7.7856 H         1 <0>         0.0719
     63 H27        -5.9909   -2.9360   -7.9047 H         1 <0>         0.0775
     64 H28        -4.9880   -2.4023   -5.6560 H         1 <0>         0.0776
     65 H29        -5.6244   -0.9665   -6.4949 H         1 <0>         0.0688
     66 H30        -7.0097   -2.6164   -9.1068 H         1 <0>         0.3952
     67 H31        -7.3271   -2.1318  -10.6839 H         1 <0>         0.4137
@<TRIPOS>BOND
     1    1    6 ar
     2    1    2 ar
     3    1   38 1
     4    2    3 ar
     5    2   37 1
     6    3    4 ar
     7    3   39 1
     8    4    5 ar
     9    4   36 1
    10    5   15 1
    11    5    6 ar
    12    6    7 1
    13    7    8 1
    14    7   40 1
    15    7   41 1
    16    8    9 1
    17    8   42 1
    18    8   43 1
    19    9   14 ar
    20    9   10 ar
    21   10   11 ar
    22   10   44 1
    23   11   12 ar
    24   11   35 1
    25   12   13 ar
    26   12   45 1
    27   13   14 ar
    28   14   15 1
    29   15   16 1
    30   15   17 1
    31   17   22 1
    32   17   18 1
    33   17   46 1
    34   18   19 1
    35   18   47 1
    36   18   48 1
    37   19   20 1
    38   19   49 1
    39   19   50 1
    40   20   21 1
    41   20   23 am
    42   21   22 1
    43   21   51 1
    44   21   52 1
    45   22   53 1
    46   22   54 1
    47   23   24 2
    48   23   25 1
    49   25   26 1
    50   25   55 1
    51   25   56 1
    52   26   31 1
    53   26   27 1
    54   26   57 1
    55   27   28 1
    56   27   58 1
    57   27   59 1
    58   28   29 1
    59   28   60 1
    60   28   61 1
    61   29   30 1
    62   29   32 am
    63   30   31 1
    64   30   62 1
    65   30   63 1
    66   31   64 1
    67   31   65 1
    68   32   33 2
    69   32   34 am
    70   34   66 1
    71   34   67 1
@<TRIPOS>MOLECULE
ZINC28004647
   73    74     0     0     0
SMALL
USER_CHARGES
(2S)-2-[[(2S)-2-[[(2S)-2-[[(2R)-2-amino-3-sulfanyl-propanoyl]amino]-3-methyl-butanoyl]amino]-3-(2-naphthyl)propanoyl]amino]-4-methylsulfanyl-butanoic acid
@<TRIPOS>ATOM
      1 C1          4.8238   -2.7545    4.1075 C.3       1 <0>        -0.1612
      2 C2          4.8284   -4.2684    3.8863 C.3       1 <0>        -0.0945
      3 C3          6.0979   -4.8687    4.4936 C.3       1 <0>        -0.1362
      4 C4          3.6003   -4.8857    4.5585 C.3       1 <0>         0.1367
      5 H1          3.5936   -4.6761    5.6383 H         1 <0>         0.1135
      6 C5          2.3498   -4.3340    3.9237 C.2       1 <0>         0.5135
      7 O1          1.8332   -4.9176    2.9945 O.2       1 <0>        -0.5224
      8 N1          1.8054   -3.1922    4.3888 N.am      1 <0>        -0.7105
      9 C6          0.6497   -2.6018    3.7090 C.3       1 <0>         0.1443
     10 H2          0.7741   -2.7776    2.6303 H         1 <0>         0.1102
     11 C7         -0.6343   -3.2526    4.2275 C.3       1 <0>        -0.0937
     12 C8         -0.6485   -4.7102    3.8450 C.ar      1 <0>        -0.0501
     13 C9         -0.0944   -5.6523    4.7098 C.ar      1 <0>        -0.0847
     14 C10        -0.0906   -6.9762    4.3944 C.ar      1 <0>        -0.1201
     15 C11        -0.6534   -7.4032    3.1796 C.ar      1 <0>        -0.0465
     16 C12        -0.6686   -8.7617    2.8197 C.ar      1 <0>        -0.1181
     17 C13        -1.2228   -9.1383    1.6351 C.ar      1 <0>        -0.1145
     18 C14        -1.7772   -8.1962    0.7705 C.ar      1 <0>        -0.1229
     19 C15        -1.7809   -6.8723    1.0859 C.ar      1 <0>        -0.0983
     20 C16        -1.2173   -6.4453    2.3004 C.ar      1 <0>        -0.0379
     21 C17        -1.2072   -5.0874    2.6628 C.ar      1 <0>        -0.0868
     22 C18         0.6082   -1.1206    3.9834 C.2       1 <0>         0.5139
     23 O2          1.4602   -0.6085    4.6783 O.2       1 <0>        -0.5425
     24 N2         -0.3756   -0.3649    3.4566 N.am      1 <0>        -0.7005
     25 C19        -0.4159    1.0751    3.7233 C.3       1 <0>         0.1124
     26 H3          0.6234    1.4298    3.7876 H         1 <0>         0.0911
     27 C20        -1.1687    1.7820    2.5944 C.3       1 <0>        -0.0933
     28 C21        -0.3857    1.6340    1.2883 C.3       1 <0>        -0.0773
     29 S1         -1.2784    2.4721   -0.0501 S.3       1 <0>        -0.2667
     30 C22        -0.2327    2.2068   -1.5084 C.3       1 <0>        -0.1243
     31 C23        -1.1220    1.3241    5.0311 C.2       1 <0>         0.4601
     32 O3         -1.5480    0.3943    5.6743 O.co2     1 <0>        -0.6280
     33 O4         -1.2779    2.5790    5.4813 O.co2     1 <0>        -0.7573
     34 N3          3.6318   -6.3408    4.3912 N.am      1 <0>        -0.6918
     35 C24         4.3286   -7.1036    5.2567 C.2       1 <0>         0.5067
     36 O5          4.9295   -6.5855    6.1739 O.2       1 <0>        -0.5180
     37 C25         4.3610   -8.6004    5.0847 C.3       1 <0>         0.0521
     38 H4          4.4815   -8.8493    4.0200 H         1 <0>         0.1723
     39 C26         3.0733   -9.2063    5.6466 C.3       1 <0>        -0.1082
     40 S2          3.1123  -11.0081    5.4395 S.3       1 <0>        -0.1414
     41 N4          5.5165   -9.1513    5.8053 N.4       1 <0>        -0.6717
     42 H5          3.9111   -2.3229    3.6709 H         1 <0>         0.0705
     43 H6          5.7067   -2.3107    3.6243 H         1 <0>         0.0670
     44 H7          4.8503   -2.5415    5.1864 H         1 <0>         0.0651
     45 H8          4.8019   -4.4814    2.8074 H         1 <0>         0.0811
     46 H9          6.1012   -5.9571    4.3345 H         1 <0>         0.0386
     47 H10         6.1244   -4.6557    5.5725 H         1 <0>         0.0699
     48 H11         6.9808   -4.4248    4.0104 H         1 <0>         0.0586
     49 H12         2.2287   -2.7036    5.2788 H         1 <0>         0.4365
     50 H13        -0.6756   -3.1605    5.3229 H         1 <0>         0.0894
     51 H14        -1.5057   -2.7486    3.7841 H         1 <0>         0.0946
     52 H15         0.3388   -5.3268    5.6440 H         1 <0>         0.1098
     53 H16         0.3424   -7.6949    5.0744 H         1 <0>         0.1047
     54 H17        -0.2430   -9.5029    3.4798 H         1 <0>         0.1124
     55 H18        -1.2334  -10.1829    1.3611 H         1 <0>         0.1181
     56 H19        -2.2106   -8.5216   -0.1637 H         1 <0>         0.1213
     57 H20        -2.2141   -6.1535    0.4061 H         1 <0>         0.1264
     58 H21        -1.6372   -4.3468    2.0048 H         1 <0>         0.1247
     59 H22        -1.1483   -0.8294    2.8264 H         1 <0>         0.4105
     60 H23        -2.1645    1.3295    2.4782 H         1 <0>         0.0742
     61 H24        -1.2771    2.8492    2.8380 H         1 <0>         0.1000
     62 H25         0.6101    2.0866    1.4045 H         1 <0>         0.0796
     63 H26        -0.2772    0.5668    1.0447 H         1 <0>         0.0762
     64 H27        -0.6964    2.6848   -2.3839 H         1 <0>         0.1004
     65 H28        -0.1275    1.1275   -1.6927 H         1 <0>         0.0727
     66 H29         0.7599    2.6473   -1.3329 H         1 <0>         0.0745
     67 H30         3.0868   -6.8107    3.5592 H         1 <0>         0.4445
     68 H31         2.9892   -8.9618    6.7158 H         1 <0>         0.1184
     69 H32         2.2080   -8.7938    5.1070 H         1 <0>         0.1345
     70 H33         2.2665  -11.6200    5.7862 H         1 <0>         0.0231
     71 H34         5.5401  -10.2439    5.6797 H         1 <0>         0.4671
     72 H35         5.4324   -8.9068    6.8745 H         1 <0>         0.4638
     73 H36         6.4423   -8.7157    5.4013 H         1 <0>         0.4644
@<TRIPOS>BOND
     1    1    2 1
     2    1   42 1
     3    1   43 1
     4    1   44 1
     5    2    3 1
     6    2    4 1
     7    2   45 1
     8    3   46 1
     9    3   47 1
    10    3   48 1
    11    4    5 1
    12    4    6 1
    13    4   34 1
    14    6    7 2
    15    6    8 am
    16    8    9 1
    17    8   49 1
    18    9   10 1
    19    9   11 1
    20    9   22 1
    21   11   12 1
    22   11   50 1
    23   11   51 1
    24   12   21 ar
    25   12   13 ar
    26   13   14 ar
    27   13   52 1
    28   14   15 ar
    29   14   53 1
    30   15   20 ar
    31   15   16 ar
    32   16   17 ar
    33   16   54 1
    34   17   18 ar
    35   17   55 1
    36   18   19 ar
    37   18   56 1
    38   19   20 ar
    39   19   57 1
    40   20   21 ar
    41   21   58 1
    42   22   23 2
    43   22   24 am
    44   24   25 1
    45   24   59 1
    46   25   26 1
    47   25   27 1
    48   25   31 1
    49   27   28 1
    50   27   60 1
    51   27   61 1
    52   28   29 1
    53   28   62 1
    54   28   63 1
    55   29   30 1
    56   30   64 1
    57   30   65 1
    58   30   66 1
    59   31   32 2
    60   31   33 1
    61   34   35 am
    62   34   67 1
    63   35   36 2
    64   35   37 1
    65   37   38 1
    66   37   39 1
    67   37   41 1
    68   39   40 1
    69   39   68 1
    70   39   69 1
    71   40   70 1
    72   41   71 1
    73   41   72 1
    74   41   73 1
@<TRIPOS>MOLECULE
ZINC28004647
   72    73     0     0     0
SMALL
USER_CHARGES
(2S)-2-[[(2S)-2-[[(2S)-2-[[(2R)-2-amino-3-sulfanyl-propanoyl]amino]-3-methyl-butanoyl]amino]-3-(2-naphthyl)propanoyl]amino]-4-methylsulfanyl-butanoic acid
@<TRIPOS>ATOM
      1 C1          4.8238   -2.7545    4.1075 C.3       1 <0>        -0.1570
      2 C2          4.8284   -4.2684    3.8863 C.3       1 <0>        -0.0932
      3 C3          6.0979   -4.8687    4.4936 C.3       1 <0>        -0.1357
      4 C4          3.6003   -4.8857    4.5585 C.3       1 <0>         0.1407
      5 H1          3.5936   -4.6761    5.6383 H         1 <0>         0.1044
      6 C5          2.3498   -4.3340    3.9237 C.2       1 <0>         0.5173
      7 O1          1.8332   -4.9176    2.9945 O.2       1 <0>        -0.5245
      8 N1          1.8054   -3.1922    4.3888 N.am      1 <0>        -0.7171
      9 C6          0.6497   -2.6018    3.7090 C.3       1 <0>         0.1446
     10 H2          0.7741   -2.7776    2.6303 H         1 <0>         0.1081
     11 C7         -0.6343   -3.2526    4.2275 C.3       1 <0>        -0.0917
     12 C8         -0.6485   -4.7102    3.8450 C.ar      1 <0>        -0.0463
     13 C9         -0.0944   -5.6523    4.7098 C.ar      1 <0>        -0.0865
     14 C10        -0.0906   -6.9762    4.3944 C.ar      1 <0>        -0.1096
     15 C11        -0.6534   -7.4032    3.1796 C.ar      1 <0>        -0.0460
     16 C12        -0.6686   -8.7617    2.8197 C.ar      1 <0>        -0.1087
     17 C13        -1.2228   -9.1383    1.6351 C.ar      1 <0>        -0.1218
     18 C14        -1.7772   -8.1962    0.7705 C.ar      1 <0>        -0.1237
     19 C15        -1.7809   -6.8723    1.0859 C.ar      1 <0>        -0.1033
     20 C16        -1.2173   -6.4453    2.3004 C.ar      1 <0>        -0.0375
     21 C17        -1.2072   -5.0874    2.6628 C.ar      1 <0>        -0.0950
     22 C18         0.6082   -1.1206    3.9834 C.2       1 <0>         0.5156
     23 O2          1.4602   -0.6085    4.6783 O.2       1 <0>        -0.5409
     24 N2         -0.3756   -0.3649    3.4566 N.am      1 <0>        -0.7041
     25 C19        -0.4159    1.0751    3.7233 C.3       1 <0>         0.1124
     26 H3          0.6234    1.4298    3.7876 H         1 <0>         0.0904
     27 C20        -1.1687    1.7820    2.5944 C.3       1 <0>        -0.0918
     28 C21        -0.3857    1.6340    1.2883 C.3       1 <0>        -0.0765
     29 S1         -1.2784    2.4721   -0.0501 S.3       1 <0>        -0.2707
     30 C22        -0.2327    2.2068   -1.5084 C.3       1 <0>        -0.1238
     31 C23        -1.1220    1.3241    5.0311 C.2       1 <0>         0.4603
     32 O3         -1.5480    0.3943    5.6743 O.co2     1 <0>        -0.6255
     33 O4         -1.2779    2.5790    5.4813 O.co2     1 <0>        -0.7622
     34 N3          3.6318   -6.3408    4.3912 N.am      1 <0>        -0.7235
     35 C24         4.3286   -7.1036    5.2567 C.2       1 <0>         0.5227
     36 O5          4.9295   -6.5855    6.1739 O.2       1 <0>        -0.5086
     37 C25         4.3610   -8.6004    5.0847 C.3       1 <0>         0.0928
     38 H4          4.4815   -8.8493    4.0200 H         1 <0>         0.0715
     39 C26         3.0733   -9.2063    5.6466 C.3       1 <0>        -0.0495
     40 S2          3.1123  -11.0081    5.4395 S.3       1 <0>        -0.1618
     41 N4          5.5165   -9.1513    5.8053 N.3       1 <0>        -0.8066
     42 H5          3.9111   -2.3229    3.6709 H         1 <0>         0.0657
     43 H6          5.7067   -2.3107    3.6243 H         1 <0>         0.0603
     44 H7          4.8503   -2.5415    5.1864 H         1 <0>         0.0623
     45 H8          4.8019   -4.4814    2.8074 H         1 <0>         0.0745
     46 H9          6.1012   -5.9571    4.3345 H         1 <0>         0.0503
     47 H10         6.1244   -4.6557    5.5725 H         1 <0>         0.0679
     48 H11         6.9808   -4.4248    4.0104 H         1 <0>         0.0491
     49 H12         2.2287   -2.7036    5.2788 H         1 <0>         0.4346
     50 H13        -0.6756   -3.1605    5.3229 H         1 <0>         0.0878
     51 H14        -1.5057   -2.7486    3.7841 H         1 <0>         0.0906
     52 H15         0.3388   -5.3268    5.6440 H         1 <0>         0.1112
     53 H16         0.3424   -7.6949    5.0744 H         1 <0>         0.1108
     54 H17        -0.2430   -9.5029    3.4798 H         1 <0>         0.1160
     55 H18        -1.2334  -10.1829    1.3611 H         1 <0>         0.1166
     56 H19        -2.2106   -8.5216   -0.1637 H         1 <0>         0.1177
     57 H20        -2.2141   -6.1535    0.4061 H         1 <0>         0.1230
     58 H21        -1.6372   -4.3468    2.0048 H         1 <0>         0.1215
     59 H22        -1.1483   -0.8294    2.8264 H         1 <0>         0.4096
     60 H23        -2.1645    1.3295    2.4782 H         1 <0>         0.0734
     61 H24        -1.2771    2.8492    2.8380 H         1 <0>         0.0980
     62 H25         0.6101    2.0866    1.4045 H         1 <0>         0.0799
     63 H26        -0.2772    0.5668    1.0447 H         1 <0>         0.0782
     64 H27        -0.6964    2.6848   -2.3839 H         1 <0>         0.0990
     65 H28        -0.1275    1.1275   -1.6927 H         1 <0>         0.0735
     66 H29         0.7599    2.6473   -1.3329 H         1 <0>         0.0742
     67 H30         3.0868   -6.8107    3.5592 H         1 <0>         0.4304
     68 H31         2.9892   -8.9618    6.7158 H         1 <0>         0.0970
     69 H32         2.2080   -8.7938    5.1070 H         1 <0>         0.0908
     70 H33         2.2665  -11.6200    5.7862 H         1 <0>        -0.0058
     71 H34         5.5401  -10.2439    5.6797 H         1 <0>         0.3567
     72 H35         6.4423   -8.7157    5.4013 H         1 <0>         0.3474
@<TRIPOS>BOND
     1    1    2 1
     2    1   42 1
     3    1   43 1
     4    1   44 1
     5    2    3 1
     6    2    4 1
     7    2   45 1
     8    3   46 1
     9    3   47 1
    10    3   48 1
    11    4    5 1
    12    4    6 1
    13    4   34 1
    14    6    7 2
    15    6    8 am
    16    8    9 1
    17    8   49 1
    18    9   10 1
    19    9   11 1
    20    9   22 1
    21   11   12 1
    22   11   50 1
    23   11   51 1
    24   12   21 ar
    25   12   13 ar
    26   13   14 ar
    27   13   52 1
    28   14   15 ar
    29   14   53 1
    30   15   20 ar
    31   15   16 ar
    32   16   17 ar
    33   16   54 1
    34   17   18 ar
    35   17   55 1
    36   18   19 ar
    37   18   56 1
    38   19   20 ar
    39   19   57 1
    40   20   21 ar
    41   21   58 1
    42   22   23 2
    43   22   24 am
    44   24   25 1
    45   24   59 1
    46   25   26 1
    47   25   27 1
    48   25   31 1
    49   27   28 1
    50   27   60 1
    51   27   61 1
    52   28   29 1
    53   28   62 1
    54   28   63 1
    55   29   30 1
    56   30   64 1
    57   30   65 1
    58   30   66 1
    59   31   32 2
    60   31   33 1
    61   34   35 am
    62   34   67 1
    63   35   36 2
    64   35   37 1
    65   37   38 1
    66   37   39 1
    67   37   41 1
    68   39   40 1
    69   39   68 1
    70   39   69 1
    71   40   70 1
    72   41   71 1
    73   41   72 1
