@<TRIPOS>MOLECULE
ZINC04099172
   60    60     0     0     0
SMALL
USER_CHARGES

@<TRIPOS>ATOM
      1 C1          0.7635   -2.5428   -0.4490 C.3       1 <0>        -0.1482
      2 C2          0.3317   -1.7262   -1.6686 C.3       1 <0>        -0.1162
      3 C3         -1.1496   -1.9811   -1.9546 C.3       1 <0>        -0.1360
      4 C4          0.5483   -0.2377   -1.3885 C.3       1 <0>        -0.1122
      5 C5          2.0469    0.0454   -1.2663 C.3       1 <0>         0.1290
      6 H1          2.4803   -0.6111   -0.5118 H         1 <0>         0.1097
      7 C6          2.7152   -0.2046   -2.5936 C.2       1 <0>         0.5099
      8 O1          2.9943    0.7278   -3.3172 O.2       1 <0>        -0.5420
      9 N1          3.0029   -1.4644   -2.9765 N.am      1 <0>        -0.6852
     10 C7          3.7474   -1.7014   -4.2158 C.3       1 <0>         0.0839
     11 H2          4.4785   -0.9056   -4.3582 H         1 <0>         0.0825
     12 C8          4.4694   -3.0474   -4.1275 C.3       1 <0>        -0.0784
     13 C9          5.5121   -2.9879   -3.0411 C.ar      1 <0>        -0.0667
     14 C10         6.7971   -2.5739   -3.3384 C.ar      1 <0>        -0.1170
     15 C11         7.7535   -2.5193   -2.3419 C.ar      1 <0>        -0.1184
     16 C12         7.4249   -2.8783   -1.0480 C.ar      1 <0>        -0.1327
     17 C13         6.1397   -3.2914   -0.7506 C.ar      1 <0>        -0.1178
     18 C14         5.1821   -3.3419   -1.7462 C.ar      1 <0>        -0.1180
     19 C15         2.7913   -1.7196   -5.3805 C.2       1 <0>         0.4944
     20 O2          3.1669   -1.3595   -6.4832 O.co2     1 <0>        -0.6922
     21 O3          1.6423   -2.0944   -5.2203 O.co2     1 <0>        -0.6855
     22 N2          2.2495    1.4420   -0.8729 N.am      1 <0>        -0.7106
     23 C16         2.2811    1.7767    0.4322 C.2       1 <0>         0.5061
     24 O4          2.2333    0.9121    1.2813 O.2       1 <0>        -0.5101
     25 C17         2.3760    3.2254    0.8365 C.3       1 <0>         0.1387
     26 H3          1.7468    3.8275    0.1810 H         1 <0>         0.1096
     27 C18         3.8281    3.6932    0.7207 C.3       1 <0>        -0.1195
     28 C19         3.9052    5.1936    1.0103 C.3       1 <0>        -0.0766
     29 S1          5.6268    5.7482    0.8729 S.3       1 <0>        -0.2588
     30 C20         5.5468    7.5228    1.2403 C.3       1 <0>        -0.1220
     31 N3          1.9233    3.3765    2.2216 N.am      1 <0>        -0.7297
     32 C21         2.5571    2.7195    3.2132 C.2       1 <0>         0.4931
     33 O5          3.5022    2.0033    2.9588 O.2       1 <0>        -0.5148
     34 H4          1.8386   -2.4377   -0.3035 H         1 <0>         0.0507
     35 H5          0.2400   -2.1795    0.4354 H         1 <0>         0.0544
     36 H6          0.5196   -3.5929   -0.6099 H         1 <0>         0.0566
     37 H7          0.9250   -2.0232   -2.5334 H         1 <0>         0.0990
     38 H8         -1.7429   -1.6840   -1.0898 H         1 <0>         0.0462
     39 H9         -1.4572   -1.3993   -2.8235 H         1 <0>         0.0564
     40 H10        -1.3039   -3.0415   -2.1542 H         1 <0>         0.0555
     41 H11         0.1330    0.3502   -2.2070 H         1 <0>         0.0711
     42 H12         0.0502    0.0330   -0.4575 H         1 <0>         0.0714
     43 H13         2.7169   -2.2142   -2.4316 H         1 <0>         0.3925
     44 H14         3.7486   -3.8319   -3.8967 H         1 <0>         0.0758
     45 H15         4.9503   -3.2650   -5.0812 H         1 <0>         0.0882
     46 H16         7.0538   -2.2935   -4.3493 H         1 <0>         0.1223
     47 H17         8.7577   -2.1966   -2.5742 H         1 <0>         0.1177
     48 H18         8.1724   -2.8363   -0.2696 H         1 <0>         0.1159
     49 H19         5.8831   -3.5721    0.2602 H         1 <0>         0.1176
     50 H20         4.1770   -3.6611   -1.5131 H         1 <0>         0.1163
     51 H21         2.3608    2.1259   -1.5518 H         1 <0>         0.4085
     52 H22         4.4426    3.1522    1.4402 H         1 <0>         0.1039
     53 H23         4.1931    3.4986   -0.2878 H         1 <0>         0.0871
     54 H24         3.2906    5.7346    0.2908 H         1 <0>         0.0813
     55 H25         3.5402    5.3881    2.0188 H         1 <0>         0.0812
     56 H26         4.8978    8.0149    0.5159 H         1 <0>         0.0756
     57 H27         5.1473    7.6685    2.2439 H         1 <0>         0.0741
     58 H28         6.5473    7.9514    1.1817 H         1 <0>         0.1012
     59 H29         1.1674    3.9493    2.4251 H         1 <0>         0.4041
     60 H30         2.2234    2.8309    4.2343 H         1 <0>         0.1269
@<TRIPOS>BOND
     1    1    2 1
     2    1   34 1
     3    1   35 1
     4    1   36 1
     5    2    3 1
     6    2    4 1
     7    2   37 1
     8    3   38 1
     9    3   39 1
    10    3   40 1
    11    4    5 1
    12    4   41 1
    13    4   42 1
    14    5    6 1
    15    5    7 1
    16    5   22 1
    17    7    8 2
    18    7    9 am
    19    9   10 1
    20    9   43 1
    21   10   11 1
    22   10   12 1
    23   10   19 1
    24   12   13 1
    25   12   44 1
    26   12   45 1
    27   13   18 ar
    28   13   14 ar
    29   14   15 ar
    30   14   46 1
    31   15   16 ar
    32   15   47 1
    33   16   17 ar
    34   16   48 1
    35   17   18 ar
    36   17   49 1
    37   18   50 1
    38   19   20 2
    39   19   21 1
    40   22   23 am
    41   22   51 1
    42   23   24 2
    43   23   25 1
    44   25   26 1
    45   25   27 1
    46   25   31 1
    47   27   28 1
    48   27   52 1
    49   27   53 1
    50   28   29 1
    51   28   54 1
    52   28   55 1
    53   29   30 1
    54   30   56 1
    55   30   57 1
    56   30   58 1
    57   31   32 am
    58   31   59 1
    59   32   33 2
    60   32   60 1
@<TRIPOS>MOLECULE
ZINC25972599
   75    76     0     0     0
SMALL
USER_CHARGES

@<TRIPOS>ATOM
      1 C1         -0.0187    1.5258    0.0104 C.3       1 <0>        -0.1468
      2 C2          0.0021   -0.0041    0.0020 C.3       1 <0>        -0.0904
      3 C3          0.7421   -0.5109    1.2415 C.3       1 <0>        -0.1379
      4 C4         -1.4333   -0.5336    0.0129 C.3       1 <0>        -0.1199
      5 C5         -1.4157   -2.0577   -0.1212 C.3       1 <0>         0.1308
      6 H1         -0.7891   -2.4841    0.6622 H         1 <0>         0.1122
      7 C6         -2.8192   -2.5900    0.0125 C.2       1 <0>         0.5143
      8 O1         -3.3197   -3.2157   -0.8979 O.2       1 <0>        -0.5429
      9 N1         -3.5181   -2.3707    1.1439 N.am      1 <0>        -0.6841
     10 C7         -4.8824   -2.8882    1.2739 C.3       1 <0>         0.0849
     11 H2         -4.9577   -3.8471    0.7611 H         1 <0>         0.0843
     12 C8         -5.2184   -3.0741    2.7549 C.3       1 <0>        -0.0766
     13 C9         -4.3299   -4.1406    3.3416 C.ar      1 <0>        -0.0654
     14 C10        -4.7297   -5.4637    3.3173 C.ar      1 <0>        -0.1164
     15 C11        -3.9147   -6.4420    3.8554 C.ar      1 <0>        -0.1185
     16 C12        -2.6997   -6.0973    4.4174 C.ar      1 <0>        -0.1343
     17 C13        -2.2995   -4.7743    4.4409 C.ar      1 <0>        -0.1195
     18 C14        -3.1126   -3.7965    3.8989 C.ar      1 <0>        -0.1186
     19 C15        -5.8509   -1.9117    0.6578 C.2       1 <0>         0.4914
     20 O2         -5.4396   -0.8792    0.1566 O.co2     1 <0>        -0.6812
     21 O3         -7.0458   -2.1542    0.6606 O.co2     1 <0>        -0.6955
     22 N2         -0.8765   -2.4263   -1.4325 N.am      1 <0>        -0.6966
     23 C16         0.4560   -2.5245   -1.6099 C.2       1 <0>         0.5152
     24 O4          1.2086   -2.3077   -0.6839 O.2       1 <0>        -0.5279
     25 C17         1.0106   -2.9037   -2.9588 C.3       1 <0>         0.1552
     26 H3          0.6999   -2.1669   -3.6996 H         1 <0>         0.1184
     27 C18         0.4819   -4.2828   -3.3583 C.3       1 <0>        -0.1142
     28 C19         0.9434   -4.6140   -4.7790 C.3       1 <0>        -0.0662
     29 S1          0.3166   -6.2490   -5.2526 S.3       1 <0>        -0.2772
     30 C20         0.9431   -6.4878   -6.9381 C.3       1 <0>        -0.1156
     31 N3          2.4736   -2.9421   -2.8921 N.am      1 <0>        -0.7246
     32 C21         3.2043   -2.7558   -4.0091 C.2       1 <0>         0.7083
     33 O5          2.6493   -2.5559   -5.0723 O.2       1 <0>        -0.5872
     34 N4          4.5502   -2.7912   -3.9477 N.am      1 <0>        -0.7414
     35 C22         5.3445   -2.5887   -5.1619 C.3       1 <0>         0.1821
     36 C23         6.8104   -2.6757   -4.8236 C.ar      1 <0>        -0.1095
     37 C24         7.5028   -1.5382   -4.4525 C.ar      1 <0>        -0.0987
     38 C25         8.8475   -1.6180   -4.1422 C.ar      1 <0>        -0.1223
     39 C26         9.4997   -2.8353   -4.2024 C.ar      1 <0>        -0.1122
     40 C27         8.8071   -3.9729   -4.5726 C.ar      1 <0>        -0.1227
     41 C28         7.4614   -3.8939   -4.8788 C.ar      1 <0>        -0.0993
     42 H4          1.0039    1.9031    0.0027 H         1 <0>         0.0491
     43 H5         -0.5459    1.8868   -0.8726 H         1 <0>         0.0512
     44 H6         -0.5289    1.8773    0.9072 H         1 <0>         0.0534
     45 H7          0.5123   -0.3556   -0.8948 H         1 <0>         0.0732
     46 H8          0.2319   -0.1594    2.1383 H         1 <0>         0.0416
     47 H9          0.7568   -1.6008    1.2356 H         1 <0>         0.0712
     48 H10         1.7647   -0.1336    1.2338 H         1 <0>         0.0450
     49 H11        -1.9156   -0.2570    0.9504 H         1 <0>         0.0790
     50 H12        -1.9862   -0.1019   -0.8214 H         1 <0>         0.0757
     51 H13        -3.1177   -1.8703    1.8720 H         1 <0>         0.3896
     52 H14        -5.0574   -2.1352    3.2846 H         1 <0>         0.0714
     53 H15        -6.2615   -3.3740    2.8560 H         1 <0>         0.0943
     54 H16        -5.6790   -5.7330    2.8782 H         1 <0>         0.1226
     55 H17        -4.2274   -7.4755    3.8371 H         1 <0>         0.1175
     56 H18        -2.0633   -6.8615    4.8385 H         1 <0>         0.1152
     57 H19        -1.3504   -4.5050    4.8803 H         1 <0>         0.1170
     58 H20        -2.7983   -2.7634    3.9139 H         1 <0>         0.1169
     59 H21        -1.4784   -2.5997   -2.1731 H         1 <0>         0.4130
     60 H22         0.8659   -5.0332   -2.6673 H         1 <0>         0.0808
     61 H23        -0.6074   -4.2788   -3.3218 H         1 <0>         0.0924
     62 H24         0.5595   -3.8635   -5.4700 H         1 <0>         0.0893
     63 H25         2.0328   -4.6179   -4.8155 H         1 <0>         0.0856
     64 H26         0.5591   -5.6980   -7.5838 H         1 <0>         0.0759
     65 H27         2.0325   -6.4524   -6.9293 H         1 <0>         0.0723
     66 H28         0.6141   -7.4566   -7.3142 H         1 <0>         0.0987
     67 H29         2.9164   -3.1016   -2.0439 H         1 <0>         0.4070
     68 H30         4.9930   -2.9507   -3.0995 H         1 <0>         0.3987
     69 H31         5.0939   -3.3579   -5.8924 H         1 <0>         0.0740
     70 H32         5.1256   -1.6060   -5.5796 H         1 <0>         0.0756
     71 H33         6.9932   -0.5871   -4.4054 H         1 <0>         0.1247
     72 H34         9.3885   -0.7292   -3.8529 H         1 <0>         0.1240
     73 H35        10.5504   -2.8975   -3.9606 H         1 <0>         0.1226
     74 H36         9.3168   -4.9239   -4.6200 H         1 <0>         0.1237
     75 H37         6.9195   -4.7833   -5.1644 H         1 <0>         0.1239
@<TRIPOS>BOND
     1    1    2 1
     2    1   42 1
     3    1   43 1
     4    1   44 1
     5    2    3 1
     6    2    4 1
     7    2   45 1
     8    3   46 1
     9    3   47 1
    10    3   48 1
    11    4    5 1
    12    4   49 1
    13    4   50 1
    14    5    6 1
    15    5    7 1
    16    5   22 1
    17    7    8 2
    18    7    9 am
    19    9   10 1
    20    9   51 1
    21   10   11 1
    22   10   12 1
    23   10   19 1
    24   12   13 1
    25   12   52 1
    26   12   53 1
    27   13   18 ar
    28   13   14 ar
    29   14   15 ar
    30   14   54 1
    31   15   16 ar
    32   15   55 1
    33   16   17 ar
    34   16   56 1
    35   17   18 ar
    36   17   57 1
    37   18   58 1
    38   19   20 2
    39   19   21 1
    40   22   23 am
    41   22   59 1
    42   23   24 2
    43   23   25 1
    44   25   26 1
    45   25   27 1
    46   25   31 1
    47   27   28 1
    48   27   60 1
    49   27   61 1
    50   28   29 1
    51   28   62 1
    52   28   63 1
    53   29   30 1
    54   30   64 1
    55   30   65 1
    56   30   66 1
    57   31   32 am
    58   31   67 1
    59   32   33 2
    60   32   34 am
    61   34   35 1
    62   34   68 1
    63   35   36 1
    64   35   69 1
    65   35   70 1
    66   36   41 ar
    67   36   37 ar
    68   37   38 ar
    69   37   71 1
    70   38   39 ar
    71   38   72 1
    72   39   40 ar
    73   39   73 1
    74   40   41 ar
    75   40   74 1
    76   41   75 1
@<TRIPOS>MOLECULE
ZINC25973342
   76    77     0     0     0
SMALL
USER_CHARGES

@<TRIPOS>ATOM
      1 C1         -0.4661   -2.5464   -0.3722 C.3       1 <0>        -0.1499
      2 C2         -1.3220   -1.8027    0.6551 C.3       1 <0>        -0.1144
      3 C3         -0.7611   -2.0456    2.0577 C.3       1 <0>        -0.1371
      4 C4         -1.2987   -0.3039    0.3490 C.3       1 <0>        -0.1133
      5 C5         -1.9877   -0.0465   -0.9926 C.3       1 <0>         0.1265
      6 H1         -1.5178   -0.6552   -1.7651 H         1 <0>         0.1116
      7 C6         -3.4466   -0.4091   -0.8857 C.2       1 <0>         0.5156
      8 O1         -4.2792    0.4618   -0.7470 O.2       1 <0>        -0.5399
      9 N1         -3.8260   -1.7010   -0.9443 N.am      1 <0>        -0.6851
     10 C7         -5.2495   -2.0473   -0.9414 C.3       1 <0>         0.0830
     11 H2         -5.8094   -1.2871   -1.4861 H         1 <0>         0.0831
     12 C8         -5.4451   -3.4063   -1.6163 C.3       1 <0>        -0.0771
     13 C9         -5.0625   -3.3049   -3.0703 C.ar      1 <0>        -0.0657
     14 C10        -6.0117   -2.9539   -4.0120 C.ar      1 <0>        -0.1164
     15 C11        -5.6608   -2.8608   -5.3458 C.ar      1 <0>        -0.1181
     16 C12        -4.3604   -3.1182   -5.7379 C.ar      1 <0>        -0.1340
     17 C13        -3.4110   -3.4683   -4.7962 C.ar      1 <0>        -0.1189
     18 C14        -3.7610   -3.5572   -3.4618 C.ar      1 <0>        -0.1192
     19 C15        -5.7469   -2.1157    0.4795 C.2       1 <0>         0.4921
     20 O2         -4.9831   -1.8957    1.4041 O.co2     1 <0>        -0.6784
     21 O3         -6.9131   -2.3912    0.7046 O.co2     1 <0>        -0.6961
     22 N2         -1.8610    1.3703   -1.3428 N.am      1 <0>        -0.6997
     23 C16        -0.7924    1.7982   -2.0439 C.2       1 <0>         0.5179
     24 O4          0.0177    0.9988   -2.4628 O.2       1 <0>        -0.5363
     25 C17        -0.6042    3.2700   -2.3072 C.3       1 <0>         0.1548
     26 H3         -0.5271    3.8019   -1.3588 H         1 <0>         0.1227
     27 C18        -1.8015    3.8043   -3.0957 C.3       1 <0>        -0.1157
     28 C19        -1.6717    5.3204   -3.2553 C.3       1 <0>        -0.0680
     29 S1         -3.0913    5.9538   -4.1901 S.3       1 <0>        -0.2754
     30 C20        -2.7892    7.7397   -4.2903 C.3       1 <0>        -0.1155
     31 N3          0.6218    3.4745   -3.0827 N.am      1 <0>        -0.7208
     32 C21         1.2706    4.6541   -3.0190 C.2       1 <0>         0.7083
     33 O5          0.8385    5.5486   -2.3179 O.2       1 <0>        -0.5701
     34 N4          2.3985    4.8422   -3.7325 N.am      1 <0>        -0.6836
     35 C22         3.1298    6.0290   -3.5874 C.ar      1 <0>         0.1328
     36 C23         3.1894    6.6614   -2.3529 C.ar      1 <0>        -0.0780
     37 C24         3.9105    7.8304   -2.2104 C.ar      1 <0>        -0.1304
     38 C25         4.5752    8.3729   -3.3004 C.ar      1 <0>         0.1089
     39 C26         4.5156    7.7418   -4.5343 C.ar      1 <0>        -0.1884
     40 C27         3.7995    6.5696   -4.6767 C.ar      1 <0>        -0.1078
     41 O6          5.2851    9.5241   -3.1595 O.3       1 <0>        -0.3184
     42 C28         5.9446   10.0262   -4.3235 C.3       1 <0>         0.0274
     43 H4         -0.4050   -3.6000   -0.0997 H         1 <0>         0.0566
     44 H5         -0.9191   -2.4520   -1.3591 H         1 <0>         0.0503
     45 H6          0.5356   -2.1170   -0.3897 H         1 <0>         0.0555
     46 H7         -2.3478   -2.1678    0.6058 H         1 <0>         0.0988
     47 H8          0.2648   -1.6806    2.1071 H         1 <0>         0.0469
     48 H9         -1.3708   -1.5158    2.7896 H         1 <0>         0.0582
     49 H10        -0.7777   -3.1134    2.2758 H         1 <0>         0.0544
     50 H11        -1.8241    0.2361    1.1368 H         1 <0>         0.0751
     51 H12        -0.2658    0.0408    0.2990 H         1 <0>         0.0719
     52 H13        -3.1565   -2.4015   -0.9884 H         1 <0>         0.3904
     53 H14        -4.8161   -4.1494   -1.1260 H         1 <0>         0.0711
     54 H15        -6.4903   -3.7050   -1.5356 H         1 <0>         0.0950
     55 H16        -7.0277   -2.7528   -3.7056 H         1 <0>         0.1228
     56 H17        -6.4026   -2.5873   -6.0815 H         1 <0>         0.1176
     57 H18        -4.0864   -3.0462   -6.7801 H         1 <0>         0.1153
     58 H19        -2.3951   -3.6697   -5.1026 H         1 <0>         0.1170
     59 H20        -3.0183   -3.8271   -2.7256 H         1 <0>         0.1159
     60 H21        -2.5462    2.0005   -1.0702 H         1 <0>         0.4137
     61 H22        -1.8266    3.3362   -4.0797 H         1 <0>         0.0824
     62 H23        -2.7220    3.5729   -2.5597 H         1 <0>         0.0932
     63 H24        -1.6466    5.7885   -2.2712 H         1 <0>         0.0905
     64 H25        -0.7512    5.5518   -3.7912 H         1 <0>         0.0853
     65 H26        -2.7407    8.1570   -3.2845 H         1 <0>         0.0762
     66 H27        -1.8453    7.9203   -4.8045 H         1 <0>         0.0727
     67 H28        -3.6003    8.2150   -4.8421 H         1 <0>         0.0992
     68 H29         0.9665    2.7609   -3.6421 H         1 <0>         0.4089
     69 H30         2.7041    4.1562   -4.3464 H         1 <0>         0.4078
     70 H31         2.6717    6.2393   -1.5042 H         1 <0>         0.1441
     71 H32         3.9567    8.3227   -1.2502 H         1 <0>         0.1338
     72 H33         5.0330    8.1648   -5.3826 H         1 <0>         0.1307
     73 H34         3.7569    6.0759   -5.6363 H         1 <0>         0.1278
     74 H35         6.6572    9.2851   -4.6855 H         1 <0>         0.0547
     75 H36         5.2068   10.2302   -5.0996 H         1 <0>         0.0546
     76 H37         6.4727   10.9463   -4.0734 H         1 <0>         0.0989
@<TRIPOS>BOND
     1    1    2 1
     2    1   43 1
     3    1   44 1
     4    1   45 1
     5    2    3 1
     6    2    4 1
     7    2   46 1
     8    3   47 1
     9    3   48 1
    10    3   49 1
    11    4    5 1
    12    4   50 1
    13    4   51 1
    14    5    6 1
    15    5    7 1
    16    5   22 1
    17    7    8 2
    18    7    9 am
    19    9   10 1
    20    9   52 1
    21   10   11 1
    22   10   12 1
    23   10   19 1
    24   12   13 1
    25   12   53 1
    26   12   54 1
    27   13   18 ar
    28   13   14 ar
    29   14   15 ar
    30   14   55 1
    31   15   16 ar
    32   15   56 1
    33   16   17 ar
    34   16   57 1
    35   17   18 ar
    36   17   58 1
    37   18   59 1
    38   19   20 2
    39   19   21 1
    40   22   23 am
    41   22   60 1
    42   23   24 2
    43   23   25 1
    44   25   26 1
    45   25   27 1
    46   25   31 1
    47   27   28 1
    48   27   61 1
    49   27   62 1
    50   28   29 1
    51   28   63 1
    52   28   64 1
    53   29   30 1
    54   30   65 1
    55   30   66 1
    56   30   67 1
    57   31   32 am
    58   31   68 1
    59   32   33 2
    60   32   34 am
    61   34   35 1
    62   34   69 1
    63   35   40 ar
    64   35   36 ar
    65   36   37 ar
    66   36   70 1
    67   37   38 ar
    68   37   71 1
    69   38   39 ar
    70   38   41 1
    71   39   40 ar
    72   39   72 1
    73   40   73 1
    74   41   42 1
    75   42   74 1
    76   42   75 1
    77   42   76 1
