@<TRIPOS>MOLECULE
ZINC03874317
   33    35     0     0     0
SMALL
USER_CHARGES

@<TRIPOS>ATOM
      1 C1          2.0732    1.4062   -0.8308 C.ar      1 <0>        -0.0859
      2 C2          1.1849    2.0922    0.0020 C.ar      1 <0>        -0.0258
      3 C3          0.3126    1.3779    0.8279 C.ar      1 <0>        -0.1033
      4 C4          0.3308   -0.0046    0.8189 C.ar      1 <0>         0.0938
      5 C5          1.2167   -0.6850   -0.0116 C.ar      1 <0>         0.0764
      6 C6          2.0867    0.0236   -0.8354 C.ar      1 <0>         0.0966
      7 O1          2.9505   -0.6446   -1.6458 O.3       1 <0>        -0.4863
      8 O2          1.2322   -2.0446   -0.0183 O.3       1 <0>        -0.4787
      9 O3         -0.5174   -0.7003    1.6227 O.3       1 <0>        -0.4812
     10 C7          1.1683    3.5667    0.0096 C.2       1 <0>         0.1312
     11 C8          2.3519    4.2356    0.1004 C.2       1 <0>        -0.0374
     12 C9          2.3527    5.6546    0.1089 C.2       1 <0>         0.4012
     13 O4          3.3933    6.2877    0.1887 O.2       1 <0>        -0.4464
     14 C10         1.0501    6.3331    0.0174 C.ar      1 <0>        -0.2690
     15 C11         0.9572    7.7312    0.0184 C.ar      1 <0>         0.2250
     16 C12        -0.2849    8.3310   -0.0697 C.ar      1 <0>        -0.2079
     17 C13        -1.4331    7.5508   -0.1581 C.ar      1 <0>         0.2004
     18 C14        -1.3490    6.1675   -0.1597 C.ar      1 <0>        -0.1855
     19 C15        -0.1119    5.5470   -0.0726 C.ar      1 <0>         0.1879
     20 O5         -0.0133    4.2011   -0.0789 O.3       1 <0>        -0.1974
     21 O6         -2.6481    8.1504   -0.2432 O.3       1 <0>        -0.4866
     22 O7          2.0786    8.4907    0.1056 O.3       1 <0>        -0.4725
     23 O8          3.5237    3.5485    0.1828 O.3       1 <0>        -0.4491
     24 H1          2.7453    1.9555   -1.4734 H         1 <0>         0.1463
     25 H2         -0.3747    1.9053    1.4728 H         1 <0>         0.1442
     26 H3          3.8063   -0.8341   -1.2374 H         1 <0>         0.3987
     27 H4          0.6310   -2.4417   -0.6632 H         1 <0>         0.3936
     28 H5         -1.3687   -0.9054    1.2124 H         1 <0>         0.3924
     29 H6         -0.3642    9.4081   -0.0694 H         1 <0>         0.1517
     30 H7         -2.2476    5.5724   -0.2288 H         1 <0>         0.1557
     31 H8         -2.9359    8.3293   -1.1489 H         1 <0>         0.4053
     32 H9          2.4687    8.7158   -0.7501 H         1 <0>         0.4040
     33 H10         4.3069    4.1124    0.2436 H         1 <0>         0.4089
@<TRIPOS>BOND
     1    1    6 ar
     2    1    2 ar
     3    1   24 1
     4    2    3 ar
     5    2   10 1
     6    3    4 ar
     7    3   25 1
     8    4    5 ar
     9    4    9 1
    10    5    6 ar
    11    5    8 1
    12    6    7 1
    13    7   26 1
    14    8   27 1
    15    9   28 1
    16   10   20 1
    17   10   11 2
    18   11   12 1
    19   11   23 1
    20   12   13 2
    21   12   14 1
    22   14   19 ar
    23   14   15 ar
    24   15   16 ar
    25   15   22 1
    26   16   17 ar
    27   16   29 1
    28   17   18 ar
    29   17   21 1
    30   18   19 ar
    31   18   30 1
    32   19   20 1
    33   21   31 1
    34   22   32 1
    35   23   33 1
@<TRIPOS>MOLECULE
ZINC03874317
   32    34     0     0     0
SMALL
USER_CHARGES

@<TRIPOS>ATOM
      1 C1          2.0771    1.4053   -0.8287 C.ar      1 <0>        -0.0905
      2 C2          1.1858    2.0921    0.0020 C.ar      1 <0>        -0.0015
      3 C3          0.3103    1.3773    0.8258 C.ar      1 <0>        -0.1070
      4 C4          0.3284   -0.0047    0.8166 C.ar      1 <0>         0.0918
      5 C5          1.2173   -0.6854   -0.0113 C.ar      1 <0>         0.0627
      6 C6          2.0900    0.0232   -0.8331 C.ar      1 <0>         0.0937
      7 O1          2.9560   -0.6454   -1.6409 O.3       1 <0>        -0.4882
      8 O2          1.2332   -2.0446   -0.0173 O.3       1 <0>        -0.4810
      9 O3         -0.5225   -0.7004    1.6174 O.3       1 <0>        -0.4835
     10 C7          1.1696    3.5647    0.0095 C.2       1 <0>         0.0969
     11 C8          2.3645    4.2546    0.1013 C.2       1 <0>         0.0017
     12 C9          2.3581    5.6552    0.1091 C.2       1 <0>         0.3347
     13 C10         1.1162    6.3213    0.0219 C.2       1 <0>        -0.3328
     14 C11         1.0516    7.7306    0.0250 C.2       1 <0>         0.2668
     15 C12        -0.1591    8.3550   -0.0605 C.2       1 <0>        -0.3747
     16 C13        -1.3400    7.6005   -0.1516 C.2       1 <0>         0.3649
     17 O4         -2.5185    8.2209   -0.2352 O.2       1 <0>        -0.6597
     18 C14        -1.2886    6.2026   -0.1556 C.2       1 <0>        -0.3140
     19 C15        -0.0694    5.5584   -0.0695 C.2       1 <0>         0.2123
     20 O5         -0.0059    4.2104   -0.0783 O.3       1 <0>        -0.2019
     21 O6          2.1901    8.4635    0.1132 O.3       1 <0>        -0.4481
     22 O7          3.5130    6.3524    0.1984 O.3       1 <0>        -0.5726
     23 O8          3.5409    3.5760    0.1840 O.3       1 <0>        -0.4646
     24 H1          2.7513    1.9542   -1.4694 H         1 <0>         0.1458
     25 H2         -0.3788    1.9047    1.4687 H         1 <0>         0.1447
     26 H3          3.8105   -0.8352   -1.2299 H         1 <0>         0.3943
     27 H4          0.6340   -2.4421   -0.6639 H         1 <0>         0.3880
     28 H5         -1.3725   -0.9053    1.2042 H         1 <0>         0.3891
     29 H6         -0.2092    9.4338   -0.0579 H         1 <0>         0.1182
     30 H7         -2.2003    5.6280   -0.2254 H         1 <0>         0.1230
     31 H8          2.0440    9.4194    0.1078 H         1 <0>         0.3850
     32 H9          4.3201    4.1455    0.2445 H         1 <0>         0.4068
@<TRIPOS>BOND
     1    1    6 ar
     2    1    2 ar
     3    1   24 1
     4    2    3 ar
     5    2   10 1
     6    3    4 ar
     7    3   25 1
     8    4    5 ar
     9    4    9 1
    10    5    6 ar
    11    5    8 1
    12    6    7 1
    13    7   26 1
    14    8   27 1
    15    9   28 1
    16   10   20 1
    17   10   11 2
    18   11   12 1
    19   11   23 1
    20   12   13 2
    21   12   22 1
    22   13   19 1
    23   13   14 1
    24   14   15 2
    25   14   21 1
    26   15   16 1
    27   15   29 1
    28   16   17 2
    29   16   18 1
    30   18   19 2
    31   18   30 1
    32   19   20 1
    33   21   31 1
    34   23   32 1
