@<TRIPOS>MOLECULE
ZINC02562358
   25    25     0     0     0
SMALL
USER_CHARGES

@<TRIPOS>ATOM
      1 C1         -0.0178    1.4636    0.0101 C.3       1 <0>        -0.0435
      2 C2          1.4163    1.9970   -0.0007 C.3       1 <0>         0.0576
      3 H1          1.9282    1.6467   -0.8971 H         1 <0>         0.0953
      4 C3          2.1538    1.4881    1.2412 C.3       1 <0>         0.0740
      5 H2          1.6725    1.8801    2.1371 H         1 <0>         0.0897
      6 C4          2.1040   -0.0424    1.2610 C.3       1 <0>         0.1002
      7 H3          2.5785   -0.4103    2.1707 H         1 <0>         0.1194
      8 C5          0.6443   -0.5002    1.2251 C.3       1 <0>         0.0442
      9 H4          0.1192   -0.1073    2.0957 H         1 <0>         0.1594
     10 N1          0.0021   -0.0041    0.0020 N.4       1 <0>        -0.4939
     11 C6          0.5894   -2.0291    1.2443 C.3       1 <0>         0.0552
     12 O1         -0.7718   -2.4558    1.3282 O.3       1 <0>        -0.5823
     13 O2          2.7946   -0.5571    0.1208 O.3       1 <0>        -0.5657
     14 O3          3.5145    1.9229    1.2006 O.3       1 <0>        -0.5491
     15 O4          1.3941    3.4258    0.0085 O.3       1 <0>        -0.5405
     16 H5         -0.5288    1.8147    0.9066 H         1 <0>         0.1407
     17 H6         -0.5458    1.8242   -0.8727 H         1 <0>         0.1416
     18 H7         -0.9439   -0.3520   -0.0448 H         1 <0>         0.4412
     19 H8          1.0371   -2.4202    0.3306 H         1 <0>         0.0847
     20 H9          1.1409   -2.4017    2.1075 H         1 <0>         0.0978
     21 H10        -0.8826   -3.4163    1.3447 H         1 <0>         0.4135
     22 H11         3.7266   -0.3029    0.0776 H         1 <0>         0.4181
     23 H12         3.6198    2.8839    1.1807 H         1 <0>         0.4075
     24 H13         0.9388    3.8170   -0.7496 H         1 <0>         0.4003
     25 H14         0.5177   -0.3280   -0.8025 H         1 <0>         0.4344
@<TRIPOS>BOND
     1    1   10 1
     2    1    2 1
     3    1   16 1
     4    1   17 1
     5    2    3 1
     6    2    4 1
     7    2   15 1
     8    4    5 1
     9    4    6 1
    10    4   14 1
    11    6    7 1
    12    6    8 1
    13    6   13 1
    14    8    9 1
    15    8   10 1
    16    8   11 1
    17   10   18 1
    18   10   25 1
    19   11   12 1
    20   11   19 1
    21   11   20 1
    22   12   21 1
    23   13   22 1
    24   14   23 1
    25   15   24 1
@<TRIPOS>MOLECULE
ZINC26573752
   26    26     0     0     0
SMALL
USER_CHARGES
(3R,4R,5R,6S)-2-hydrazino-6-methyl-3,4,5,6-tetrahydropyridine-3,4,5-triol
@<TRIPOS>ATOM
      1 C1         -2.1344    4.9425   -0.9175 C.3       1 <0>        -0.1677
      2 C2         -2.3495    3.7732    0.0456 C.3       1 <0>         0.1271
      3 H1         -2.4540    4.1216    1.0837 H         1 <0>         0.1321
      4 C3         -3.5961    2.9943   -0.3778 C.3       1 <0>         0.1061
      5 H2         -4.5111    3.5937   -0.2617 H         1 <0>         0.1143
      6 C4         -3.6534    1.6927    0.4329 C.3       1 <0>         0.0935
      7 H3         -3.6679    1.8782    1.5170 H         1 <0>         0.0928
      8 C5         -2.4667    0.8187    0.0121 C.3       1 <0>         0.1124
      9 H4         -2.6208    0.3726   -0.9815 H         1 <0>         0.1298
     10 C6         -1.2067    1.6346    0.0167 C.cat     1 <0>         0.5006
     11 N1         -1.1762    2.9101    0.0234 N.pl3     1 <0>        -0.5992
     12 N2         -0.0111    0.9658    0.0074 N.pl3     1 <0>        -0.5458
     13 N3          1.1625    1.6649   -0.0001 N.3       1 <0>        -0.5997
     14 O1         -2.3317   -0.2681    0.9300 O.3       1 <0>        -0.5637
     15 O2         -4.8772    1.0075    0.1591 O.3       1 <0>        -0.5813
     16 O3         -3.5227    2.6898   -1.7721 O.3       1 <0>        -0.5955
     17 H5         -3.0187    5.5966   -0.9034 H         1 <0>         0.1004
     18 H6         -1.9809    4.5554   -1.9356 H         1 <0>         0.0862
     19 H7         -1.2490    5.5161   -0.6059 H         1 <0>         0.0774
     20 H8          0.0039   -0.1341    0.0060 H         1 <0>         0.4595
     21 H9          2.0082    0.9615   -0.0070 H         1 <0>         0.4049
     22 H10         1.2057    2.2991   -0.8978 H         1 <0>         0.3535
     23 H11        -1.5298   -1.0083    0.7919 H         1 <0>         0.4241
     24 H12        -5.0935    0.0491    0.6538 H         1 <0>         0.4380
     25 H13        -4.3364    2.1300   -2.2564 H         1 <0>         0.4395
     26 H14        -0.2108    3.4372    0.0121 H         1 <0>         0.4608
@<TRIPOS>BOND
     1    1    2 1
     2    1   17 1
     3    1   18 1
     4    1   19 1
     5    2    3 1
     6    2   11 1
     7    2    4 1
     8    4    5 1
     9    4    6 1
    10    4   16 1
    11    6    7 1
    12    6    8 1
    13    6   15 1
    14    8    9 1
    15    8   10 1
    16    8   14 1
    17   10   11 2
    18   10   12 1
    19   11   26 1
    20   12   13 1
    21   12   20 1
    22   13   21 1
    23   13   22 1
    24   14   23 1
    25   15   24 1
    26   16   25 1
@<TRIPOS>MOLECULE
ZINC26574557
   20    20     0     0     0
SMALL
USER_CHARGES
(2S,3R,4R)-2-methylpyrrolidine-3,4-diol
@<TRIPOS>ATOM
      1 C1         -0.7746    1.6032   -1.2138 C.3       1 <0>        -0.1692
      2 C2         -0.0127    1.0858    0.0080 C.3       1 <0>         0.0420
      3 H1         -0.0408   -0.0138    0.0019 H         1 <0>         0.1487
      4 C3          1.4278    1.6301   -0.0028 C.3       1 <0>         0.1061
      5 H2          2.1960    0.8561   -0.1468 H         1 <0>         0.1082
      6 C4          1.5695    2.4238    1.3162 C.3       1 <0>         0.0609
      7 H3          1.5468    3.5186    1.2113 H         1 <0>         0.1031
      8 C5          0.4572    1.8162    2.2074 C.3       1 <0>        -0.0345
      9 N1         -0.6517    1.5742    1.2492 N.4       1 <0>        -0.5368
     10 O1          2.8569    2.2109    1.8987 O.3       1 <0>        -0.5868
     11 O2          1.6241    2.4916   -1.1259 O.3       1 <0>        -0.5910
     12 H4         -0.2913    1.2343   -2.1305 H         1 <0>         0.1092
     13 H5         -0.7666    2.7032   -1.2122 H         1 <0>         0.0865
     14 H6         -1.8137    1.2440   -1.1771 H         1 <0>         0.0793
     15 H7          0.8240    0.8880    2.6698 H         1 <0>         0.1447
     16 H8          0.1843    2.5348    2.9942 H         1 <0>         0.1402
     17 H9         -1.2047    2.5010    1.0367 H         1 <0>         0.4541
     18 H10         3.1210    2.7056    2.8450 H         1 <0>         0.4354
     19 H11         2.6014    2.9697   -1.2882 H         1 <0>         0.4405
     20 H12        -1.3472    0.8110    1.6284 H         1 <0>         0.4595
@<TRIPOS>BOND
     1    1    2 1
     2    1   12 1
     3    1   13 1
     4    1   14 1
     5    2    3 1
     6    2    9 1
     7    2    4 1
     8    4    5 1
     9    4    6 1
    10    4   11 1
    11    6    7 1
    12    6    8 1
    13    6   10 1
    14    8    9 1
    15    8   15 1
    16    8   16 1
    17    9   17 1
    18    9   20 1
    19   10   18 1
    20   11   19 1
@<TRIPOS>MOLECULE
ZINC36351283
   20    20     0     0     0
SMALL
USER_CHARGES

@<TRIPOS>ATOM
      1 C1         -0.0187    1.5258    0.0104 C.3       1 <0>        -0.1780
      2 C2          0.0021   -0.0041    0.0020 C.3       1 <0>         0.0331
      3 H1         -1.0143   -0.3974    0.0221 H         1 <0>         0.1557
      4 C3          0.7567   -0.5255   -1.2397 C.3       1 <0>         0.0961
      5 H2          1.4507    0.2309   -1.6063 H         1 <0>         0.1037
      6 C4          1.5285   -1.7672   -0.7477 C.3       1 <0>         0.0491
      7 H3          2.6013   -1.6203   -0.8727 H         1 <0>         0.1011
      8 C5          1.1752   -1.8916    0.7500 C.3       1 <0>        -0.0385
      9 N1          0.7795   -0.5181    1.1589 N.4       1 <0>        -0.5110
     10 O1          1.1016   -2.9309   -1.4587 O.3       1 <0>        -0.5315
     11 O2         -0.1684   -0.8883   -2.2666 O.3       1 <0>        -0.5316
     12 H4          1.0039    1.9031    0.0027 H         1 <0>         0.0834
     13 H5         -0.5459    1.8868   -0.8726 H         1 <0>         0.1121
     14 H6         -0.5289    1.8773    0.9072 H         1 <0>         0.0888
     15 H7          0.3431   -2.5819    0.8883 H         1 <0>         0.1445
     16 H8          2.0438   -2.2228    1.3192 H         1 <0>         0.1426
     17 H9          1.5972    0.0518    1.3158 H         1 <0>         0.4324
     18 H10         1.5531   -3.7430   -1.1911 H         1 <0>         0.4001
     19 H11         0.2493   -1.2233   -3.0719 H         1 <0>         0.4079
     20 H12         0.2032   -0.5466    1.9867 H         1 <0>         0.4399
@<TRIPOS>BOND
     1    1    2 1
     2    1   12 1
     3    1   13 1
     4    1   14 1
     5    2    3 1
     6    2    9 1
     7    2    4 1
     8    4    5 1
     9    4    6 1
    10    4   11 1
    11    6    7 1
    12    6    8 1
    13    6   10 1
    14    8    9 1
    15    8   15 1
    16    8   16 1
    17    9   17 1
    18    9   20 1
    19   10   18 1
    20   11   19 1
@<TRIPOS>MOLECULE
ZINC02585424
   24    24     0     0     0
SMALL
USER_CHARGES
2-methylpiperidine-3,4,5-triol
@<TRIPOS>ATOM
      1 C1          1.4028    3.5817   -0.0124 C.3       1 <0>        -0.1803
      2 C2          1.4188    2.0518   -0.0005 C.3       1 <0>         0.0420
      3 H1          1.9403    1.7012    0.8902 H         1 <0>         0.1518
      4 C3         -0.0187    1.5270    0.0104 C.3       1 <0>         0.0985
      5 H2         -0.5279    1.8791    0.9076 H         1 <0>         0.1158
      6 C4          0.0021   -0.0041    0.0020 C.3       1 <0>         0.0713
      7 H3          0.4940   -0.3667    0.9046 H         1 <0>         0.0866
      8 C5          0.7710   -0.4895   -1.2299 C.3       1 <0>         0.0579
      9 H4          0.2572   -0.1595   -2.1329 H         1 <0>         0.0943
     10 C6          2.1856    0.0938   -1.2049 C.3       1 <0>        -0.0384
     11 O1          0.8431   -1.9166   -1.2156 O.3       1 <0>        -0.5414
     12 O2         -1.3375   -0.4996   -0.0437 O.3       1 <0>        -0.5499
     13 O3         -0.7085    2.0011   -1.1477 O.3       1 <0>        -0.5650
     14 H5          0.8895    3.9466    0.8772 H         1 <0>         0.1083
     15 H6          2.4266    3.9557   -0.0201 H         1 <0>         0.0858
     16 H7          0.8810    3.9327   -0.9027 H         1 <0>         0.0926
     17 H8          2.7034   -0.2477   -0.3086 H         1 <0>         0.1390
     18 H9          2.7310   -0.2382   -2.0883 H         1 <0>         0.1386
     19 H10         1.3177   -2.2940   -1.9688 H         1 <0>         0.3995
     20 H11        -1.3998   -1.4645   -0.0514 H         1 <0>         0.4060
     21 H12        -1.6267    1.7039   -1.2078 H         1 <0>         0.4154
     22 N1          2.1161    1.5675   -1.2071 N.4       1 <0>        -0.5080
     23 H13         3.0684    1.9510   -1.2242 H         1 <0>         0.4390
     24 H14         1.6059    1.8808   -2.0412 H         1 <0>         0.4404
@<TRIPOS>BOND
     1    1    2 1
     2    1   14 1
     3    1   15 1
     4    1   16 1
     5    2    3 1
     6    2    4 1
     7    2   22 1
     8    4    5 1
     9    4    6 1
    10    4   13 1
    11    6    7 1
    12    6    8 1
    13    6   12 1
    14    8    9 1
    15    8   10 1
    16    8   11 1
    17   10   17 1
    18   10   18 1
    19   10   22 1
    20   11   19 1
    21   12   20 1
    22   13   21 1
    23   22   23 1
    24   22   24 1
@<TRIPOS>MOLECULE
ZINC26574708
   23    23     0     0     0
SMALL
USER_CHARGES
(3S,4R,5R)-5-methylpiperidine-3,4-diol
@<TRIPOS>ATOM
      1 C1         -0.0493    1.0809   -2.4910 C.3       1 <0>        -0.1499
      2 C2         -0.7525    1.5926   -1.2322 C.3       1 <0>        -0.1022
      3 H1         -0.7535    2.6926   -1.2371 H         1 <0>         0.1048
      4 C3         -0.0127    1.0858    0.0080 C.3       1 <0>        -0.0009
      5 N1         -0.6996    1.5592    1.2165 N.4       1 <0>        -0.5279
      6 C4         -2.0706    1.0383    1.2868 C.3       1 <0>         0.0040
      7 C5         -2.8718    1.5436    0.0848 C.3       1 <0>         0.0666
      8 H2         -2.9820    2.6378    0.1081 H         1 <0>         0.0804
      9 C6         -2.1941    1.0772   -1.2067 C.3       1 <0>         0.0753
     10 H3         -2.7540    1.4033   -2.0956 H         1 <0>         0.0806
     11 O1         -2.1916   -0.3510   -1.2558 O.3       1 <0>        -0.5912
     12 O2         -4.2001    1.0198    0.1425 O.3       1 <0>        -0.5879
     13 H4          0.9863    1.4515   -2.5088 H         1 <0>         0.0692
     14 H5         -0.5835    1.4425   -3.3820 H         1 <0>         0.0745
     15 H6         -0.0451   -0.0191   -2.4872 H         1 <0>         0.0772
     16 H7          0.0021   -0.0141    0.0022 H         1 <0>         0.1365
     17 H8          1.0193    1.4664    0.0004 H         1 <0>         0.1357
     18 H9         -0.1497    1.2209    2.1071 H         1 <0>         0.4619
     19 H10        -2.0461   -0.0614    1.2745 H         1 <0>         0.1384
     20 H11        -2.5470    1.3840    2.2160 H         1 <0>         0.1376
     21 H12        -3.1428   -0.9033   -1.2463 H         1 <0>         0.4295
     22 H13        -4.9268    1.2756   -0.6427 H         1 <0>         0.4394
     23 H14        -0.7420    2.6583    1.2074 H         1 <0>         0.4482
@<TRIPOS>BOND
     1    1    2 1
     2    1   13 1
     3    1   14 1
     4    1   15 1
     5    2    3 1
     6    2    9 1
     7    2    4 1
     8    4    5 1
     9    4   16 1
    10    4   17 1
    11    5    6 1
    12    5   18 1
    13    5   23 1
    14    6    7 1
    15    6   19 1
    16    6   20 1
    17    7    8 1
    18    7    9 1
    19    7   12 1
    20    9   10 1
    21    9   11 1
    22   11   21 1
    23   12   22 1
@<TRIPOS>MOLECULE
ZINC26574710
   23    23     0     0     0
SMALL
USER_CHARGES
(3S,4R,5S)-5-methylpiperidine-3,4-diol
@<TRIPOS>ATOM
      1 C1         -0.0187    1.5258    0.0104 C.3       1 <0>        -0.1505
      2 C2          0.0021   -0.0041    0.0020 C.3       1 <0>        -0.1016
      3 H1          0.5163   -0.3565   -0.9043 H         1 <0>         0.1056
      4 C3          0.7421   -0.5118    1.2416 C.3       1 <0>         0.0023
      5 N1          0.7440   -1.9803    1.2448 N.4       1 <0>        -0.5336
      6 C4         -0.6230   -2.5129    1.3076 C.3       1 <0>         0.0081
      7 C5         -1.4038   -2.0649    0.0700 C.3       1 <0>         0.0602
      8 H2         -2.4195   -2.4872    0.0624 H         1 <0>         0.0965
      9 C6         -1.4341   -0.5349    0.0178 C.3       1 <0>         0.0800
     10 H3         -2.0095   -0.1148    0.8559 H         1 <0>         0.0743
     11 O1         -2.1130   -0.1108   -1.1659 O.3       1 <0>        -0.5865
     12 O2         -0.7662   -2.5698   -1.1050 O.3       1 <0>        -0.6043
     13 H4          1.0132    1.9066   -0.0010 H         1 <0>         0.0690
     14 H5         -0.5305    1.8805    0.9172 H         1 <0>         0.0640
     15 H6         -0.5538    1.8901   -0.8790 H         1 <0>         0.0837
     16 H7          1.7788   -0.1443    1.2259 H         1 <0>         0.1393
     17 H8          0.2364   -0.1442    2.1467 H         1 <0>         0.1283
     18 H9          1.2221   -2.3483    0.3250 H         1 <0>         0.4600
     19 H10        -0.5872   -3.6118    1.3400 H         1 <0>         0.1400
     20 H11        -1.1224   -2.1355    2.2121 H         1 <0>         0.1387
     21 H12        -3.1618   -0.3982   -1.3313 H         1 <0>         0.4258
     22 H13        -1.1870   -2.3491   -2.0971 H         1 <0>         0.4451
     23 H14         1.3029   -2.3444    2.1195 H         1 <0>         0.4556
@<TRIPOS>BOND
     1    1    2 1
     2    1   13 1
     3    1   14 1
     4    1   15 1
     5    2    3 1
     6    2    9 1
     7    2    4 1
     8    4    5 1
     9    4   16 1
    10    4   17 1
    11    5    6 1
    12    5   18 1
    13    5   23 1
    14    6    7 1
    15    6   19 1
    16    6   20 1
    17    7    8 1
    18    7    9 1
    19    7   12 1
    20    9   10 1
    21    9   11 1
    22   11   21 1
    23   12   22 1
@<TRIPOS>MOLECULE
ZINC27635429
   23    23     0     0     0
SMALL
USER_CHARGES
(3R,4R,5R)-5-methylpiperidine-3,4-diol
@<TRIPOS>ATOM
      1 C1          3.4875    2.1334   -1.2794 C.3       1 <0>        -0.1511
      2 C2          2.0615    1.5788   -1.2797 C.3       1 <0>        -0.0976
      3 H1          1.5202    1.9659   -2.1556 H         1 <0>         0.1082
      4 C3          1.3439    2.0138    0.0000 C.3       1 <0>         0.0022
      5 N1         -0.0178    1.4642    0.0101 N.4       1 <0>        -0.5313
      6 C4          0.0021   -0.0041    0.0020 C.3       1 <0>         0.0115
      7 C5          0.6797   -0.4993   -1.2777 C.3       1 <0>         0.0627
      8 H2          0.6686   -1.5976   -1.3379 H         1 <0>         0.0967
      9 C6          2.1079    0.0494   -1.3384 C.3       1 <0>         0.0779
     10 H3          2.6370   -0.3027   -2.2362 H         1 <0>         0.0805
     11 O1          2.8588   -0.4497   -0.2298 O.3       1 <0>        -0.5938
     12 O2         -0.0558   -0.0423   -2.4145 O.3       1 <0>        -0.6066
     13 H4          3.4536    3.2321   -1.2372 H         1 <0>         0.0682
     14 H5          4.0040    1.8175   -2.1978 H         1 <0>         0.0733
     15 H6          4.0301    1.7494   -0.4030 H         1 <0>         0.0757
     16 H7          1.8960    1.6403    0.8750 H         1 <0>         0.1332
     17 H8          1.2958    3.1121    0.0382 H         1 <0>         0.1320
     18 H9         -0.5432    1.8030    0.9152 H         1 <0>         0.4542
     19 H10         0.5610   -0.3680    0.8767 H         1 <0>         0.1416
     20 H11        -1.0291   -0.3850    0.0413 H         1 <0>         0.1358
     21 H12         3.0004   -1.5333   -0.1047 H         1 <0>         0.4275
     22 H13         0.2822   -0.3013   -3.4287 H         1 <0>         0.4432
     23 H14        -0.5605    1.8127   -0.8810 H         1 <0>         0.4560
@<TRIPOS>BOND
     1    1    2 1
     2    1   13 1
     3    1   14 1
     4    1   15 1
     5    2    3 1
     6    2    9 1
     7    2    4 1
     8    4    5 1
     9    4   16 1
    10    4   17 1
    11    5    6 1
    12    5   18 1
    13    5   23 1
    14    6    7 1
    15    6   19 1
    16    6   20 1
    17    7    8 1
    18    7    9 1
    19    7   12 1
    20    9   10 1
    21    9   11 1
    22   11   21 1
    23   12   22 1
@<TRIPOS>MOLECULE
ZINC27635435
   23    23     0     0     0
SMALL
USER_CHARGES
(3R,4R,5S)-5-methylpiperidine-3,4-diol
@<TRIPOS>ATOM
      1 C1         -4.2940    0.9828    0.1466 C.3       1 <0>        -0.1498
      2 C2         -2.8718    1.5436    0.0848 C.3       1 <0>        -0.1064
      3 H1         -2.9125    2.6427    0.1047 H         1 <0>         0.1024
      4 C3         -2.0706    1.0383    1.2868 C.3       1 <0>        -0.0006
      5 N1         -0.6996    1.5592    1.2165 N.4       1 <0>        -0.5302
      6 C4         -0.0127    1.0858    0.0080 C.3       1 <0>         0.0004
      7 C5         -0.7525    1.5926   -1.2322 C.3       1 <0>         0.0648
      8 H2         -0.7196    2.6901   -1.2980 H         1 <0>         0.0839
      9 C6         -2.1941    1.0772   -1.2067 C.3       1 <0>         0.0777
     10 H3         -2.2322   -0.0174   -1.3088 H         1 <0>         0.0778
     11 O1         -2.9059    1.5938   -2.3330 O.3       1 <0>        -0.5834
     12 O2         -0.0957    1.1147   -2.4079 O.3       1 <0>        -0.5854
     13 H4         -4.7803    1.3181    1.0745 H         1 <0>         0.0707
     14 H5         -4.2558   -0.1164    0.1292 H         1 <0>         0.0658
     15 H6         -4.8683    1.3435   -0.7195 H         1 <0>         0.0851
     16 H7         -2.5466    1.3841    2.2162 H         1 <0>         0.1435
     17 H8         -2.0457   -0.0614    1.2748 H         1 <0>         0.1320
     18 H9         -0.7257    2.6587    1.1972 H         1 <0>         0.4527
     19 H10         1.0193    1.4664   -0.0000 H         1 <0>         0.1426
     20 H11         0.0021   -0.0141    0.0017 H         1 <0>         0.1356
     21 H12        -2.5643    1.3627   -3.3527 H         1 <0>         0.4218
     22 H13        -0.4865    1.3782   -3.4018 H         1 <0>         0.4356
     23 H14        -0.1334    1.2213    2.0969 H         1 <0>         0.4635
@<TRIPOS>BOND
     1    1    2 1
     2    1   13 1
     3    1   14 1
     4    1   15 1
     5    2    3 1
     6    2    9 1
     7    2    4 1
     8    4    5 1
     9    4   16 1
    10    4   17 1
    11    5    6 1
    12    5   18 1
    13    5   23 1
    14    6    7 1
    15    6   19 1
    16    6   20 1
    17    7    8 1
    18    7    9 1
    19    7   12 1
    20    9   10 1
    21    9   11 1
    22   11   21 1
    23   12   22 1
@<TRIPOS>MOLECULE
ZINC16123955
   31    31     0     0     0
SMALL
USER_CHARGES
N-[[(2R,3R,4R,5S)-3,4,5-trihydroxy-2-piperidyl]methyl]acetamide
@<TRIPOS>ATOM
      1 C1         -0.0184    1.5028    0.0103 C.3       1 <0>        -0.1782
      2 C2          0.0021   -0.0041    0.0020 C.2       1 <0>         0.5177
      3 O1         -0.5235   -0.6127   -0.9059 O.2       1 <0>        -0.5133
      4 N1          0.6044   -0.6754    1.0035 N.am      1 <0>        -0.7592
      5 C3          0.6242   -2.1402    0.9955 C.3       1 <0>         0.1012
      6 C4          1.3642   -2.6470    2.2350 C.3       1 <0>         0.0262
      7 H1          2.4099   -2.3438    2.1830 H         1 <0>         0.1595
      8 C5          1.2786   -4.1740    2.2912 C.3       1 <0>         0.1118
      9 H2          0.2327   -4.4786    2.3294 H         1 <0>         0.0933
     10 C6          2.0031   -4.6752    3.5436 C.3       1 <0>         0.0696
     11 H3          3.0577   -4.4054    3.4880 H         1 <0>         0.0901
     12 C7          1.3739   -4.0286    4.7808 C.3       1 <0>         0.0565
     13 H4          0.3296   -4.3309    4.8588 H         1 <0>         0.0926
     14 C8          1.4568   -2.5059    4.6524 C.3       1 <0>        -0.0421
     15 O2          2.0807   -4.4480    5.9498 O.3       1 <0>        -0.5358
     16 O3          1.8777   -6.0960    3.6313 O.3       1 <0>        -0.5476
     17 O4          1.8960   -4.7296    1.1284 O.3       1 <0>        -0.5365
     18 H5          1.0042    1.8801    0.0026 H         1 <0>         0.0957
     19 H6         -0.5455    1.8639   -0.8728 H         1 <0>         0.1034
     20 H7         -0.5286    1.8543    0.9071 H         1 <0>         0.0932
     21 H8          1.0247   -0.1886    1.7297 H         1 <0>         0.3935
     22 H9         -0.3983   -2.5175    1.0032 H         1 <0>         0.0984
     23 H10         1.1344   -2.4917    0.0987 H         1 <0>         0.1262
     24 H11         2.5020   -2.2031    4.5890 H         1 <0>         0.1446
     25 H12         0.9969   -2.0423    5.5251 H         1 <0>         0.1454
     26 H13         1.7372   -4.0735    6.7725 H         1 <0>         0.4014
     27 H14         2.3100   -6.4819    4.4054 H         1 <0>         0.4073
     28 H15         1.8783   -5.6959    1.0973 H         1 <0>         0.4158
     29 N2          0.7389   -2.0690    3.4398 N.4       1 <0>        -0.5075
     30 H16        -0.2384   -2.3787    3.4954 H         1 <0>         0.4375
     31 H17         0.7704   -1.0445    3.3789 H         1 <0>         0.4393
@<TRIPOS>BOND
     1    1    2 1
     2    1   18 1
     3    1   19 1
     4    1   20 1
     5    2    3 2
     6    2    4 am
     7    4    5 1
     8    4   21 1
     9    5    6 1
    10    5   22 1
    11    5   23 1
    12    6    7 1
    13    6    8 1
    14    6   29 1
    15    8    9 1
    16    8   10 1
    17    8   17 1
    18   10   11 1
    19   10   12 1
    20   10   16 1
    21   12   13 1
    22   12   14 1
    23   12   15 1
    24   14   24 1
    25   14   25 1
    26   14   29 1
    27   15   26 1
    28   16   27 1
    29   17   28 1
    30   29   30 1
    31   29   31 1
@<TRIPOS>MOLECULE
ZINC03995890
   25    25     0     0     0
SMALL
USER_CHARGES

@<TRIPOS>ATOM
      1 C1         -0.0178    1.4636    0.0101 C.3       1 <0>        -0.0442
      2 C2          1.4163    1.9970   -0.0007 C.3       1 <0>         0.0489
      3 H1          1.3994    3.0869    0.0035 H         1 <0>         0.1124
      4 C3          2.1299    1.5015   -1.2619 C.3       1 <0>         0.0737
      5 H2          1.6316    1.9031   -2.1442 H         1 <0>         0.0971
      6 C4          2.0795   -0.0286   -1.2972 C.3       1 <0>         0.1073
      7 H3          2.6221   -0.4305   -0.4415 H         1 <0>         0.0965
      8 C5          0.6208   -0.4870   -1.2383 C.3       1 <0>         0.0385
      9 H4          0.0792   -0.0848   -2.0945 H         1 <0>         0.1544
     10 N1          0.0021   -0.0041    0.0020 N.4       1 <0>        -0.4937
     11 C6          0.5654   -2.0156   -1.2729 C.3       1 <0>         0.0566
     12 O1         -0.7972   -2.4415   -1.3354 O.3       1 <0>        -0.5820
     13 O2          2.6797   -0.4981   -2.5061 O.3       1 <0>        -0.5449
     14 O3          3.4911    1.9360   -1.2427 O.3       1 <0>        -0.5412
     15 O4          2.1094    1.5261    1.1568 O.3       1 <0>        -0.5473
     16 H5         -0.5288    1.8147    0.9066 H         1 <0>         0.1459
     17 H6         -0.5458    1.8242   -0.8727 H         1 <0>         0.1457
     18 H7          0.5329   -0.3366    0.7931 H         1 <0>         0.4299
     19 H8          1.1002   -2.3788   -2.1504 H         1 <0>         0.1075
     20 H9          1.0304   -2.4165   -0.3722 H         1 <0>         0.0740
     21 H10        -0.9084   -3.4018   -1.3601 H         1 <0>         0.4128
     22 H11         3.6059   -0.2409   -2.6111 H         1 <0>         0.4131
     23 H12         3.5970    2.8968   -1.2145 H         1 <0>         0.3995
     24 H13         1.7095    1.8006    1.9934 H         1 <0>         0.3951
     25 H14        -0.9428   -0.3526    0.0632 H         1 <0>         0.4441
@<TRIPOS>BOND
     1    1   10 1
     2    1    2 1
     3    1   16 1
     4    1   17 1
     5    2    3 1
     6    2    4 1
     7    2   15 1
     8    4    5 1
     9    4    6 1
    10    4   14 1
    11    6    7 1
    12    6    8 1
    13    6   13 1
    14    8    9 1
    15    8   10 1
    16    8   11 1
    17   10   18 1
    18   10   25 1
    19   11   12 1
    20   11   19 1
    21   11   20 1
    22   12   21 1
    23   13   22 1
    24   14   23 1
    25   15   24 1
@<TRIPOS>MOLECULE
ZINC26568833
   25    25     0     0     0
SMALL
USER_CHARGES
(2R,3S,4R,5R)-2-amino-5-methyl-piperidine-3,4-diol
@<TRIPOS>ATOM
      1 C1          2.9228   -0.3708    2.4819 C.3       1 <0>        -0.1503
      2 C2          2.1767    0.0777    1.2237 C.3       1 <0>        -0.0863
      3 H1          2.7169   -0.2777    0.3338 H         1 <0>         0.0976
      4 C3          2.0929    1.6055    1.1967 C.3       1 <0>         0.0589
      5 N1          1.3585    2.0357    0.0000 N.3       1 <0>        -0.6802
      6 C4         -0.0187    1.5261    0.0104 C.3       1 <0>         0.2173
      7 H2         -0.5262    1.9205    0.9031 H         1 <0>         0.1176
      8 C5          0.0021   -0.0041    0.0020 C.3       1 <0>         0.0751
      9 H3          0.4423   -0.3939   -0.9276 H         1 <0>         0.0875
     10 C6          0.7612   -0.5061    1.2334 C.3       1 <0>         0.0925
     11 H4          0.7793   -1.6052    1.2748 H         1 <0>         0.0755
     12 O1          0.0800   -0.0876    2.4178 O.3       1 <0>        -0.5882
     13 O2         -1.3379   -0.4995    0.0328 O.3       1 <0>        -0.6142
     14 N2         -0.7295    2.0126   -1.1795 N.4       1 <0>        -0.6808
     15 H5          3.9396    0.0489    2.4744 H         1 <0>         0.0652
     16 H6          2.9796   -1.4691    2.5026 H         1 <0>         0.0641
     17 H7          2.3856   -0.0146    3.3733 H         1 <0>         0.0697
     18 H8          1.5675    1.9598    2.0958 H         1 <0>         0.0635
     19 H9          3.1082    2.0281    1.1749 H         1 <0>         0.1049
     20 H10         1.3257    3.1347   -0.0348 H         1 <0>         0.3665
     21 H11        -0.9555   -0.4109    2.6000 H         1 <0>         0.4182
     22 H12        -1.5236   -1.5837    0.0318 H         1 <0>         0.4464
     23 H13        -1.7612    1.6310   -1.1719 H         1 <0>         0.4696
     24 H14        -0.2143    1.6586   -2.0846 H         1 <0>         0.4564
     25 H15        -0.7453    3.1125   -1.1730 H         1 <0>         0.4535
@<TRIPOS>BOND
     1    1    2 1
     2    1   15 1
     3    1   16 1
     4    1   17 1
     5    2    3 1
     6    2   10 1
     7    2    4 1
     8    4    5 1
     9    4   18 1
    10    4   19 1
    11    5    6 1
    12    5   20 1
    13    6    7 1
    14    6    8 1
    15    6   14 1
    16    8    9 1
    17    8   10 1
    18    8   13 1
    19   10   11 1
    20   10   12 1
    21   12   21 1
    22   13   22 1
    23   14   23 1
    24   14   24 1
    25   14   25 1
@<TRIPOS>MOLECULE
ZINC13328041
   24    24     0     0     0
SMALL
USER_CHARGES
(2S,3R,4S,5R)-2-(hydroxymethyl)-5-methyl-pyrrolidine-3,4-diol
@<TRIPOS>ATOM
      1 C1         -0.3076    3.5047    0.0410 C.3       1 <0>        -0.1643
      2 C2          1.1669    3.0964    0.0425 C.3       1 <0>         0.0315
      3 H1          1.6769    3.5335   -0.8159 H         1 <0>         0.1512
      4 C3          1.2864    1.5618   -0.0018 C.3       1 <0>         0.0590
      5 H2          1.8396    1.2508   -0.8880 H         1 <0>         0.1100
      6 C4          2.0636    1.1778    1.2782 C.3       1 <0>         0.0536
      7 H3          2.7754    0.3785    1.0720 H         1 <0>         0.1173
      8 C5          2.8017    2.4929    1.6409 C.3       1 <0>         0.0439
      9 H4          3.7060    2.6027    1.0423 H         1 <0>         0.1618
     10 C6          3.1358    2.5354    3.1334 C.3       1 <0>         0.0643
     11 O1          3.8225    3.7521    3.4333 O.3       1 <0>        -0.5818
     12 O2          1.1639    0.7990    2.3217 O.3       1 <0>        -0.5452
     13 O3         -0.0110    0.9628    0.0073 O.3       1 <0>        -0.5370
     14 H5         -0.8030    3.0803    0.9143 H         1 <0>         0.0871
     15 H6         -0.3837    4.5916    0.0726 H         1 <0>         0.0794
     16 H7         -0.7866    3.1331   -0.8648 H         1 <0>         0.1093
     17 H8          2.2143    2.4857    3.7135 H         1 <0>         0.0825
     18 H9          3.7714    1.6872    3.3877 H         1 <0>         0.0949
     19 H10         4.0660    3.8471    4.3643 H         1 <0>         0.4106
     20 H11         0.6204    0.0273    2.1115 H         1 <0>         0.4047
     21 H12         0.0021   -0.0041    0.0020 H         1 <0>         0.3984
     22 N1          1.8177    3.5245    1.2819 N.4       1 <0>        -0.5084
     23 H13         1.1206    3.6197    2.0296 H         1 <0>         0.4354
     24 H14         2.2900    4.4247    1.1375 H         1 <0>         0.4419
@<TRIPOS>BOND
     1    1    2 1
     2    1   14 1
     3    1   15 1
     4    1   16 1
     5    2    3 1
     6    2    4 1
     7    2   22 1
     8    4    5 1
     9    4    6 1
    10    4   13 1
    11    6    7 1
    12    6    8 1
    13    6   12 1
    14    8    9 1
    15    8   10 1
    16    8   22 1
    17   10   11 1
    18   10   17 1
    19   10   18 1
    20   11   19 1
    21   12   20 1
    22   13   21 1
    23   22   23 1
    24   22   24 1
@<TRIPOS>MOLECULE
ZINC13328045
   24    24     0     0     0
SMALL
USER_CHARGES
(2S,3R,4R,5R)-2-(hydroxymethyl)-5-methyl-pyrrolidine-3,4-diol
@<TRIPOS>ATOM
      1 C1          3.5180    0.7587    0.8429 C.3       1 <0>        -0.1741
      2 C2          2.2578    0.6360   -0.0161 C.3       1 <0>         0.0323
      3 H1          2.5202    0.3592   -1.0372 H         1 <0>         0.1553
      4 C3          1.4651    1.9606   -0.0014 C.3       1 <0>         0.0580
      5 H2          1.7031    2.5343    0.8943 H         1 <0>         0.1061
      6 C4         -0.0189    1.5396    0.0105 C.3       1 <0>         0.0525
      7 H3         -0.5264    1.9162   -0.8776 H         1 <0>         0.1173
      8 C5          0.0021   -0.0041    0.0020 C.3       1 <0>         0.0438
      9 H4         -0.0902   -0.3799   -1.0170 H         1 <0>         0.1613
     10 C6         -1.1237   -0.5578    0.8778 C.3       1 <0>         0.0680
     11 O1         -1.1592   -1.9818    0.7639 O.3       1 <0>        -0.5819
     12 O2         -0.6618    2.0207    1.1925 O.3       1 <0>        -0.5522
     13 O3          1.7547    2.7253   -1.1733 O.3       1 <0>        -0.5414
     14 H5          4.0338   -0.2011    0.8704 H         1 <0>         0.0897
     15 H6          4.1775    1.5135    0.4147 H         1 <0>         0.1116
     16 H7          3.2403    1.0511    1.8556 H         1 <0>         0.0832
     17 H8         -0.9454   -0.2808    1.9168 H         1 <0>         0.0805
     18 H9         -2.0768   -0.1432    0.5496 H         1 <0>         0.0968
     19 H10        -1.8506   -2.4016    1.2938 H         1 <0>         0.4101
     20 H11        -0.7044    2.9849    1.2524 H         1 <0>         0.4065
     21 H12         1.2512    3.5482   -1.2404 H         1 <0>         0.4042
     22 N1          1.3195   -0.3365    0.5458 N.4       1 <0>        -0.5059
     23 H13         1.3082   -0.2676    1.5702 H         1 <0>         0.4336
     24 H14         1.5874   -1.2884    0.2697 H         1 <0>         0.4447
@<TRIPOS>BOND
     1    1    2 1
     2    1   14 1
     3    1   15 1
     4    1   16 1
     5    2    3 1
     6    2    4 1
     7    2   22 1
     8    4    5 1
     9    4    6 1
    10    4   13 1
    11    6    7 1
    12    6    8 1
    13    6   12 1
    14    8    9 1
    15    8   10 1
    16    8   22 1
    17   10   11 1
    18   10   17 1
    19   10   18 1
    20   11   19 1
    21   12   20 1
    22   13   21 1
    23   22   23 1
    24   22   24 1
@<TRIPOS>MOLECULE
ZINC13328047
   24    24     0     0     0
SMALL
USER_CHARGES
(2S,3R,4R,5S)-2-(hydroxymethyl)-5-methyl-pyrrolidine-3,4-diol
@<TRIPOS>ATOM
      1 C1         -1.4110    2.8999    1.0691 C.3       1 <0>        -0.1696
      2 C2         -0.6338    1.6064    1.3220 C.3       1 <0>         0.0330
      3 H1         -1.2849    0.8502    1.7605 H         1 <0>         0.1579
      4 C3         -0.0127    1.0858    0.0080 C.3       1 <0>         0.0584
      5 H2          0.0021   -0.0041    0.0020 H         1 <0>         0.1052
      6 C4          1.4264    1.6412   -0.0027 C.3       1 <0>         0.0542
      7 H3          1.5752    2.2904   -0.8656 H         1 <0>         0.1166
      8 C5          1.5537    2.4507    1.3056 C.3       1 <0>         0.0418
      9 H4          1.3424    3.5043    1.1229 H         1 <0>         0.1599
     10 C6          2.9527    2.2839    1.9023 C.3       1 <0>         0.0683
     11 O1          3.0869    3.1303    3.0458 O.3       1 <0>        -0.5820
     12 O2          2.3718    0.5698   -0.0175 O.3       1 <0>        -0.5525
     13 O3         -0.7430    1.5776   -1.1175 O.3       1 <0>        -0.5382
     14 H5         -2.2083    2.7101    0.3505 H         1 <0>         0.1150
     15 H6         -1.8424    3.2535    2.0055 H         1 <0>         0.0840
     16 H7         -0.7359    3.6575    0.6711 H         1 <0>         0.0787
     17 H8          3.0994    1.2455    2.1997 H         1 <0>         0.0805
     18 H9          3.7003    2.5577    1.1578 H         1 <0>         0.0962
     19 H10         3.9512    3.0761    3.4760 H         1 <0>         0.4100
     20 H11         2.3081   -0.0003   -0.7960 H         1 <0>         0.4061
     21 H12        -0.3833    1.3005   -1.9713 H         1 <0>         0.4027
     22 N1          0.5267    1.8724    2.1731 N.4       1 <0>        -0.5062
     23 H13         0.8670    0.9990    2.5922 H         1 <0>         0.4361
     24 H14         0.2768    2.5344    2.9171 H         1 <0>         0.4437
@<TRIPOS>BOND
     1    1    2 1
     2    1   14 1
     3    1   15 1
     4    1   16 1
     5    2    3 1
     6    2    4 1
     7    2   22 1
     8    4    5 1
     9    4    6 1
    10    4   13 1
    11    6    7 1
    12    6    8 1
    13    6   12 1
    14    8    9 1
    15    8   10 1
    16    8   22 1
    17   10   11 1
    18   10   17 1
    19   10   18 1
    20   11   19 1
    21   12   20 1
    22   13   21 1
    23   22   23 1
    24   22   24 1
@<TRIPOS>MOLECULE
ZINC26575646
   24    24     0     0     0
SMALL
USER_CHARGES
(2R,3R,4S,5R)-2-methylpiperidine-3,4,5-triol
@<TRIPOS>ATOM
      1 C1         -3.5552   -0.6323    1.3328 C.3       1 <0>        -0.1774
      2 C2         -2.1261   -0.0867    1.3051 C.3       1 <0>         0.0449
      3 H1         -2.1297    1.0108    1.3795 H         1 <0>         0.1436
      4 C3         -1.4339   -0.5354    0.0161 C.3       1 <0>         0.1224
      5 H2         -1.4584   -1.6299   -0.0914 H         1 <0>         0.0950
      6 C4          0.0021   -0.0041    0.0020 C.3       1 <0>         0.0803
      7 H3          0.5269   -0.2886   -0.9219 H         1 <0>         0.0873
      8 C5          0.7397   -0.5126    1.2437 C.3       1 <0>         0.0644
      9 H4          1.7845   -0.1687    1.2593 H         1 <0>         0.1022
     10 C6         -0.0168   -0.0647    2.4980 C.3       1 <0>        -0.0348
     11 N1         -1.3842   -0.5989    2.4643 N.4       1 <0>        -0.5265
     12 O1          0.8034   -1.9398    1.2097 O.3       1 <0>        -0.5948
     13 O2         -0.0173    1.4248    0.0099 O.3       1 <0>        -0.5806
     14 O3         -2.1442   -0.0203   -1.1119 O.3       1 <0>        -0.5785
     15 H5         -4.1110   -0.2487    0.4645 H         1 <0>         0.1134
     16 H6         -4.0531   -0.3091    2.2589 H         1 <0>         0.0817
     17 H7         -3.5289   -1.7313    1.2949 H         1 <0>         0.0795
     18 H8          0.5011   -0.4410    3.3925 H         1 <0>         0.1366
     19 H9         -0.0540    1.0342    2.5310 H         1 <0>         0.1401
     20 H10        -1.8996   -0.3023    3.3897 H         1 <0>         0.4573
     21 H11         1.2997   -2.4878    2.0242 H         1 <0>         0.4320
     22 H12         0.9277    1.9877    0.0018 H         1 <0>         0.4268
     23 H13        -1.7924   -0.2402   -2.1307 H         1 <0>         0.4373
     24 H14        -1.3309   -1.6963    2.4099 H         1 <0>         0.4477
@<TRIPOS>BOND
     1    1    2 1
     2    1   15 1
     3    1   16 1
     4    1   17 1
     5    2    3 1
     6    2   11 1
     7    2    4 1
     8    4    5 1
     9    4    6 1
    10    4   14 1
    11    6    7 1
    12    6    8 1
    13    6   13 1
    14    8    9 1
    15    8   10 1
    16    8   12 1
    17   10   11 1
    18   10   18 1
    19   10   19 1
    20   11   20 1
    21   11   24 1
    22   12   21 1
    23   13   22 1
    24   14   23 1
@<TRIPOS>MOLECULE
ZINC26575647
   24    24     0     0     0
SMALL
USER_CHARGES
(2S,3S,4S,5R)-2-methylpiperidine-3,4,5-triol
@<TRIPOS>ATOM
      1 C1          2.0675    1.1673    3.7659 C.3       1 <0>        -0.1764
      2 C2          1.3660    1.6455    2.4931 C.3       1 <0>         0.0429
      3 H1          1.2868    2.7426    2.4841 H         1 <0>         0.1417
      4 C3          2.1402    1.1530    1.2683 C.3       1 <0>         0.1168
      5 H2          2.2625    0.0599    1.2843 H         1 <0>         0.0852
      6 C4          1.4235    1.6166   -0.0029 C.3       1 <0>         0.0809
      7 H3          1.4472    2.7119   -0.1018 H         1 <0>         0.0822
      8 C5         -0.0127    1.0858    0.0080 C.3       1 <0>         0.0674
      9 H4         -0.0359   -0.0118   -0.0607 H         1 <0>         0.0860
     10 C6         -0.7246    1.5802    1.2693 C.3       1 <0>        -0.0400
     11 N1         -0.0009    1.1100    2.4575 N.4       1 <0>        -0.5284
     12 O1         -0.7053    1.5599   -1.1485 O.3       1 <0>        -0.5791
     13 O2          2.1106    1.1117   -1.1496 O.3       1 <0>        -0.5896
     14 O3          3.4639    1.6909    1.2928 O.3       1 <0>        -0.5797
     15 H5          3.0915    1.5682    3.7929 H         1 <0>         0.1159
     16 H6          2.1039    0.0679    3.7735 H         1 <0>         0.0822
     17 H7          1.5115    1.5219    4.6463 H         1 <0>         0.0852
     18 H8         -0.7513    2.6799    1.2681 H         1 <0>         0.1364
     19 H9         -1.7524    1.1886    1.2877 H         1 <0>         0.1394
     20 H10         0.0364    0.0109    2.4335 H         1 <0>         0.4491
     21 H11        -1.7563    1.2801   -1.3134 H         1 <0>         0.4332
     22 H12         1.7396    1.3427   -2.1590 H         1 <0>         0.4383
     23 H13         4.1722    1.4458    0.4877 H         1 <0>         0.4476
     24 H14        -0.5470    1.4388    3.3539 H         1 <0>         0.4626
@<TRIPOS>BOND
     1    1    2 1
     2    1   15 1
     3    1   16 1
     4    1   17 1
     5    2    3 1
     6    2   11 1
     7    2    4 1
     8    4    5 1
     9    4    6 1
    10    4   14 1
    11    6    7 1
    12    6    8 1
    13    6   13 1
    14    8    9 1
    15    8   10 1
    16    8   12 1
    17   10   11 1
    18   10   18 1
    19   10   19 1
    20   11   20 1
    21   11   24 1
    22   12   21 1
    23   13   22 1
    24   14   23 1
