@<TRIPOS>MOLECULE
ZINC02562358
   25    25     0     0     0
SMALL
USER_CHARGES

@<TRIPOS>ATOM
      1 C1         -0.0178    1.4636    0.0101 C.3       1 <0>        -0.0435
      2 C2          1.4163    1.9970   -0.0007 C.3       1 <0>         0.0576
      3 H1          1.9282    1.6467   -0.8971 H         1 <0>         0.0953
      4 C3          2.1538    1.4881    1.2412 C.3       1 <0>         0.0740
      5 H2          1.6725    1.8801    2.1371 H         1 <0>         0.0897
      6 C4          2.1040   -0.0424    1.2610 C.3       1 <0>         0.1002
      7 H3          2.5785   -0.4103    2.1707 H         1 <0>         0.1194
      8 C5          0.6443   -0.5002    1.2251 C.3       1 <0>         0.0442
      9 H4          0.1192   -0.1073    2.0957 H         1 <0>         0.1594
     10 N1          0.0021   -0.0041    0.0020 N.4       1 <0>        -0.4939
     11 C6          0.5894   -2.0291    1.2443 C.3       1 <0>         0.0552
     12 O1         -0.7718   -2.4558    1.3282 O.3       1 <0>        -0.5823
     13 O2          2.7946   -0.5571    0.1208 O.3       1 <0>        -0.5657
     14 O3          3.5145    1.9229    1.2006 O.3       1 <0>        -0.5491
     15 O4          1.3941    3.4258    0.0085 O.3       1 <0>        -0.5405
     16 H5         -0.5288    1.8147    0.9066 H         1 <0>         0.1407
     17 H6         -0.5458    1.8242   -0.8727 H         1 <0>         0.1416
     18 H7         -0.9439   -0.3520   -0.0448 H         1 <0>         0.4412
     19 H8          1.0371   -2.4202    0.3306 H         1 <0>         0.0847
     20 H9          1.1409   -2.4017    2.1075 H         1 <0>         0.0978
     21 H10        -0.8826   -3.4163    1.3447 H         1 <0>         0.4135
     22 H11         3.7266   -0.3029    0.0776 H         1 <0>         0.4181
     23 H12         3.6198    2.8839    1.1807 H         1 <0>         0.4075
     24 H13         0.9388    3.8170   -0.7496 H         1 <0>         0.4003
     25 H14         0.5177   -0.3280   -0.8025 H         1 <0>         0.4344
@<TRIPOS>BOND
     1    1   10 1
     2    1    2 1
     3    1   16 1
     4    1   17 1
     5    2    3 1
     6    2    4 1
     7    2   15 1
     8    4    5 1
     9    4    6 1
    10    4   14 1
    11    6    7 1
    12    6    8 1
    13    6   13 1
    14    8    9 1
    15    8   10 1
    16    8   11 1
    17   10   18 1
    18   10   25 1
    19   11   12 1
    20   11   19 1
    21   11   20 1
    22   12   21 1
    23   13   22 1
    24   14   23 1
    25   15   24 1
@<TRIPOS>MOLECULE
ZINC02585424
   24    24     0     0     0
SMALL
USER_CHARGES
2-methylpiperidine-3,4,5-triol
@<TRIPOS>ATOM
      1 C1          1.4028    3.5817   -0.0124 C.3       1 <0>        -0.1803
      2 C2          1.4188    2.0518   -0.0005 C.3       1 <0>         0.0420
      3 H1          1.9403    1.7012    0.8902 H         1 <0>         0.1518
      4 C3         -0.0187    1.5270    0.0104 C.3       1 <0>         0.0985
      5 H2         -0.5279    1.8791    0.9076 H         1 <0>         0.1158
      6 C4          0.0021   -0.0041    0.0020 C.3       1 <0>         0.0713
      7 H3          0.4940   -0.3667    0.9046 H         1 <0>         0.0866
      8 C5          0.7710   -0.4895   -1.2299 C.3       1 <0>         0.0579
      9 H4          0.2572   -0.1595   -2.1329 H         1 <0>         0.0943
     10 C6          2.1856    0.0938   -1.2049 C.3       1 <0>        -0.0384
     11 O1          0.8431   -1.9166   -1.2156 O.3       1 <0>        -0.5414
     12 O2         -1.3375   -0.4996   -0.0437 O.3       1 <0>        -0.5499
     13 O3         -0.7085    2.0011   -1.1477 O.3       1 <0>        -0.5650
     14 H5          0.8895    3.9466    0.8772 H         1 <0>         0.1083
     15 H6          2.4266    3.9557   -0.0201 H         1 <0>         0.0858
     16 H7          0.8810    3.9327   -0.9027 H         1 <0>         0.0926
     17 H8          2.7034   -0.2477   -0.3086 H         1 <0>         0.1390
     18 H9          2.7310   -0.2382   -2.0883 H         1 <0>         0.1386
     19 H10         1.3177   -2.2940   -1.9688 H         1 <0>         0.3995
     20 H11        -1.3998   -1.4645   -0.0514 H         1 <0>         0.4060
     21 H12        -1.6267    1.7039   -1.2078 H         1 <0>         0.4154
     22 N1          2.1161    1.5675   -1.2071 N.4       1 <0>        -0.5080
     23 H13         3.0684    1.9510   -1.2242 H         1 <0>         0.4390
     24 H14         1.6059    1.8808   -2.0412 H         1 <0>         0.4404
@<TRIPOS>BOND
     1    1    2 1
     2    1   14 1
     3    1   15 1
     4    1   16 1
     5    2    3 1
     6    2    4 1
     7    2   22 1
     8    4    5 1
     9    4    6 1
    10    4   13 1
    11    6    7 1
    12    6    8 1
    13    6   12 1
    14    8    9 1
    15    8   10 1
    16    8   11 1
    17   10   17 1
    18   10   18 1
    19   10   22 1
    20   11   19 1
    21   12   20 1
    22   13   21 1
    23   22   23 1
    24   22   24 1
@<TRIPOS>MOLECULE
ZINC38847238
   24    24     0     0     0
SMALL
USER_CHARGES

@<TRIPOS>ATOM
      1 C1         -0.0187    1.5258    0.0104 C.3       1 <0>        -0.1701
      2 C2          0.0021   -0.0041    0.0020 C.3       1 <0>         0.0400
      3 H1          0.4987   -0.3718   -0.8959 H         1 <0>         0.1569
      4 C3         -1.4345   -0.5625    0.0898 C.3       1 <0>         0.0533
      5 H2         -1.7959   -0.8352   -0.9018 H         1 <0>         0.1172
      6 C4         -1.3237   -1.8154    0.9829 C.3       1 <0>         0.0622
      7 H3         -1.9333   -1.6969    1.8786 H         1 <0>         0.1054
      8 C5          0.1705   -1.9085    1.3596 C.3       1 <0>         0.0419
      9 H4          0.6943   -2.5760    0.6752 H         1 <0>         0.1619
     10 N1          0.6819   -0.5197    1.2182 N.4       1 <0>        -0.5106
     11 C6          0.3279   -2.3943    2.8019 C.3       1 <0>         0.0598
     12 O1          1.7142   -2.5845    3.0919 O.3       1 <0>        -0.5758
     13 O2         -1.7284   -2.9787    0.2584 O.3       1 <0>        -0.5413
     14 O3         -2.3055    0.4000    0.6873 O.3       1 <0>        -0.5480
     15 H5          1.0039    1.9031    0.0027 H         1 <0>         0.0825
     16 H6         -0.5459    1.8868   -0.8726 H         1 <0>         0.1076
     17 H7         -0.5289    1.8773    0.9072 H         1 <0>         0.0912
     18 H8          1.6826   -0.5216    1.0891 H         1 <0>         0.4415
     19 H9         -0.0871   -1.6512    3.4829 H         1 <0>         0.0736
     20 H10        -0.2024   -3.3383    2.9272 H         1 <0>         0.0994
     21 H11         1.8891   -2.8928    3.9916 H         1 <0>         0.4109
     22 H12        -2.6472   -2.9550   -0.0422 H         1 <0>         0.4064
     23 H13        -3.2224    0.1037    0.7684 H         1 <0>         0.4036
     24 H14         0.4295    0.0321    2.0243 H         1 <0>         0.4307
@<TRIPOS>BOND
     1    1    2 1
     2    1   15 1
     3    1   16 1
     4    1   17 1
     5    2    3 1
     6    2   10 1
     7    2    4 1
     8    4    5 1
     9    4    6 1
    10    4   14 1
    11    6    7 1
    12    6    8 1
    13    6   13 1
    14    8    9 1
    15    8   10 1
    16    8   11 1
    17   10   18 1
    18   10   24 1
    19   11   12 1
    20   11   19 1
    21   11   20 1
    22   12   21 1
    23   13   22 1
    24   14   23 1
@<TRIPOS>MOLECULE
ZINC38522679
   24    24     0     0     0
SMALL
USER_CHARGES

@<TRIPOS>ATOM
      1 C1         -0.0187    1.5258    0.0104 C.3       1 <0>        -0.1812
      2 C2          0.0021   -0.0041    0.0020 C.3       1 <0>         0.0401
      3 H1          0.5123   -0.3551   -0.8949 H         1 <0>         0.1566
      4 C3         -1.4337   -0.5331    0.0113 C.3       1 <0>         0.0986
      5 H2         -1.9601   -0.1729   -0.8726 H         1 <0>         0.1183
      6 C4         -1.4079   -2.0642    0.0026 C.3       1 <0>         0.0691
      7 H3         -2.4267   -2.4464    0.0663 H         1 <0>         0.0938
      8 C5         -0.5995   -2.5582    1.2058 C.3       1 <0>         0.0598
      9 H4         -1.0933   -2.2500    2.1274 H         1 <0>         0.0933
     10 C6          0.8054   -1.9542    1.1523 C.3       1 <0>        -0.0413
     11 N1          0.7134   -0.4897    1.1906 N.4       1 <0>        -0.4955
     12 O1         -0.5087   -3.9838    1.1669 O.3       1 <0>        -0.5409
     13 O2         -0.7993   -2.5250   -1.2055 O.3       1 <0>        -0.5543
     14 O3         -2.1042   -0.0730    1.1865 O.3       1 <0>        -0.5611
     15 H5          1.0039    1.9031    0.0027 H         1 <0>         0.0843
     16 H6         -0.5459    1.8868   -0.8726 H         1 <0>         0.1075
     17 H7         -0.5289    1.8773    0.9072 H         1 <0>         0.0905
     18 H8          1.3836   -2.3040    2.0074 H         1 <0>         0.1362
     19 H9          1.2983   -2.2632    0.2305 H         1 <0>         0.1427
     20 H10         1.6423   -0.0961    1.2096 H         1 <0>         0.4336
     21 H11        -0.0089   -4.3662    1.9011 H         1 <0>         0.4001
     22 H12        -0.7495   -3.4879   -1.2783 H         1 <0>         0.4060
     23 H13        -3.0212   -0.3711    1.2583 H         1 <0>         0.4109
     24 H14         0.2132   -0.2063    2.0198 H         1 <0>         0.4326
@<TRIPOS>BOND
     1    1    2 1
     2    1   15 1
     3    1   16 1
     4    1   17 1
     5    2    3 1
     6    2   11 1
     7    2    4 1
     8    4    5 1
     9    4    6 1
    10    4   14 1
    11    6    7 1
    12    6    8 1
    13    6   13 1
    14    8    9 1
    15    8   10 1
    16    8   12 1
    17   10   11 1
    18   10   18 1
    19   10   19 1
    20   11   20 1
    21   11   24 1
    22   12   21 1
    23   13   22 1
    24   14   23 1
@<TRIPOS>MOLECULE
ZINC03995890
   25    25     0     0     0
SMALL
USER_CHARGES

@<TRIPOS>ATOM
      1 C1         -0.0178    1.4636    0.0101 C.3       1 <0>        -0.0442
      2 C2          1.4163    1.9970   -0.0007 C.3       1 <0>         0.0489
      3 H1          1.3994    3.0869    0.0035 H         1 <0>         0.1124
      4 C3          2.1299    1.5015   -1.2619 C.3       1 <0>         0.0737
      5 H2          1.6316    1.9031   -2.1442 H         1 <0>         0.0971
      6 C4          2.0795   -0.0286   -1.2972 C.3       1 <0>         0.1073
      7 H3          2.6221   -0.4305   -0.4415 H         1 <0>         0.0965
      8 C5          0.6208   -0.4870   -1.2383 C.3       1 <0>         0.0385
      9 H4          0.0792   -0.0848   -2.0945 H         1 <0>         0.1544
     10 N1          0.0021   -0.0041    0.0020 N.4       1 <0>        -0.4937
     11 C6          0.5654   -2.0156   -1.2729 C.3       1 <0>         0.0566
     12 O1         -0.7972   -2.4415   -1.3354 O.3       1 <0>        -0.5820
     13 O2          2.6797   -0.4981   -2.5061 O.3       1 <0>        -0.5449
     14 O3          3.4911    1.9360   -1.2427 O.3       1 <0>        -0.5412
     15 O4          2.1094    1.5261    1.1568 O.3       1 <0>        -0.5473
     16 H5         -0.5288    1.8147    0.9066 H         1 <0>         0.1459
     17 H6         -0.5458    1.8242   -0.8727 H         1 <0>         0.1457
     18 H7          0.5329   -0.3366    0.7931 H         1 <0>         0.4299
     19 H8          1.1002   -2.3788   -2.1504 H         1 <0>         0.1075
     20 H9          1.0304   -2.4165   -0.3722 H         1 <0>         0.0740
     21 H10        -0.9084   -3.4018   -1.3601 H         1 <0>         0.4128
     22 H11         3.6059   -0.2409   -2.6111 H         1 <0>         0.4131
     23 H12         3.5970    2.8968   -1.2145 H         1 <0>         0.3995
     24 H13         1.7095    1.8006    1.9934 H         1 <0>         0.3951
     25 H14        -0.9428   -0.3526    0.0632 H         1 <0>         0.4441
@<TRIPOS>BOND
     1    1   10 1
     2    1    2 1
     3    1   16 1
     4    1   17 1
     5    2    3 1
     6    2    4 1
     7    2   15 1
     8    4    5 1
     9    4    6 1
    10    4   14 1
    11    6    7 1
    12    6    8 1
    13    6   13 1
    14    8    9 1
    15    8   10 1
    16    8   11 1
    17   10   18 1
    18   10   25 1
    19   11   12 1
    20   11   19 1
    21   11   20 1
    22   12   21 1
    23   13   22 1
    24   14   23 1
    25   15   24 1
