@<TRIPOS>MOLECULE
ZINC04098580
   24    24     0     0     0
SMALL
USER_CHARGES
2-(hydroxymethyl)piperidine-3,4-diol
@<TRIPOS>ATOM
      1 C1         -2.0571    1.0526    3.7863 C.3       1 <0>        -0.1841
      2 C2         -2.8036    1.4559    2.5128 C.3       1 <0>        -0.0019
      3 C3         -0.7288    1.5792    1.2668 C.3       1 <0>         0.0424
      4 H1         -0.8225    2.6646    1.2296 H         1 <0>         0.1543
      5 C4          0.0796    1.1795    2.5032 C.3       1 <0>         0.1055
      6 H2          0.1854    0.0951    2.5339 H         1 <0>         0.0874
      7 C5         -0.6508    1.6577    3.7611 C.3       1 <0>         0.0627
      8 H3         -0.7224    2.7453    3.7495 H         1 <0>         0.0838
      9 O1          0.0702    1.2389    4.9217 O.3       1 <0>        -0.5539
     10 O2          1.3730    1.7843    2.4435 O.3       1 <0>        -0.5445
     11 C6         -0.0127    1.0858    0.0080 C.3       1 <0>         0.0557
     12 O3         -0.7038    1.5592   -1.1497 O.3       1 <0>        -0.5813
     13 H4         -2.5971    1.4232    4.6576 H         1 <0>         0.1212
     14 H5         -1.9849   -0.0339    3.8372 H         1 <0>         0.1001
     15 H6         -2.8875    2.5418    2.4695 H         1 <0>         0.1350
     16 H7         -3.8003    1.0147    2.5210 H         1 <0>         0.1422
     17 H8         -0.3394    1.5048    5.7564 H         1 <0>         0.4010
     18 H9          1.9409    1.5736    3.1973 H         1 <0>         0.4126
     19 H10         0.0021   -0.0041    0.0020 H         1 <0>         0.0729
     20 H11         1.0099    1.4631    0.0003 H         1 <0>         0.1059
     21 H12        -0.3044    1.2838   -1.9862 H         1 <0>         0.4124
     22 N1         -2.0698    0.9671    1.3299 N.4       1 <0>        -0.5093
     23 H13        -2.5938    1.2123    0.4817 H         1 <0>         0.4492
     24 H14        -1.9733   -0.0534    1.3897 H         1 <0>         0.4309
@<TRIPOS>BOND
     1    1    7 1
     2    1    2 1
     3    1   13 1
     4    1   14 1
     5    2   15 1
     6    2   16 1
     7    2   22 1
     8    3    4 1
     9    3    5 1
    10    3   11 1
    11    3   22 1
    12    5    6 1
    13    5    7 1
    14    5   10 1
    15    7    8 1
    16    7    9 1
    17    9   17 1
    18   10   18 1
    19   11   12 1
    20   11   19 1
    21   11   20 1
    22   12   21 1
    23   22   23 1
    24   22   24 1
@<TRIPOS>MOLECULE
ZINC33671247
   24    24     0     0     0
SMALL
USER_CHARGES
(2S,3S,4R)-2-(hydroxymethyl)piperidine-3,4-diol
@<TRIPOS>ATOM
      1 C1          2.1687    1.4902    1.2114 C.3       1 <0>        -0.1414
      2 C2          2.1260   -0.0390    1.1681 C.3       1 <0>        -0.0002
      3 N1          0.7291   -0.4915    1.1811 N.4       1 <0>        -0.5285
      4 C3          0.0021   -0.0041    0.0020 C.3       1 <0>         0.0512
      5 H1          0.5330   -0.3781   -0.8858 H         1 <0>         0.1480
      6 C4         -0.0187    1.5261    0.0104 C.3       1 <0>         0.0755
      7 H2         -0.5816    1.9145    0.8719 H         1 <0>         0.0835
      8 C5          1.4196    2.0513   -0.0005 C.3       1 <0>         0.0737
      9 H3          1.4466    3.1508   -0.0168 H         1 <0>         0.0847
     10 O1          2.0718    1.6324   -1.2010 O.3       1 <0>        -0.5935
     11 O2         -0.7085    2.0003   -1.1477 O.3       1 <0>        -0.5865
     12 C6         -1.4330   -0.5335    0.0334 C.3       1 <0>         0.0680
     13 O3         -1.4184   -1.9570   -0.0918 O.3       1 <0>        -0.6164
     14 H4          3.2144    1.8305    1.1858 H         1 <0>         0.1219
     15 H5          1.6898    1.8461    2.1355 H         1 <0>         0.1030
     16 H6          2.6173   -0.3937    0.2500 H         1 <0>         0.1356
     17 H7          2.6508   -0.4455    2.0452 H         1 <0>         0.1370
     18 H8          0.6999   -1.5911    1.1816 H         1 <0>         0.4658
     19 H9          1.6742    1.9406   -2.1792 H         1 <0>         0.4309
     20 H10        -0.8248    3.0814   -1.3144 H         1 <0>         0.4401
     21 H11        -1.9061   -0.2540    0.9863 H         1 <0>         0.0640
     22 H12        -2.0029   -0.0979   -0.8005 H         1 <0>         0.0963
     23 H13        -2.3640   -2.5190   -0.0897 H         1 <0>         0.4464
     24 H14         0.2288   -0.1110    2.0838 H         1 <0>         0.4410
@<TRIPOS>BOND
     1    1    8 1
     2    1    2 1
     3    1   14 1
     4    1   15 1
     5    2    3 1
     6    2   16 1
     7    2   17 1
     8    3    4 1
     9    3   18 1
    10    3   24 1
    11    4    5 1
    12    4    6 1
    13    4   12 1
    14    6    7 1
    15    6    8 1
    16    6   11 1
    17    8    9 1
    18    8   10 1
    19   10   19 1
    20   11   20 1
    21   12   13 1
    22   12   21 1
    23   12   22 1
    24   13   23 1
@<TRIPOS>MOLECULE
ZINC03794714
   25    25     0     0     0
SMALL
USER_CHARGES

@<TRIPOS>ATOM
      1 C1         -0.0178    1.4636    0.0101 C.3       1 <0>        -0.0466
      2 C2          1.4163    1.9970   -0.0007 C.3       1 <0>         0.0566
      3 H1          1.9452    1.6372    0.8818 H         1 <0>         0.0917
      4 C3          2.1299    1.5015   -1.2619 C.3       1 <0>         0.0695
      5 H2          1.6316    1.9031   -2.1442 H         1 <0>         0.0909
      6 C4          2.0795   -0.0286   -1.2972 C.3       1 <0>         0.1094
      7 H3          2.6221   -0.4305   -0.4415 H         1 <0>         0.0913
      8 C5          0.6208   -0.4870   -1.2383 C.3       1 <0>         0.0351
      9 H4          0.0792   -0.0848   -2.0945 H         1 <0>         0.1577
     10 N1          0.0021   -0.0041    0.0020 N.4       1 <0>        -0.4918
     11 C6          0.5654   -2.0156   -1.2729 C.3       1 <0>         0.0570
     12 O1         -0.7972   -2.4415   -1.3354 O.3       1 <0>        -0.5813
     13 O2          2.6797   -0.4981   -2.5061 O.3       1 <0>        -0.5386
     14 O3          3.4911    1.9360   -1.2427 O.3       1 <0>        -0.5488
     15 O4          1.3941    3.4258    0.0058 O.3       1 <0>        -0.5365
     16 H5         -0.5288    1.8147    0.9066 H         1 <0>         0.1451
     17 H6         -0.5458    1.8242   -0.8727 H         1 <0>         0.1438
     18 H7          0.5329   -0.3366    0.7931 H         1 <0>         0.4276
     19 H8          1.1002   -2.3788   -2.1504 H         1 <0>         0.1086
     20 H9          1.0304   -2.4165   -0.3722 H         1 <0>         0.0746
     21 H10        -0.9084   -3.4018   -1.3601 H         1 <0>         0.4135
     22 H11         3.6059   -0.2409   -2.6111 H         1 <0>         0.4148
     23 H12         3.5970    2.8968   -1.2145 H         1 <0>         0.4074
     24 H13         0.9534    3.8088    0.7767 H         1 <0>         0.4013
     25 H14        -0.9428   -0.3526    0.0632 H         1 <0>         0.4478
@<TRIPOS>BOND
     1    1   10 1
     2    1    2 1
     3    1   16 1
     4    1   17 1
     5    2    3 1
     6    2    4 1
     7    2   15 1
     8    4    5 1
     9    4    6 1
    10    4   14 1
    11    6    7 1
    12    6    8 1
    13    6   13 1
    14    8    9 1
    15    8   10 1
    16    8   11 1
    17   10   18 1
    18   10   25 1
    19   11   12 1
    20   11   19 1
    21   11   20 1
    22   12   21 1
    23   13   22 1
    24   14   23 1
    25   15   24 1
@<TRIPOS>MOLECULE
ZINC01492231
   21    21     0     0     0
SMALL
USER_CHARGES

@<TRIPOS>ATOM
      1 C1         -0.0181    1.4811    0.0102 C.3       1 <0>        -0.0410
      2 C2          1.4852    1.8561   -0.0022 C.3       1 <0>         0.0544
      3 H1          1.8886    1.7992   -1.0131 H         1 <0>         0.1039
      4 C3          2.1189    0.7737    0.9015 C.3       1 <0>         0.1013
      5 H2          3.0788    0.4556    0.4946 H         1 <0>         0.1087
      6 C4          1.1186   -0.3971    0.8888 C.3       1 <0>         0.0339
      7 H3          0.7460   -0.5781    1.8970 H         1 <0>         0.1626
      8 N1          0.0021   -0.0041    0.0020 N.4       1 <0>        -0.5035
      9 C5          1.7984   -1.6576    0.3505 C.3       1 <0>         0.0572
     10 O1          0.8992   -2.7637    0.4512 O.3       1 <0>        -0.5762
     11 O2          2.2852    1.2721    2.2304 O.3       1 <0>        -0.5390
     12 O3          1.6857    3.1598    0.5476 O.3       1 <0>        -0.5334
     13 H4         -0.5003    1.8543    0.9137 H         1 <0>         0.1472
     14 H5         -0.5174    1.8640   -0.8799 H         1 <0>         0.1448
     15 H6         -0.8696   -0.3658    0.3589 H         1 <0>         0.4428
     16 H7          2.0715   -1.5054   -0.6937 H         1 <0>         0.0760
     17 H8          2.6953   -1.8642    0.9343 H         1 <0>         0.1004
     18 H9          1.2645   -3.5983    0.1273 H         1 <0>         0.4120
     19 H10         2.8721    2.0381    2.2926 H         1 <0>         0.4119
     20 H11         1.2421    3.8657    0.0578 H         1 <0>         0.4048
     21 H12         0.1645   -0.3447   -0.9338 H         1 <0>         0.4313
@<TRIPOS>BOND
     1    1    8 1
     2    1    2 1
     3    1   13 1
     4    1   14 1
     5    2    3 1
     6    2    4 1
     7    2   12 1
     8    4    5 1
     9    4    6 1
    10    4   11 1
    11    6    7 1
    12    6    8 1
    13    6    9 1
    14    8   15 1
    15    8   21 1
    16    9   10 1
    17    9   16 1
    18    9   17 1
    19   10   18 1
    20   11   19 1
    21   12   20 1
@<TRIPOS>MOLECULE
ZINC01492251
   21    21     0     0     0
SMALL
USER_CHARGES
(2S,3S,4S)-2-(hydroxymethyl)pyrrolidine-3,4-diol
@<TRIPOS>ATOM
      1 C1          1.7959    1.5130   -1.4221 C.3       1 <0>        -0.0400
      2 C2          0.5419    1.9038   -2.2334 C.3       1 <0>         0.0474
      3 H1          0.4676    1.2931   -3.1331 H         1 <0>         0.1166
      4 C3         -0.6478    1.6228   -1.2926 C.3       1 <0>         0.0985
      5 H2         -1.1984    2.5422   -1.0935 H         1 <0>         0.1102
      6 C4         -0.0127    1.0858    0.0080 C.3       1 <0>         0.0382
      7 H3          0.0021   -0.0041    0.0020 H         1 <0>         0.1617
      8 C5         -0.7758    1.6013    1.2299 C.3       1 <0>         0.0618
      9 O1         -0.2178    1.0310    2.4154 O.3       1 <0>        -0.5770
     10 O2         -1.5122    0.6397   -1.8655 O.3       1 <0>        -0.5402
     11 O3          0.5858    3.2900   -2.5777 O.3       1 <0>        -0.5505
     12 H4          2.6133    2.2035   -1.6295 H         1 <0>         0.1480
     13 H5          2.0957    0.4904   -1.6513 H         1 <0>         0.1462
     14 H6         -0.6957    2.6873    1.2767 H         1 <0>         0.0755
     15 H7         -1.8251    1.3175    1.1493 H         1 <0>         0.1009
     16 H8         -0.6535    1.3144    3.2308 H         1 <0>         0.4118
     17 H9         -1.9398    0.9219   -2.6857 H         1 <0>         0.4096
     18 H10         1.3396    3.5340   -3.1320 H         1 <0>         0.4027
     19 N1          1.3532    1.6099   -0.0304 N.4       1 <0>        -0.5032
     20 H11         1.3664    2.5889    0.2787 H         1 <0>         0.4362
     21 H12         1.9648    1.0511    0.5762 H         1 <0>         0.4456
@<TRIPOS>BOND
     1    1    2 1
     2    1   12 1
     3    1   13 1
     4    1   19 1
     5    2    3 1
     6    2    4 1
     7    2   11 1
     8    4    5 1
     9    4    6 1
    10    4   10 1
    11    6    7 1
    12    6    8 1
    13    6   19 1
    14    8    9 1
    15    8   14 1
    16    8   15 1
    17    9   16 1
    18   10   17 1
    19   11   18 1
    20   19   20 1
    21   19   21 1
@<TRIPOS>MOLECULE
ZINC02585429
   21    21     0     0     0
SMALL
USER_CHARGES

@<TRIPOS>ATOM
      1 C1          1.3679    1.5560   -0.0026 C.3       1 <0>        -0.0441
      2 C2          1.2065    2.9988   -0.5278 C.3       1 <0>         0.0541
      3 H1          1.1313    3.6985    0.3046 H         1 <0>         0.1059
      4 C3         -0.1053    2.9854   -1.3395 C.3       1 <0>         0.0908
      5 H2          0.0908    3.2442   -2.3800 H         1 <0>         0.1220
      6 C4         -0.6260    1.5358   -1.2365 C.3       1 <0>         0.0449
      7 H3         -0.3022    0.9533   -2.0990 H         1 <0>         0.1616
      8 C5         -2.1519    1.5236   -1.1253 C.3       1 <0>         0.0661
      9 O1         -2.6147    0.1727   -1.0693 O.3       1 <0>        -0.5834
     10 O2         -1.0502    3.8939   -0.7705 O.3       1 <0>        -0.5514
     11 O3          2.3075    3.3466   -1.3696 O.3       1 <0>        -0.5398
     12 H4          1.7821    1.5626    1.0056 H         1 <0>         0.1477
     13 H5          2.0043    0.9755   -0.6705 H         1 <0>         0.1451
     14 H6         -2.4544    2.0491   -0.2195 H         1 <0>         0.0830
     15 H7         -2.5835    2.0198   -1.9945 H         1 <0>         0.0977
     16 H8         -3.5754    0.0887   -0.9980 H         1 <0>         0.4109
     17 H9         -0.7570    4.8154   -0.7669 H         1 <0>         0.4095
     18 H10         3.1652    3.3276   -0.9234 H         1 <0>         0.4026
     19 N1          0.0037    1.0264   -0.0174 N.4       1 <0>        -0.5044
     20 H11        -0.5115    1.3498    0.8098 H         1 <0>         0.4367
     21 H12         0.0217   -0.0001   -0.0297 H         1 <0>         0.4444
@<TRIPOS>BOND
     1    1    2 1
     2    1   12 1
     3    1   13 1
     4    1   19 1
     5    2    3 1
     6    2    4 1
     7    2   11 1
     8    4    5 1
     9    4    6 1
    10    4   10 1
    11    6    7 1
    12    6    8 1
    13    6   19 1
    14    8    9 1
    15    8   14 1
    16    8   15 1
    17    9   16 1
    18   10   17 1
    19   11   18 1
    20   19   20 1
    21   19   21 1
@<TRIPOS>MOLECULE
ZINC03870472
   21    21     0     0     0
SMALL
USER_CHARGES
2-(hydroxymethyl)pyrrolidine-3,4-diol
@<TRIPOS>ATOM
      1 C1          1.1669    4.8285   -1.6380 C.3       1 <0>        -0.0440
      2 C2          2.2358    5.1471   -0.5715 C.3       1 <0>         0.0600
      3 H1          1.8367    5.8240    0.1839 H         1 <0>         0.1072
      4 C3          2.5406    3.7562    0.0443 C.3       1 <0>         0.0982
      5 H2          2.9005    3.8530    1.0686 H         1 <0>         0.1207
      6 C4          1.1449    3.0852    0.0077 C.3       1 <0>         0.0412
      7 H3          0.5459    3.4046    0.8605 H         1 <0>         0.1629
      8 C5          1.2864    1.5618   -0.0018 C.3       1 <0>         0.0612
      9 O1         -0.0110    0.9628    0.0073 O.3       1 <0>        -0.5824
     10 O2          3.4767    3.0347   -0.7590 O.3       1 <0>        -0.5490
     11 O3          3.4047    5.7023   -1.1778 O.3       1 <0>        -0.5386
     12 H4          1.6371    4.7297   -2.6164 H         1 <0>         0.1416
     13 H5          0.4191    5.6212   -1.6619 H         1 <0>         0.1394
     14 H6          1.8401    1.2428    0.8812 H         1 <0>         0.0964
     15 H7          1.8231    1.2523   -0.8987 H         1 <0>         0.0840
     16 H8          0.0021   -0.0041    0.0020 H         1 <0>         0.4111
     17 H9          4.3648    3.4171   -0.7672 H         1 <0>         0.4138
     18 H10         3.2489    6.5366   -1.6412 H         1 <0>         0.4036
     19 N1          0.5385    3.5563   -1.2514 N.4       1 <0>        -0.5070
     20 H11         0.6909    2.8586   -1.9892 H         1 <0>         0.4387
     21 H12        -0.4696    3.6971   -1.1165 H         1 <0>         0.4411
@<TRIPOS>BOND
     1    1    2 1
     2    1   12 1
     3    1   13 1
     4    1   19 1
     5    2    3 1
     6    2    4 1
     7    2   11 1
     8    4    5 1
     9    4    6 1
    10    4   10 1
    11    6    7 1
    12    6    8 1
    13    6   19 1
    14    8    9 1
    15    8   14 1
    16    8   15 1
    17    9   16 1
    18   10   17 1
    19   11   18 1
    20   19   20 1
    21   19   21 1
