@<TRIPOS>MOLECULE
ZINC00006427
   33    35     0     0     0
SMALL
USER_CHARGES

@<TRIPOS>ATOM
      1 C1          0.5645    1.4220    0.1928 C.3       1 <0>         0.0583
      2 N1          0.3235   -0.0204    0.1049 N.am      1 <0>        -0.5555
      3 C2         -0.9927   -0.4531    0.1626 C.ar      1 <0>         0.1844
      4 C3         -1.9457    0.2992   -0.5272 C.ar      1 <0>        -0.1319
      5 C4         -3.2733   -0.0670   -0.5149 C.ar      1 <0>        -0.0651
      6 C5         -3.6777   -1.1917    0.1872 C.ar      1 <0>        -0.0514
      7 C6         -2.7519   -1.9453    0.8726 C.ar      1 <0>        -0.0516
      8 C7         -1.3954   -1.5853    0.8674 C.ar      1 <0>        -0.1200
      9 C8         -0.4607   -2.4388    1.6175 C.2       1 <0>         0.2679
     10 N2          0.7150   -2.7715    1.2168 N.2       1 <0>        -0.4888
     11 C9          1.2537   -2.3110   -0.0624 C.3       1 <0>         0.0242
     12 C10         1.3847   -0.8126   -0.0296 C.2       1 <0>         0.5094
     13 O1          2.4861   -0.3137   -0.1239 O.2       1 <0>        -0.5107
     14 C11        -0.9076   -2.9538    2.9327 C.ar      1 <0>        -0.0709
     15 C12        -0.3330   -4.1079    3.4647 C.ar      1 <0>        -0.0682
     16 C13        -0.7535   -4.5827    4.6901 C.ar      1 <0>        -0.1263
     17 C14        -1.7429   -3.9163    5.3909 C.ar      1 <0>        -0.0986
     18 C15        -2.3166   -2.7710    4.8684 C.ar      1 <0>        -0.1241
     19 C16        -1.9005   -2.2832    3.6466 C.ar      1 <0>        -0.0904
     20 Cl1        -5.3522   -1.6496    0.2025 Cl        1 <0>        -0.0531
     21 H1          1.6353    1.6160    0.1296 H         1 <0>         0.1025
     22 H2          0.0549    1.9262   -0.6283 H         1 <0>         0.0740
     23 H3          0.1827    1.7970    1.1424 H         1 <0>         0.0729
     24 H4         -1.6385    1.1774   -1.0758 H         1 <0>         0.1452
     25 H5         -4.0004    0.5233   -1.0528 H         1 <0>         0.1468
     26 H6         -3.0719   -2.8206    1.4183 H         1 <0>         0.1484
     27 H7          2.2331   -2.7595   -0.2287 H         1 <0>         0.1343
     28 H8          0.5774   -2.5976   -0.8678 H         1 <0>         0.0942
     29 H9          0.4392   -4.6292    2.9184 H         1 <0>         0.1347
     30 H10        -0.3096   -5.4765    5.1029 H         1 <0>         0.1285
     31 H11        -2.0690   -4.2920    6.3495 H         1 <0>         0.1264
     32 H12        -3.0889   -2.2553    5.4199 H         1 <0>         0.1284
     33 H13        -2.3460   -1.3865    3.2417 H         1 <0>         0.1261
@<TRIPOS>BOND
     1    1    2 1
     2    1   21 1
     3    1   22 1
     4    1   23 1
     5    2   12 am
     6    2    3 1
     7    3    8 ar
     8    3    4 ar
     9    4    5 ar
    10    4   24 1
    11    5    6 ar
    12    5   25 1
    13    6    7 ar
    14    6   20 1
    15    7    8 ar
    16    7   26 1
    17    8    9 1
    18    9   10 2
    19    9   14 1
    20   10   11 1
    21   11   12 1
    22   11   27 1
    23   11   28 1
    24   12   13 2
    25   14   19 ar
    26   14   15 ar
    27   15   16 ar
    28   15   29 1
    29   16   17 ar
    30   16   30 1
    31   17   18 ar
    32   17   31 1
    33   18   19 ar
    34   18   32 1
    35   19   33 1
@<TRIPOS>MOLECULE
ZINC01043853
   29    30     0     0     0
SMALL
USER_CHARGES
5-amino-1-[2,6-dichloro-4-(trifluoromethyl)phenyl]-3-methylsulfanyl-pyrazole-4-carbonitrile
@<TRIPOS>ATOM
      1 C1         -5.3298    0.3270   -0.2026 C.3       1 <0>        -0.1510
      2 S1         -5.1546    2.0874    0.1984 S.3       1 <0>         0.0058
      3 C2         -3.4203    2.3789    0.0893 C.2       1 <0>         0.1446
      4 C3         -2.7375    3.6536    0.3220 C.2       1 <0>        -0.2296
      5 C4         -1.3795    3.4092    0.1286 C.2       1 <0>         0.4582
      6 N1         -1.2450    2.1068   -0.2005 N.pl3     1 <0>        -0.3533
      7 N2         -2.5016    1.4958   -0.2160 N.2       1 <0>        -0.2717
      8 C5         -0.0309    1.4648   -0.4782 C.ar      1 <0>         0.1933
      9 C6          0.7962    1.9450   -1.4861 C.ar      1 <0>        -0.0430
     10 C7          1.9907    1.3059   -1.7607 C.ar      1 <0>        -0.0411
     11 C8          2.3625    0.1895   -1.0344 C.ar      1 <0>        -0.1529
     12 C9          1.5419   -0.2912   -0.0306 C.ar      1 <0>        -0.0431
     13 C10         0.3461    0.3430    0.2499 C.ar      1 <0>        -0.0173
     14 Cl1        -0.6836   -0.2617    1.5099 Cl        1 <0>        -0.0051
     15 C11         3.6654   -0.5046   -1.3372 C.3       1 <0>         0.5157
     16 F1          3.4534   -1.4931   -2.3043 F         1 <0>        -0.1663
     17 F2          4.5899    0.4283   -1.8188 F         1 <0>        -0.1683
     18 F3          4.1623   -1.0936   -0.1696 F         1 <0>        -0.1680
     19 Cl2         0.3300    3.3458   -2.3993 Cl        1 <0>        -0.0114
     20 N3         -0.3578    4.3314    0.2493 N.pl3     1 <0>        -0.8266
     21 C12        -3.3436    4.9002    0.6815 C.1       1 <0>         0.2939
     22 N4         -3.8245    5.8891    0.9666 N.1       1 <0>        -0.4267
     23 H1         -4.7674   -0.2674    0.5174 H         1 <0>         0.0899
     24 H2         -6.3826    0.0478   -0.1607 H         1 <0>         0.1142
     25 H3         -4.9447    0.1427   -1.2056 H         1 <0>         0.0904
     26 H4          2.6342    1.6786   -2.5440 H         1 <0>         0.1669
     27 H5          1.8354   -1.1634    0.5346 H         1 <0>         0.1665
     28 H6          0.5661    4.0424    0.1883 H         1 <0>         0.4086
     29 H7         -0.5644    5.2678    0.3951 H         1 <0>         0.4271
@<TRIPOS>BOND
     1    1    2 1
     2    1   23 1
     3    1   24 1
     4    1   25 1
     5    2    3 1
     6    3    7 2
     7    3    4 1
     8    4    5 2
     9    4   21 1
    10    5    6 1
    11    5   20 1
    12    6    7 1
    13    6    8 1
    14    8   13 ar
    15    8    9 ar
    16    9   10 ar
    17    9   19 1
    18   10   11 ar
    19   10   26 1
    20   11   12 ar
    21   11   15 1
    22   12   13 ar
    23   12   27 1
    24   13   14 1
    25   15   16 1
    26   15   17 1
    27   15   18 1
    28   20   28 1
    29   20   29 1
    30   21   22 3
@<TRIPOS>MOLECULE
ZINC01249069
   30    32     0     0     0
SMALL
USER_CHARGES

@<TRIPOS>ATOM
      1 C1         -0.0168    1.3790    0.0114 C.ar      1 <0>        -0.0979
      2 C2          0.0291    0.0534   -0.3819 C.ar      1 <0>        -0.1242
      3 C3          1.2319   -0.6226   -0.4000 C.ar      1 <0>        -0.0883
      4 C4          2.4028    0.0333   -0.0207 C.ar      1 <0>        -0.0719
      5 C5          2.3501    1.3696    0.3747 C.ar      1 <0>        -0.0684
      6 C6          1.1414    2.0349    0.3887 C.ar      1 <0>        -0.1269
      7 C7          3.6975   -0.6869   -0.0375 C.2       1 <0>         0.2727
      8 N1          4.7755    0.0132   -0.1385 N.2       1 <0>        -0.4946
      9 C8          6.0934   -0.6209   -0.1815 C.3       1 <0>         0.0513
     10 C9          6.1735   -1.4867   -1.4074 C.2       1 <0>         0.3946
     11 N2          5.4324   -2.5193   -1.5699 N.2       1 <0>        -0.5886
     12 C10         4.5189   -2.9862   -0.6762 C.ar      1 <0>         0.1739
     13 C11         3.6698   -2.1537    0.0682 C.ar      1 <0>        -0.1451
     14 C12         2.7471   -2.7257    0.9553 C.ar      1 <0>        -0.0581
     15 C13         2.6794   -4.0926    1.1100 C.ar      1 <0>        -0.0521
     16 C14         3.5275   -4.9185    0.3880 C.ar      1 <0>        -0.0751
     17 C15         4.4374   -4.3758   -0.5041 C.ar      1 <0>        -0.1035
     18 Cl1         1.5299   -4.7832    2.2124 Cl        1 <0>        -0.0584
     19 O1          7.0578   -1.1647   -2.3723 O.3       1 <0>        -0.4542
     20 H1         -0.9599    1.9052    0.0197 H         1 <0>         0.1268
     21 H2         -0.8784   -0.4535   -0.6750 H         1 <0>         0.1288
     22 H3          1.2664   -1.6575   -0.7068 H         1 <0>         0.1264
     23 H4          3.2536    1.8826    0.6698 H         1 <0>         0.1345
     24 H5          1.0993    3.0698    0.6947 H         1 <0>         0.1288
     25 H6          6.8667    0.1460   -0.2246 H         1 <0>         0.1273
     26 H7          6.2331   -1.2341    0.7088 H         1 <0>         0.0980
     27 H8          2.0839   -2.0892    1.5223 H         1 <0>         0.1430
     28 H9          3.4743   -5.9895    0.5166 H         1 <0>         0.1442
     29 H10         5.0949   -5.0241   -1.0642 H         1 <0>         0.1442
     30 H11         7.0514   -1.7671   -3.1287 H         1 <0>         0.4125
@<TRIPOS>BOND
     1    1    6 ar
     2    1    2 ar
     3    1   20 1
     4    2    3 ar
     5    2   21 1
     6    3    4 ar
     7    3   22 1
     8    4    5 ar
     9    4    7 1
    10    5    6 ar
    11    5   23 1
    12    6   24 1
    13    7   13 1
    14    7    8 2
    15    8    9 1
    16    9   10 1
    17    9   25 1
    18    9   26 1
    19   10   11 2
    20   10   19 1
    21   11   12 1
    22   12   17 ar
    23   12   13 ar
    24   13   14 ar
    25   14   15 ar
    26   14   27 1
    27   15   16 ar
    28   15   18 1
    29   16   17 ar
    30   16   28 1
    31   17   29 1
    32   19   30 1
@<TRIPOS>MOLECULE
ZINC01249069
   30    32     0     0     0
SMALL
USER_CHARGES

@<TRIPOS>ATOM
      1 C1         -0.0165    1.3795    0.0097 C.ar      1 <0>        -0.0985
      2 C2          1.1414    2.0349    0.3888 C.ar      1 <0>        -0.1262
      3 C3          2.3500    1.3694    0.3757 C.ar      1 <0>        -0.0682
      4 C4          2.4028    0.0333   -0.0207 C.ar      1 <0>        -0.0715
      5 C5          1.2321   -0.6220   -0.4018 C.ar      1 <0>        -0.0905
      6 C6          0.0295    0.0542   -0.3846 C.ar      1 <0>        -0.1240
      7 C7          3.6974   -0.6869   -0.0375 C.2       1 <0>         0.2674
      8 N1          4.7685    0.0173   -0.1385 N.2       1 <0>        -0.4889
      9 C8          6.0957   -0.5958   -0.1703 C.3       1 <0>         0.0229
     10 C9          6.2077   -1.4514   -1.4026 C.2       1 <0>         0.5124
     11 O1          7.0273   -1.1638   -2.2490 O.2       1 <0>        -0.5110
     12 N2          5.4306   -2.5163   -1.5879 N.am      1 <0>        -0.6628
     13 C10         4.4944   -2.9884   -0.6804 C.ar      1 <0>         0.1794
     14 C11         3.6615   -2.1539    0.0687 C.ar      1 <0>        -0.1198
     15 C12         2.7413   -2.7188    0.9645 C.ar      1 <0>        -0.0509
     16 C13         2.6592   -4.0851    1.1138 C.ar      1 <0>        -0.0511
     17 C14         3.4894   -4.9140    0.3762 C.ar      1 <0>        -0.0650
     18 C15         4.3980   -4.3719   -0.5201 C.ar      1 <0>        -0.1319
     19 Cl1         1.5161   -4.7694    2.2267 Cl        1 <0>        -0.0523
     20 H1         -0.9609    1.9033    0.0258 H         1 <0>         0.1264
     21 H2          1.0992    3.0697    0.6953 H         1 <0>         0.1286
     22 H3          3.2533    1.8822    0.6715 H         1 <0>         0.1347
     23 H4          1.2669   -1.6565   -0.7101 H         1 <0>         0.1264
     24 H5         -0.8777   -0.4522   -0.6794 H         1 <0>         0.1285
     25 H6          6.8574    0.1835   -0.1966 H         1 <0>         0.1343
     26 H7          6.2337   -1.2138    0.7169 H         1 <0>         0.0954
     27 H8          5.5266   -2.9997   -2.4234 H         1 <0>         0.4142
     28 H9          2.0923   -2.0769    1.5417 H         1 <0>         0.1486
     29 H10         3.4254   -5.9855    0.4953 H         1 <0>         0.1471
     30 H11         5.0429   -5.0224   -1.0923 H         1 <0>         0.1461
@<TRIPOS>BOND
     1    1    6 ar
     2    1    2 ar
     3    1   20 1
     4    2    3 ar
     5    2   21 1
     6    3    4 ar
     7    3   22 1
     8    4    5 ar
     9    4    7 1
    10    5    6 ar
    11    5   23 1
    12    6   24 1
    13    7   14 1
    14    7    8 2
    15    8    9 1
    16    9   10 1
    17    9   25 1
    18    9   26 1
    19   10   11 2
    20   10   12 am
    21   12   13 1
    22   12   27 1
    23   13   18 ar
    24   13   14 ar
    25   14   15 ar
    26   15   16 ar
    27   15   28 1
    28   16   17 ar
    29   16   19 1
    30   17   18 ar
    31   17   29 1
    32   18   30 1
