@<TRIPOS>MOLECULE
ZINC01532157
   30    31     0     0     0
SMALL
USER_CHARGES

@<TRIPOS>ATOM
      1 C1          0.6241    1.3582    1.1570 C.ar      1 <0>        -0.0402
      2 C2          1.1796    2.0855    0.1204 C.ar      1 <0>        -0.1470
      3 C3          1.7557    1.4341   -0.9546 C.ar      1 <0>        -0.0419
      4 C4          1.7778    0.0526   -0.9968 C.ar      1 <0>        -0.0140
      5 C5          1.2206   -0.6815    0.0429 C.ar      1 <0>         0.1822
      6 C6          0.6429   -0.0236    1.1218 C.ar      1 <0>        -0.0370
      7 Cl1        -0.0548   -0.9357    2.4237 Cl        1 <0>        -0.0099
      8 N1          1.2407   -2.0822    0.0033 N.pl3     1 <0>        -0.3493
      9 C7          0.1537   -2.9004    0.0743 C.2       1 <0>         0.5034
     10 C8          0.5952   -4.1828    0.0019 C.2       1 <0>        -0.6460
     11 C9          2.0005   -4.1488   -0.1175 C.2       1 <0>         0.2619
     12 N2          2.3813   -2.8853   -0.1222 N.2       1 <0>        -0.2092
     13 C10         2.8631   -5.2871   -0.2217 C.1       1 <0>         0.2680
     14 N3          3.5474   -6.1901   -0.3044 N.1       1 <0>        -0.3345
     15 S1         -0.4082   -5.6305    0.0487 S.o       1 <0>         1.4312
     16 O1          0.4701   -6.6422    0.5223 O.2       1 <0>        -0.7564
     17 C11        -0.8082   -5.9437   -1.6927 C.3       1 <0>         0.0980
     18 F1          0.3737   -6.1446   -2.4138 F         1 <0>        -0.1891
     19 F2         -1.6126   -7.0843   -1.7885 F         1 <0>        -0.1738
     20 F3         -1.4942   -4.8437   -2.2187 F         1 <0>        -0.1709
     21 N4         -1.1722   -2.4947    0.1993 N.pl3     1 <0>        -0.8236
     22 Cl2         2.5003   -0.7642   -2.3476 Cl        1 <0>        -0.0017
     23 C12         1.1566    3.5917    0.1623 C.3       1 <0>         0.5153
     24 F4          2.3120    4.0583    0.7985 F         1 <0>        -0.1653
     25 F5          1.1077    4.0938   -1.1426 F         1 <0>        -0.1671
     26 F6          0.0288    4.0214    0.8698 F         1 <0>        -0.1674
     27 H1          0.1790    1.8703    1.9972 H         1 <0>         0.1698
     28 H2          2.1886    2.0054   -1.7625 H         1 <0>         0.1687
     29 H3         -1.3977   -1.5525    0.1513 H         1 <0>         0.4162
     30 H4         -1.8706   -3.1542    0.3343 H         1 <0>         0.4295
@<TRIPOS>BOND
     1    1    6 ar
     2    1    2 ar
     3    1   27 1
     4    2    3 ar
     5    2   23 1
     6    3    4 ar
     7    3   28 1
     8    4    5 ar
     9    4   22 1
    10    5    6 ar
    11    5    8 1
    12    6    7 1
    13    8   12 1
    14    8    9 1
    15    9   10 2
    16    9   21 1
    17   10   11 1
    18   10   15 1
    19   11   12 2
    20   11   13 1
    21   13   14 3
    22   15   16 2
    23   15   17 1
    24   17   18 1
    25   17   19 1
    26   17   20 1
    27   21   29 1
    28   21   30 1
    29   23   24 1
    30   23   25 1
    31   23   26 1
@<TRIPOS>MOLECULE
ZINC03872568
   30    31     0     0     0
SMALL
USER_CHARGES

@<TRIPOS>ATOM
      1 C1          0.6247    1.3688    1.1156 C.ar      1 <0>        -0.0407
      2 C2          1.1752    2.0866    0.0698 C.ar      1 <0>        -0.1473
      3 C3          1.7474    1.4255   -1.0014 C.ar      1 <0>        -0.0423
      4 C4          1.7706    0.0437   -1.0304 C.ar      1 <0>        -0.0141
      5 C5          1.2185   -0.6810    0.0186 C.ar      1 <0>         0.1815
      6 C6          0.6447   -0.0133    1.0935 C.ar      1 <0>        -0.0389
      7 Cl1        -0.0467   -0.9135    2.4070 Cl        1 <0>        -0.0085
      8 N1          1.2398   -2.0820   -0.0076 N.pl3     1 <0>        -0.3518
      9 C7          0.1537   -2.9004    0.0743 C.2       1 <0>         0.4982
     10 C8          0.5961   -4.1830    0.0128 C.2       1 <0>        -0.6484
     11 C9          2.0011   -4.1489   -0.1110 C.2       1 <0>         0.2681
     12 N2          2.3807   -2.8852   -0.1288 N.2       1 <0>        -0.2063
     13 C10         2.8644   -5.2874   -0.2069 C.1       1 <0>         0.2726
     14 N3          3.5493   -6.1905   -0.2829 N.1       1 <0>        -0.3349
     15 S1         -0.4057   -5.6311    0.0764 S.o       1 <0>         1.4432
     16 O1         -1.5759   -5.2096    0.7636 O.2       1 <0>        -0.7799
     17 C11        -0.8106   -5.9613   -1.6607 C.3       1 <0>         0.1002
     18 F1          0.3694   -6.1680   -2.3834 F         1 <0>        -0.1662
     19 F2         -1.6142   -7.1035   -1.7433 F         1 <0>        -0.1725
     20 F3         -1.4991   -4.8670   -2.1952 F         1 <0>        -0.1934
     21 N4         -1.1722   -2.4947    0.1993 N.pl3     1 <0>        -0.8201
     22 Cl2         2.4882   -0.7853   -2.3764 Cl        1 <0>        -0.0015
     23 C12         1.1509    3.5932    0.0974 C.3       1 <0>         0.5156
     24 F4          2.3085    4.0668    0.7242 F         1 <0>        -0.1650
     25 F5          1.0961    4.0827   -1.2121 F         1 <0>        -0.1671
     26 F6          0.0257    4.0286    0.8055 F         1 <0>        -0.1675
     27 H1          0.1827    1.8885    1.9528 H         1 <0>         0.1695
     28 H2          2.1763    1.9894   -1.8165 H         1 <0>         0.1692
     29 H3         -1.3977   -1.5525    0.1513 H         1 <0>         0.4110
     30 H4         -1.8706   -3.1542    0.3343 H         1 <0>         0.4369
@<TRIPOS>BOND
     1    1    6 ar
     2    1    2 ar
     3    1   27 1
     4    2    3 ar
     5    2   23 1
     6    3    4 ar
     7    3   28 1
     8    4    5 ar
     9    4   22 1
    10    5    6 ar
    11    5    8 1
    12    6    7 1
    13    8   12 1
    14    8    9 1
    15    9   10 2
    16    9   21 1
    17   10   11 1
    18   10   15 1
    19   11   12 2
    20   11   13 1
    21   13   14 3
    22   15   16 2
    23   15   17 1
    24   17   18 1
    25   17   19 1
    26   17   20 1
    27   21   29 1
    28   21   30 1
    29   23   24 1
    30   23   25 1
    31   23   26 1
@<TRIPOS>MOLECULE
ZINC06507046
   30    32     0     0     0
SMALL
USER_CHARGES

@<TRIPOS>ATOM
      1 C1         -0.0187    1.5258    0.0104 C.3       1 <0>        -0.1516
      2 C2          0.0021   -0.0041    0.0020 C.3       1 <0>         0.0576
      3 O1          0.6932   -0.4774    1.1597 O.3       1 <0>        -0.3290
      4 C3          0.8010   -1.8125    1.3044 C.2       1 <0>         0.5310
      5 O2          0.3215   -2.5545    0.4707 O.2       1 <0>        -0.5021
      6 C4          1.5026   -2.3743    2.4772 C.ar      1 <0>         0.0402
      7 C5          1.6143   -3.7553    2.6160 C.ar      1 <0>        -0.0333
      8 C6          2.2792   -4.2624    3.7284 C.ar      1 <0>        -0.0831
      9 C7          2.5953   -5.6144    4.2150 C.ar      1 <0>        -0.1038
     10 C8          2.3393   -6.8954    3.7304 C.ar      1 <0>        -0.0556
     11 C9          2.7783   -7.9949    4.4350 C.ar      1 <0>        -0.1428
     12 C10         3.4736   -7.8308    5.6237 C.ar      1 <0>        -0.0754
     13 C11         3.7339   -6.5702    6.1150 C.ar      1 <0>        -0.1379
     14 C12         3.2989   -5.4466    5.4180 C.ar      1 <0>         0.1403
     15 N1          3.4169   -4.0919    5.6699 N.pl3     1 <0>        -0.5953
     16 C13         2.8128   -3.3630    4.6699 C.ar      1 <0>         0.1173
     17 C14         2.6538   -1.9943    4.4511 C.ar      1 <0>         0.0980
     18 N2          2.0253   -1.5542    3.3864 N.ar      1 <0>        -0.4039
     19 H1          1.0039    1.9031    0.0027 H         1 <0>         0.0677
     20 H2         -0.5459    1.8868   -0.8726 H         1 <0>         0.0803
     21 H3         -0.5289    1.8773    0.9072 H         1 <0>         0.0677
     22 H4         -1.0205   -0.3814    0.0098 H         1 <0>         0.0690
     23 H5          0.5123   -0.3556   -0.8948 H         1 <0>         0.0690
     24 H6          1.1933   -4.4194    1.8756 H         1 <0>         0.1539
     25 H7          1.7978   -7.0261    2.8052 H         1 <0>         0.1310
     26 H8          2.5801   -8.9882    4.0604 H         1 <0>         0.1325
     27 H9          3.8135   -8.6987    6.1693 H         1 <0>         0.1343
     28 H10         4.2762   -6.4537    7.0417 H         1 <0>         0.1294
     29 H11         3.0568   -1.2892    5.1630 H         1 <0>         0.1699
     30 H12         3.8619   -3.7092    6.4422 H         1 <0>         0.4248
@<TRIPOS>BOND
     1    1    2 1
     2    1   19 1
     3    1   20 1
     4    1   21 1
     5    2    3 1
     6    2   22 1
     7    2   23 1
     8    3    4 1
     9    4    5 2
    10    4    6 1
    11    6   18 ar
    12    6    7 ar
    13    7    8 ar
    14    7   24 1
    15    8   16 ar
    16    8    9 1
    17    9   14 ar
    18    9   10 ar
    19   10   11 ar
    20   10   25 1
    21   11   12 ar
    22   11   26 1
    23   12   13 ar
    24   12   27 1
    25   13   14 ar
    26   13   28 1
    27   14   15 1
    28   15   16 1
    29   15   30 1
    30   16   17 ar
    31   17   18 ar
    32   17   29 1
@<TRIPOS>MOLECULE
ZINC06507046
   31    33     0     0     0
SMALL
USER_CHARGES

@<TRIPOS>ATOM
      1 C1         -0.0187    1.5258    0.0104 C.3       1 <0>        -0.1574
      2 C2          0.0021   -0.0041    0.0020 C.3       1 <0>         0.0635
      3 O1          0.6709   -0.4649   -1.1737 O.3       1 <0>        -0.3539
      4 C3          0.7758   -1.7984   -1.3347 C.2       1 <0>         0.5063
      5 O2          0.3122   -2.5493   -0.5000 O.2       1 <0>        -0.4447
      6 C4          1.4548   -2.3474   -2.5266 C.ar      1 <0>         0.0584
      7 C5          1.5538   -3.7270   -2.6880 C.ar      1 <0>         0.0150
      8 C6          2.1974   -4.2220   -3.8182 C.ar      1 <0>        -0.0128
      9 C7          2.4947   -5.5688   -4.3305 C.ar      1 <0>        -0.1156
     10 C8          2.2352   -6.8550   -3.8620 C.ar      1 <0>        -0.0440
     11 C9          2.6535   -7.9469   -4.5907 C.ar      1 <0>        -0.1219
     12 C10         3.3312   -7.7700   -5.7877 C.ar      1 <0>        -0.0454
     13 C11         3.5947   -6.5040   -6.2632 C.ar      1 <0>        -0.1296
     14 C12         3.1805   -5.3879   -5.5419 C.ar      1 <0>         0.1539
     15 N1          3.3056   -4.0304   -5.7748 N.pl3     1 <0>        -0.5653
     16 C13         2.7234   -3.3124   -4.7542 C.ar      1 <0>         0.1319
     17 C14         2.5790   -1.9460   -4.5119 C.ar      1 <0>         0.1494
     18 N2          1.9602   -1.5175   -3.4368 N.ar      1 <0>        -0.3940
     19 H1          1.0039    1.9031    0.0027 H         1 <0>         0.0711
     20 H2         -0.5459    1.8868   -0.8726 H         1 <0>         0.0710
     21 H3         -0.5289    1.8773    0.9072 H         1 <0>         0.0933
     22 H4          0.5293   -0.3651    0.8851 H         1 <0>         0.0826
     23 H5         -1.0205   -0.3814    0.0098 H         1 <0>         0.0826
     24 H6          1.1398   -4.3991   -1.9509 H         1 <0>         0.1968
     25 H7          1.7080   -6.9958   -2.9300 H         1 <0>         0.1443
     26 H8          2.4532   -8.9444   -4.2283 H         1 <0>         0.1478
     27 H9          3.6554   -8.6320   -6.3518 H         1 <0>         0.1500
     28 H10         4.1232   -6.3775   -7.1965 H         1 <0>         0.1440
     29 H11         2.9763   -1.2332   -5.2193 H         1 <0>         0.2207
     30 H12         3.7422   -3.6394   -6.5476 H         1 <0>         0.4401
     31 H13         1.8718   -0.5616   -3.2980 H         1 <0>         0.4618
@<TRIPOS>BOND
     1    1    2 1
     2    1   19 1
     3    1   20 1
     4    1   21 1
     5    2    3 1
     6    2   22 1
     7    2   23 1
     8    3    4 1
     9    4    5 2
    10    4    6 1
    11    6   18 ar
    12    6    7 ar
    13    7    8 ar
    14    7   24 1
    15    8   16 ar
    16    8    9 1
    17    9   14 ar
    18    9   10 ar
    19   10   11 ar
    20   10   25 1
    21   11   12 ar
    22   11   26 1
    23   12   13 ar
    24   12   27 1
    25   13   14 ar
    26   13   28 1
    27   14   15 1
    28   15   16 1
    29   15   30 1
    30   16   17 ar
    31   17   18 ar
    32   17   29 1
    33   18   31 1
@<TRIPOS>MOLECULE
ZINC00006427
   33    35     0     0     0
SMALL
USER_CHARGES

@<TRIPOS>ATOM
      1 C1          0.5645    1.4220    0.1928 C.3       1 <0>         0.0583
      2 N1          0.3235   -0.0204    0.1049 N.am      1 <0>        -0.5555
      3 C2         -0.9927   -0.4531    0.1626 C.ar      1 <0>         0.1844
      4 C3         -1.9457    0.2992   -0.5272 C.ar      1 <0>        -0.1319
      5 C4         -3.2733   -0.0670   -0.5149 C.ar      1 <0>        -0.0651
      6 C5         -3.6777   -1.1917    0.1872 C.ar      1 <0>        -0.0514
      7 C6         -2.7519   -1.9453    0.8726 C.ar      1 <0>        -0.0516
      8 C7         -1.3954   -1.5853    0.8674 C.ar      1 <0>        -0.1200
      9 C8         -0.4607   -2.4388    1.6175 C.2       1 <0>         0.2679
     10 N2          0.7150   -2.7715    1.2168 N.2       1 <0>        -0.4888
     11 C9          1.2537   -2.3110   -0.0624 C.3       1 <0>         0.0242
     12 C10         1.3847   -0.8126   -0.0296 C.2       1 <0>         0.5094
     13 O1          2.4861   -0.3137   -0.1239 O.2       1 <0>        -0.5107
     14 C11        -0.9076   -2.9538    2.9327 C.ar      1 <0>        -0.0709
     15 C12        -0.3330   -4.1079    3.4647 C.ar      1 <0>        -0.0682
     16 C13        -0.7535   -4.5827    4.6901 C.ar      1 <0>        -0.1263
     17 C14        -1.7429   -3.9163    5.3909 C.ar      1 <0>        -0.0986
     18 C15        -2.3166   -2.7710    4.8684 C.ar      1 <0>        -0.1241
     19 C16        -1.9005   -2.2832    3.6466 C.ar      1 <0>        -0.0904
     20 Cl1        -5.3522   -1.6496    0.2025 Cl        1 <0>        -0.0531
     21 H1          1.6353    1.6160    0.1296 H         1 <0>         0.1025
     22 H2          0.0549    1.9262   -0.6283 H         1 <0>         0.0740
     23 H3          0.1827    1.7970    1.1424 H         1 <0>         0.0729
     24 H4         -1.6385    1.1774   -1.0758 H         1 <0>         0.1452
     25 H5         -4.0004    0.5233   -1.0528 H         1 <0>         0.1468
     26 H6         -3.0719   -2.8206    1.4183 H         1 <0>         0.1484
     27 H7          2.2331   -2.7595   -0.2287 H         1 <0>         0.1343
     28 H8          0.5774   -2.5976   -0.8678 H         1 <0>         0.0942
     29 H9          0.4392   -4.6292    2.9184 H         1 <0>         0.1347
     30 H10        -0.3096   -5.4765    5.1029 H         1 <0>         0.1285
     31 H11        -2.0690   -4.2920    6.3495 H         1 <0>         0.1264
     32 H12        -3.0889   -2.2553    5.4199 H         1 <0>         0.1284
     33 H13        -2.3460   -1.3865    3.2417 H         1 <0>         0.1261
@<TRIPOS>BOND
     1    1    2 1
     2    1   21 1
     3    1   22 1
     4    1   23 1
     5    2   12 am
     6    2    3 1
     7    3    8 ar
     8    3    4 ar
     9    4    5 ar
    10    4   24 1
    11    5    6 ar
    12    5   25 1
    13    6    7 ar
    14    6   20 1
    15    7    8 ar
    16    7   26 1
    17    8    9 1
    18    9   10 2
    19    9   14 1
    20   10   11 1
    21   11   12 1
    22   11   27 1
    23   11   28 1
    24   12   13 2
    25   14   19 ar
    26   14   15 ar
    27   15   16 ar
    28   15   29 1
    29   16   17 ar
    30   16   30 1
    31   17   18 ar
    32   17   31 1
    33   18   19 ar
    34   18   32 1
    35   19   33 1
@<TRIPOS>MOLECULE
ZINC04163149
   35    37     0     0     0
SMALL
USER_CHARGES
N-[(4-fluorophenyl)methyl]-2-(1H-indol-3-yl)-2-oxo-acetamide
@<TRIPOS>ATOM
      1 C1         -0.7100    3.7645    0.0291 C.ar      1 <0>        -0.1295
      2 C2          0.6182    4.1637    0.0185 C.ar      1 <0>        -0.1039
      3 C3          1.6321    3.2303    0.0038 C.ar      1 <0>        -0.1176
      4 C4          1.3268    1.8732   -0.0005 C.ar      1 <0>         0.0701
      5 C5         -0.0179    1.4716    0.0101 C.ar      1 <0>        -0.0547
      6 C6         -1.0324    2.4243    0.0300 C.ar      1 <0>        -0.0763
      7 C7          0.0021   -0.0041    0.0020 C.2       1 <0>        -0.2774
      8 C8          1.3349   -0.3701   -0.0127 C.2       1 <0>         0.1668
      9 N1          2.1053    0.7326   -0.0141 N.pl3     1 <0>        -0.5676
     10 H1          3.0753    0.7274   -0.0229 H         1 <0>         0.4238
     11 C9         -1.1545   -0.8984    0.0087 C.2       1 <0>         0.4209
     12 O1         -2.2791   -0.4374    0.0223 O.2       1 <0>        -0.4387
     13 C10        -0.9545   -2.3766   -0.0012 C.2       1 <0>         0.4906
     14 O2          0.1686   -2.8370   -0.0148 O.2       1 <0>        -0.5180
     15 N2         -2.0207   -3.2010    0.0049 N.am      1 <0>        -0.7017
     16 C11        -1.8242   -4.6527   -0.0048 C.3       1 <0>         0.1598
     17 C12        -3.1647   -5.3411    0.0048 C.ar      1 <0>        -0.1271
     18 C13        -3.7646   -5.6682    1.2066 C.ar      1 <0>        -0.0682
     19 C14        -4.9961   -6.2952    1.2167 C.ar      1 <0>        -0.1552
     20 C15        -5.6243   -6.6053    0.0224 C.ar      1 <0>         0.1105
     21 C16        -5.0201   -6.2820   -1.1807 C.ar      1 <0>        -0.1552
     22 C17        -3.7910   -5.6502   -1.1883 C.ar      1 <0>        -0.0682
     23 F1         -6.8261   -7.2225    0.0310 F         1 <0>        -0.1361
     24 H2         -1.4946    4.5065    0.0402 H         1 <0>         0.1277
     25 H3          0.8603    5.2163    0.0215 H         1 <0>         0.1293
     26 H4          2.6630    3.5523   -0.0046 H         1 <0>         0.1240
     27 H5         -2.0671    2.1151    0.0426 H         1 <0>         0.1319
     28 H6          1.7016   -1.3859   -0.0220 H         1 <0>         0.2030
     29 H7         -2.9181   -2.8331    0.0158 H         1 <0>         0.4134
     30 H8         -1.2751   -4.9390   -0.9018 H         1 <0>         0.0855
     31 H9         -1.2575   -4.9486    0.8780 H         1 <0>         0.0855
     32 H10        -3.2725   -5.4300    2.1380 H         1 <0>         0.1365
     33 H11        -5.4665   -6.5469    2.1557 H         1 <0>         0.1396
     34 H12        -5.5093   -6.5230   -2.1129 H         1 <0>         0.1396
     35 H13        -3.3197   -5.3976   -2.1266 H         1 <0>         0.1365
@<TRIPOS>BOND
     1    1    6 ar
     2    1    2 ar
     3    1   24 1
     4    2    3 ar
     5    2   25 1
     6    3    4 ar
     7    3   26 1
     8    4    9 1
     9    4    5 ar
    10    5    6 ar
    11    5    7 1
    12    6   27 1
    13    7    8 2
    14    7   11 1
    15    8    9 1
    16    8   28 1
    17    9   10 1
    18   11   12 2
    19   11   13 1
    20   13   14 2
    21   13   15 am
    22   15   16 1
    23   15   29 1
    24   16   17 1
    25   16   30 1
    26   16   31 1
    27   17   22 ar
    28   17   18 ar
    29   18   19 ar
    30   18   32 1
    31   19   20 ar
    32   19   33 1
    33   20   21 ar
    34   20   23 1
    35   21   22 ar
    36   21   34 1
    37   22   35 1
@<TRIPOS>MOLECULE
ZINC01043853
   29    30     0     0     0
SMALL
USER_CHARGES
5-amino-1-[2,6-dichloro-4-(trifluoromethyl)phenyl]-3-methylsulfanyl-pyrazole-4-carbonitrile
@<TRIPOS>ATOM
      1 C1         -5.3298    0.3270   -0.2026 C.3       1 <0>        -0.1510
      2 S1         -5.1546    2.0874    0.1984 S.3       1 <0>         0.0058
      3 C2         -3.4203    2.3789    0.0893 C.2       1 <0>         0.1446
      4 C3         -2.7375    3.6536    0.3220 C.2       1 <0>        -0.2296
      5 C4         -1.3795    3.4092    0.1286 C.2       1 <0>         0.4582
      6 N1         -1.2450    2.1068   -0.2005 N.pl3     1 <0>        -0.3533
      7 N2         -2.5016    1.4958   -0.2160 N.2       1 <0>        -0.2717
      8 C5         -0.0309    1.4648   -0.4782 C.ar      1 <0>         0.1933
      9 C6          0.7962    1.9450   -1.4861 C.ar      1 <0>        -0.0430
     10 C7          1.9907    1.3059   -1.7607 C.ar      1 <0>        -0.0411
     11 C8          2.3625    0.1895   -1.0344 C.ar      1 <0>        -0.1529
     12 C9          1.5419   -0.2912   -0.0306 C.ar      1 <0>        -0.0431
     13 C10         0.3461    0.3430    0.2499 C.ar      1 <0>        -0.0173
     14 Cl1        -0.6836   -0.2617    1.5099 Cl        1 <0>        -0.0051
     15 C11         3.6654   -0.5046   -1.3372 C.3       1 <0>         0.5157
     16 F1          3.4534   -1.4931   -2.3043 F         1 <0>        -0.1663
     17 F2          4.5899    0.4283   -1.8188 F         1 <0>        -0.1683
     18 F3          4.1623   -1.0936   -0.1696 F         1 <0>        -0.1680
     19 Cl2         0.3300    3.3458   -2.3993 Cl        1 <0>        -0.0114
     20 N3         -0.3578    4.3314    0.2493 N.pl3     1 <0>        -0.8266
     21 C12        -3.3436    4.9002    0.6815 C.1       1 <0>         0.2939
     22 N4         -3.8245    5.8891    0.9666 N.1       1 <0>        -0.4267
     23 H1         -4.7674   -0.2674    0.5174 H         1 <0>         0.0899
     24 H2         -6.3826    0.0478   -0.1607 H         1 <0>         0.1142
     25 H3         -4.9447    0.1427   -1.2056 H         1 <0>         0.0904
     26 H4          2.6342    1.6786   -2.5440 H         1 <0>         0.1669
     27 H5          1.8354   -1.1634    0.5346 H         1 <0>         0.1665
     28 H6          0.5661    4.0424    0.1883 H         1 <0>         0.4086
     29 H7         -0.5644    5.2678    0.3951 H         1 <0>         0.4271
@<TRIPOS>BOND
     1    1    2 1
     2    1   23 1
     3    1   24 1
     4    1   25 1
     5    2    3 1
     6    3    7 2
     7    3    4 1
     8    4    5 2
     9    4   21 1
    10    5    6 1
    11    5   20 1
    12    6    7 1
    13    6    8 1
    14    8   13 ar
    15    8    9 ar
    16    9   10 ar
    17    9   19 1
    18   10   11 ar
    19   10   26 1
    20   11   12 ar
    21   11   15 1
    22   12   13 ar
    23   12   27 1
    24   13   14 1
    25   15   16 1
    26   15   17 1
    27   15   18 1
    28   20   28 1
    29   20   29 1
    30   21   22 3
@<TRIPOS>MOLECULE
ZINC03870481
   46    48     0     0     0
SMALL
USER_CHARGES

@<TRIPOS>ATOM
      1 C1          0.3458    0.8613   -0.9582 C.3       1 <0>        -0.1492
      2 C2          0.3121   -0.5590   -1.5261 C.3       1 <0>        -0.1314
      3 C3          0.9109   -0.5597   -2.9340 C.3       1 <0>         0.1316
      4 H1          1.9111   -0.1274   -2.9037 H         1 <0>         0.1016
      5 C4          0.9919   -1.9967   -3.4531 C.3       1 <0>        -0.1616
      6 N1          0.0625    0.2346   -3.8260 N.am      1 <0>        -0.5887
      7 C5         -1.3367   -0.1451   -4.0363 C.3       1 <0>         0.0851
      8 C6          0.5693    1.3147   -4.4530 C.2       1 <0>         0.5727
      9 O1          1.7517    1.5771   -4.3516 O.2       1 <0>        -0.5377
     10 C7         -0.3139    2.1810   -5.2648 C.ar      1 <0>         0.0504
     11 C8          0.2508    3.2052   -6.0030 C.ar      1 <0>        -0.0724
     12 C9         -0.5809    4.0326   -6.7773 C.ar      1 <0>        -0.0372
     13 C10        -0.0751    5.0886   -7.5496 C.ar      1 <0>        -0.0970
     14 C11        -0.9332    5.8556   -8.2799 C.ar      1 <0>        -0.1015
     15 C12        -2.3033    5.6066   -8.2702 C.ar      1 <0>        -0.1022
     16 C13        -2.8279    4.5876   -7.5300 C.ar      1 <0>        -0.0984
     17 C14        -1.9771    3.7799   -6.7689 C.ar      1 <0>        -0.0736
     18 C15        -2.4781    2.6743   -5.9571 C.ar      1 <0>         0.1999
     19 N2         -1.6255    1.9438   -5.2636 N.ar      1 <0>        -0.4328
     20 C16        -3.9273    2.3727   -5.9164 C.ar      1 <0>        -0.0367
     21 C17        -4.6423    2.2095   -7.1030 C.ar      1 <0>        -0.0870
     22 C18        -5.9922    1.9287   -7.0588 C.ar      1 <0>        -0.1151
     23 C19        -6.6380    1.8087   -5.8408 C.ar      1 <0>        -0.0932
     24 C20        -5.9359    1.9695   -4.6603 C.ar      1 <0>        -0.1122
     25 C21        -4.5825    2.2448   -4.6907 C.ar      1 <0>        -0.0039
     26 Cl1        -3.7004    2.4389   -3.2081 Cl        1 <0>        -0.0491
     27 H2          1.3774    1.2106   -0.9144 H         1 <0>         0.0547
     28 H3         -0.2350    1.5233   -1.6004 H         1 <0>         0.0510
     29 H4         -0.0808    0.8617    0.0448 H         1 <0>         0.0541
     30 H5          0.8929   -1.2210   -0.8839 H         1 <0>         0.0751
     31 H6         -0.7195   -0.9084   -1.5699 H         1 <0>         0.0663
     32 H7         -0.0082   -2.4289   -3.4835 H         1 <0>         0.0600
     33 H8          1.4186   -1.9971   -4.4562 H         1 <0>         0.0592
     34 H9          1.6232   -2.5877   -2.7895 H         1 <0>         0.0695
     35 H10        -1.9737    0.4264   -3.3613 H         1 <0>         0.0634
     36 H11        -1.6191    0.0655   -5.0678 H         1 <0>         0.0916
     37 H12        -1.4582   -1.2097   -3.8364 H         1 <0>         0.0573
     38 H13         1.3184    3.3677   -5.9844 H         1 <0>         0.1528
     39 H14         0.9854    5.2924   -7.5651 H         1 <0>         0.1376
     40 H15        -0.5446    6.6689   -8.8749 H         1 <0>         0.1323
     41 H16        -2.9610    6.2302   -8.8575 H         1 <0>         0.1319
     42 H17        -3.8925    4.4059   -7.5322 H         1 <0>         0.1365
     43 H18        -4.1401    2.3032   -8.0546 H         1 <0>         0.1359
     44 H19        -6.5465    1.8026   -7.9771 H         1 <0>         0.1356
     45 H20        -7.6950    1.5887   -5.8120 H         1 <0>         0.1363
     46 H21        -6.4457    1.8753   -3.7129 H         1 <0>         0.1386
@<TRIPOS>BOND
     1    1    2 1
     2    1   27 1
     3    1   28 1
     4    1   29 1
     5    2    3 1
     6    2   30 1
     7    2   31 1
     8    3    4 1
     9    3    5 1
    10    3    6 1
    11    5   32 1
    12    5   33 1
    13    5   34 1
    14    6    7 1
    15    6    8 am
    16    7   35 1
    17    7   36 1
    18    7   37 1
    19    8    9 2
    20    8   10 1
    21   10   19 ar
    22   10   11 ar
    23   11   12 ar
    24   11   38 1
    25   12   17 ar
    26   12   13 ar
    27   13   14 ar
    28   13   39 1
    29   14   15 ar
    30   14   40 1
    31   15   16 ar
    32   15   41 1
    33   16   17 ar
    34   16   42 1
    35   17   18 ar
    36   18   19 ar
    37   18   20 1
    38   20   25 ar
    39   20   21 ar
    40   21   22 ar
    41   21   43 1
    42   22   23 ar
    43   22   44 1
    44   23   24 ar
    45   23   45 1
    46   24   25 ar
    47   24   46 1
    48   25   26 1
@<TRIPOS>MOLECULE
ZINC03870482
   46    48     0     0     0
SMALL
USER_CHARGES

@<TRIPOS>ATOM
      1 C1          1.6261    3.2891   -0.4383 C.3       1 <0>        -0.1483
      2 C2          1.2900    1.8365   -0.0950 C.3       1 <0>        -0.1331
      3 C3          1.5880    0.9450   -1.3022 C.3       1 <0>         0.1317
      4 H1          1.0511    1.3212   -2.1730 H         1 <0>         0.1016
      5 C4          1.1363   -0.4859   -1.0034 C.3       1 <0>        -0.1604
      6 N1          3.0276    0.9560   -1.5739 N.am      1 <0>        -0.5887
      7 C5          3.9695    0.4937   -0.5515 C.3       1 <0>         0.0855
      8 C6          3.4854    1.3914   -2.7644 C.2       1 <0>         0.5726
      9 O1          2.7134    1.8599   -3.5779 O.2       1 <0>        -0.5373
     10 C7          4.9278    1.2991   -3.0810 C.ar      1 <0>         0.0504
     11 C8          5.3922    1.8703   -4.2519 C.ar      1 <0>        -0.0723
     12 C9          6.7611    1.7876   -4.5602 C.ar      1 <0>        -0.0373
     13 C10         7.2992    2.3448   -5.7295 C.ar      1 <0>        -0.0970
     14 C11         8.6358    2.2316   -5.9722 C.ar      1 <0>        -0.1015
     15 C12         9.4738    1.5713   -5.0772 C.ar      1 <0>        -0.1022
     16 C13         8.9827    1.0182   -3.9308 C.ar      1 <0>        -0.0985
     17 C14         7.6165    1.1155   -3.6491 C.ar      1 <0>        -0.0737
     18 C15         7.0314    0.5448   -2.4389 C.ar      1 <0>         0.1999
     19 N2          5.7356    0.6730   -2.2254 N.ar      1 <0>        -0.4330
     20 C16         7.8843   -0.1660   -1.4591 C.ar      1 <0>        -0.0367
     21 C17         9.0399    0.4405   -0.9664 C.ar      1 <0>        -0.0870
     22 C18         9.8305   -0.2267   -0.0538 C.ar      1 <0>        -0.1151
     23 C19         9.4799   -1.4953    0.3736 C.ar      1 <0>        -0.0932
     24 C20         8.3361   -2.1032   -0.1106 C.ar      1 <0>        -0.1121
     25 C21         7.5324   -1.4434   -1.0202 C.ar      1 <0>        -0.0039
     26 Cl1         6.0926   -2.2042   -1.6216 Cl        1 <0>        -0.0491
     27 H2          2.6825    3.3667   -0.6953 H         1 <0>         0.0506
     28 H3          1.0213    3.6113   -1.2860 H         1 <0>         0.0558
     29 H4          1.4138    3.9242    0.4218 H         1 <0>         0.0540
     30 H5          1.8948    1.5143    0.7527 H         1 <0>         0.0668
     31 H6          0.2336    1.7589    0.1620 H         1 <0>         0.0753
     32 H7          1.6733   -0.8621   -0.1326 H         1 <0>         0.0596
     33 H8          0.0652   -0.4941   -0.8013 H         1 <0>         0.0692
     34 H9          1.3486   -1.1210   -1.8635 H         1 <0>         0.0578
     35 H10         4.2167   -0.5524   -0.7317 H         1 <0>         0.0631
     36 H11         4.8778    1.0946   -0.5960 H         1 <0>         0.0916
     37 H12         3.5147    0.5951    0.4339 H         1 <0>         0.0574
     38 H13         4.7109    2.3738   -4.9218 H         1 <0>         0.1528
     39 H14         6.6598    2.8588   -6.4319 H         1 <0>         0.1376
     40 H15         9.0511    2.6604   -6.8723 H         1 <0>         0.1323
     41 H16        10.5291    1.4954   -5.2943 H         1 <0>         0.1319
     42 H17         9.6445    0.5092   -3.2456 H         1 <0>         0.1365
     43 H18         9.3153    1.4303   -1.2991 H         1 <0>         0.1359
     44 H19        10.7255    0.2421    0.3278 H         1 <0>         0.1356
     45 H20        10.1025   -2.0131    1.0883 H         1 <0>         0.1363
     46 H21         8.0682   -3.0937    0.2263 H         1 <0>         0.1386
@<TRIPOS>BOND
     1    1    2 1
     2    1   27 1
     3    1   28 1
     4    1   29 1
     5    2    3 1
     6    2   30 1
     7    2   31 1
     8    3    4 1
     9    3    5 1
    10    3    6 1
    11    5   32 1
    12    5   33 1
    13    5   34 1
    14    6    7 1
    15    6    8 am
    16    7   35 1
    17    7   36 1
    18    7   37 1
    19    8    9 2
    20    8   10 1
    21   10   19 ar
    22   10   11 ar
    23   11   12 ar
    24   11   38 1
    25   12   17 ar
    26   12   13 ar
    27   13   14 ar
    28   13   39 1
    29   14   15 ar
    30   14   40 1
    31   15   16 ar
    32   15   41 1
    33   16   17 ar
    34   16   42 1
    35   17   18 ar
    36   18   19 ar
    37   18   20 1
    38   20   25 ar
    39   20   21 ar
    40   21   22 ar
    41   21   43 1
    42   22   23 ar
    43   22   44 1
    44   23   24 ar
    45   23   45 1
    46   24   25 ar
    47   24   46 1
    48   25   26 1
@<TRIPOS>MOLECULE
ZINC06116830
   31    34     0     0     0
SMALL
USER_CHARGES

@<TRIPOS>ATOM
      1 C1         -0.0167    1.3787    0.0096 C.ar      1 <0>        -0.1327
      2 C2          1.1696    2.0894    0.0021 C.ar      1 <0>        -0.0965
      3 C3          2.3774    1.4199   -0.0130 C.ar      1 <0>        -0.1294
      4 C4          2.3997    0.0311   -0.0207 C.ar      1 <0>         0.1617
      5 C5          1.2064   -0.6798   -0.0132 C.ar      1 <0>        -0.1479
      6 C6          0.0021   -0.0041    0.0020 C.ar      1 <0>        -0.0920
      7 N1          3.6219   -0.6505   -0.0365 N.am      1 <0>        -0.4119
      8 C7          3.7466   -1.9989   -0.0504 C.2       1 <0>         0.5203
      9 O1          2.8666   -2.8222    0.0884 O.2       1 <0>        -0.4581
     10 C8          5.2111   -2.2553   -0.2756 C.3       1 <0>        -0.1767
     11 H1          5.3894   -2.6474   -1.2769 H         1 <0>         0.1739
     12 C9          5.8444   -3.1341    0.7662 C.2       1 <0>         0.2097
     13 N2          7.0512   -2.9179    1.1732 N.2       1 <0>        -0.4777
     14 C10         7.8612   -1.9112    0.7343 C.ar      1 <0>         0.1051
     15 C11         9.2421   -1.9525    0.8942 C.ar      1 <0>        -0.0788
     16 C12        10.0161   -0.8928    0.4645 C.ar      1 <0>        -0.0921
     17 C13         9.4408    0.2208   -0.1264 C.ar      1 <0>        -0.1117
     18 C14         8.0704    0.2820   -0.3105 C.ar      1 <0>        -0.0636
     19 C15         7.2859   -0.7776    0.0996 C.ar      1 <0>        -0.0651
     20 C16         5.8307   -0.8661   -0.1086 C.2       1 <0>         0.1408
     21 N3          4.8735   -0.0286   -0.0461 N.2       1 <0>        -0.1953
     22 H2         -0.9598    1.9047    0.0260 H         1 <0>         0.1280
     23 H3          1.1515    3.1693    0.0077 H         1 <0>         0.1312
     24 H4          3.3034    1.9756   -0.0193 H         1 <0>         0.1348
     25 H5          1.2204   -1.7596   -0.0191 H         1 <0>         0.1507
     26 H6         -0.9261   -0.5562    0.0079 H         1 <0>         0.1325
     27 H7          5.2824   -3.9579    1.1807 H         1 <0>         0.1840
     28 H8          9.7082   -2.8118    1.3532 H         1 <0>         0.1424
     29 H9         11.0878   -0.9324    0.5914 H         1 <0>         0.1377
     30 H10        10.0638    1.0438   -0.4439 H         1 <0>         0.1382
     31 H11         7.6196    1.1491   -0.7700 H         1 <0>         0.1383
@<TRIPOS>BOND
     1    1    6 ar
     2    1    2 ar
     3    1   22 1
     4    2    3 ar
     5    2   23 1
     6    3    4 ar
     7    3   24 1
     8    4    5 ar
     9    4    7 1
    10    5    6 ar
    11    5   25 1
    12    6   26 1
    13    7   21 1
    14    7    8 am
    15    8    9 2
    16    8   10 1
    17   10   11 1
    18   10   20 1
    19   10   12 1
    20   12   13 2
    21   12   27 1
    22   13   14 1
    23   14   19 ar
    24   14   15 ar
    25   15   16 ar
    26   15   28 1
    27   16   17 ar
    28   16   29 1
    29   17   18 ar
    30   17   30 1
    31   18   19 ar
    32   18   31 1
    33   19   20 1
    34   20   21 2
@<TRIPOS>MOLECULE
ZINC13448368
   31    34     0     0     0
SMALL
USER_CHARGES

@<TRIPOS>ATOM
      1 C1         -0.0167    1.3798    0.0096 C.ar      1 <0>        -0.1121
      2 C2          1.1711    2.0935    0.0021 C.ar      1 <0>        -0.0903
      3 C3          2.3911    1.4477   -0.0289 C.ar      1 <0>        -0.0793
      4 C4          2.4391    0.0581   -0.0492 C.ar      1 <0>         0.1057
      5 C5          1.2150   -0.6634   -0.0118 C.ar      1 <0>        -0.0678
      6 C6          0.0021   -0.0041    0.0020 C.ar      1 <0>        -0.0615
      7 C7          1.3819   -2.1198    0.0400 C.2       1 <0>         0.1460
      8 N1          0.7255   -3.1190   -0.3945 N.2       1 <0>        -0.1976
      9 N2          1.4244   -4.3207   -0.2506 N.am      1 <0>        -0.4133
     10 C8          2.6392   -4.1137    0.3126 C.2       1 <0>         0.5219
     11 O1          3.5391   -4.9164    0.4433 O.2       1 <0>        -0.4551
     12 C9          2.6289   -2.6734    0.7395 C.3       1 <0>        -0.1773
     13 H1          2.5401   -2.5894    1.8227 H         1 <0>         0.1755
     14 C10         3.7817   -1.8623    0.2209 C.2       1 <0>         0.2093
     15 N3          3.6191   -0.6247   -0.1160 N.2       1 <0>        -0.4766
     16 C11         0.9336   -5.5734   -0.6371 C.ar      1 <0>         0.1703
     17 C12         1.7054   -6.7122   -0.4456 C.ar      1 <0>        -0.1360
     18 C13         1.2187   -7.9469   -0.8274 C.ar      1 <0>        -0.0802
     19 C14        -0.0367   -8.0501   -1.4007 C.ar      1 <0>        -0.0503
     20 C15        -0.8076   -6.9169   -1.5931 C.ar      1 <0>        -0.0851
     21 C16        -0.3283   -5.6806   -1.2075 C.ar      1 <0>        -0.1171
     22 Cl1        -0.6452   -9.6037   -1.8800 Cl        1 <0>        -0.0633
     23 H2         -0.9602    1.9051    0.0260 H         1 <0>         0.1386
     24 H3          1.1420    3.1730    0.0204 H         1 <0>         0.1381
     25 H4          3.3065    2.0207   -0.0377 H         1 <0>         0.1426
     26 H5         -0.9224   -0.5623    0.0072 H         1 <0>         0.1386
     27 H6          4.7567   -2.3176    0.1285 H         1 <0>         0.1844
     28 H7          2.6854   -6.6322    0.0011 H         1 <0>         0.1597
     29 H8          1.8184   -8.8327   -0.6787 H         1 <0>         0.1440
     30 H9         -1.7867   -7.0002   -2.0411 H         1 <0>         0.1428
     31 H10        -0.9322   -4.7972   -1.3535 H         1 <0>         0.1452
@<TRIPOS>BOND
     1    1    6 ar
     2    1    2 ar
     3    1   23 1
     4    2    3 ar
     5    2   24 1
     6    3    4 ar
     7    3   25 1
     8    4   15 1
     9    4    5 ar
    10    5    6 ar
    11    5    7 1
    12    6   26 1
    13    7   12 1
    14    7    8 2
    15    8    9 1
    16    9   10 am
    17    9   16 1
    18   10   11 2
    19   10   12 1
    20   12   13 1
    21   12   14 1
    22   14   15 2
    23   14   27 1
    24   16   21 ar
    25   16   17 ar
    26   17   18 ar
    27   17   28 1
    28   18   19 ar
    29   18   29 1
    30   19   20 ar
    31   19   22 1
    32   20   21 ar
    33   20   30 1
    34   21   31 1
@<TRIPOS>MOLECULE
ZINC04081043
   57    60     0     0     0
SMALL
USER_CHARGES

@<TRIPOS>ATOM
      1 C1          0.4305    0.7603    1.2524 C.3       1 <0>        -0.2078
      2 C2          0.0078   -0.0015    0.0228 C.2       1 <0>         0.3650
      3 O1          0.7078    0.0040   -0.9612 O.2       1 <0>        -0.4549
      4 C3         -1.2884   -0.7702    0.0211 C.3       1 <0>        -0.1328
      5 H1         -2.0398   -0.2439    0.6097 H         1 <0>         0.0964
      6 C4         -1.7897   -0.9743   -1.4305 C.3       1 <0>        -0.1183
      7 C5         -1.9272   -2.5079   -1.6347 C.3       1 <0>        -0.1149
      8 C6         -2.1072   -3.0295   -0.2052 C.3       1 <0>        -0.0793
      9 H2         -3.1163   -2.8214    0.1505 H         1 <0>         0.0755
     10 C7         -1.0709   -2.1744    0.5756 C.3       1 <0>        -0.0481
     11 C8         -1.3419   -2.3680    2.0548 C.3       1 <0>        -0.1049
     12 C9         -1.0702   -3.8465    2.3805 C.3       1 <0>        -0.1183
     13 C10        -1.9287   -4.7704    1.5236 C.3       1 <0>        -0.0686
     14 H3         -2.9773   -4.6095    1.7739 H         1 <0>         0.0643
     15 C11        -1.7608   -4.4900    0.0161 C.3       1 <0>        -0.0751
     16 H4         -0.7249   -4.6704   -0.2710 H         1 <0>         0.0813
     17 C12        -2.7044   -5.3875   -0.7856 C.3       1 <0>        -0.1105
     18 C13        -2.3711   -6.8547   -0.5068 C.3       1 <0>        -0.1180
     19 C14        -2.5419   -7.1428    0.9861 C.3       1 <0>        -0.0667
     20 H5         -3.5728   -6.9432    1.2785 H         1 <0>         0.0777
     21 C15        -1.5715   -6.2298    1.8074 C.3       1 <0>        -0.0444
     22 C16        -1.7484   -6.5168    3.2999 C.3       1 <0>        -0.1052
     23 C17        -1.3974   -7.9783    3.5846 C.3       1 <0>        -0.1524
     24 C18        -2.3218   -8.8919    2.7772 C.3       1 <0>         0.1043
     25 H6         -2.0717   -9.9332    2.9803 H         1 <0>         0.0509
     26 C19        -2.2082   -8.6094    1.2649 C.3       1 <0>        -0.1077
     27 O2         -3.6792   -8.6463    3.1503 O.3       1 <0>        -0.5640
     28 C20        -0.1178   -6.4871    1.4054 C.3       1 <0>        -0.1503
     29 C21         0.3454   -2.6483    0.2431 C.3       1 <0>        -0.1561
     30 H7          1.3866    1.2494    1.0660 H         1 <0>         0.0806
     31 H8         -0.3219    1.5122    1.4904 H         1 <0>         0.0915
     32 H9          0.5324    0.0704    2.0901 H         1 <0>         0.0917
     33 H10        -2.7575   -0.4909   -1.5635 H         1 <0>         0.0668
     34 H11        -1.0668   -0.5662   -2.1368 H         1 <0>         0.0782
     35 H12        -2.8019   -2.7391   -2.2426 H         1 <0>         0.0666
     36 H13        -1.0238   -2.9196   -2.0846 H         1 <0>         0.0687
     37 H14        -0.6781   -1.7314    2.6398 H         1 <0>         0.0628
     38 H15        -2.3810   -2.1244    2.2763 H         1 <0>         0.0664
     39 H16        -0.0182   -4.0648    2.1968 H         1 <0>         0.0686
     40 H17        -1.2924   -4.0268    3.4323 H         1 <0>         0.0640
     41 H18        -3.7345   -5.1866   -0.4913 H         1 <0>         0.0604
     42 H19        -2.5838   -5.1833   -1.8495 H         1 <0>         0.0619
     43 H20        -3.0423   -7.4948   -1.0793 H         1 <0>         0.0598
     44 H21        -1.3405   -7.0550   -0.7997 H         1 <0>         0.0626
     45 H22        -1.0896   -5.8664    3.8754 H         1 <0>         0.0624
     46 H23        -2.7835   -6.3295    3.5856 H         1 <0>         0.0668
     47 H24        -0.3622   -8.1655    3.2996 H         1 <0>         0.0731
     48 H25        -1.5239   -8.1818    4.6480 H         1 <0>         0.0627
     49 H26        -2.8777   -9.2498    0.6907 H         1 <0>         0.0697
     50 H27        -1.1768   -8.8089    0.9743 H         1 <0>         0.0700
     51 H28        -3.8652   -8.8069    4.0856 H         1 <0>         0.3719
     52 H29         0.5391   -5.8341    1.9800 H         1 <0>         0.0555
     53 H30         0.1365   -7.5275    1.6078 H         1 <0>         0.0560
     54 H31         0.0066   -6.2829    0.3420 H         1 <0>         0.0597
     55 H32         1.0693   -2.0312    0.7753 H         1 <0>         0.0491
     56 H33         0.4613   -3.6885    0.5474 H         1 <0>         0.0718
     57 H34         0.5145   -2.5627   -0.8303 H         1 <0>         0.0632
@<TRIPOS>BOND
     1    1    2 1
     2    1   30 1
     3    1   31 1
     4    1   32 1
     5    2    3 2
     6    2    4 1
     7    4    5 1
     8    4   10 1
     9    4    6 1
    10    6    7 1
    11    6   33 1
    12    6   34 1
    13    7    8 1
    14    7   35 1
    15    7   36 1
    16    8    9 1
    17    8   15 1
    18    8   10 1
    19   10   11 1
    20   10   29 1
    21   11   12 1
    22   11   37 1
    23   11   38 1
    24   12   13 1
    25   12   39 1
    26   12   40 1
    27   13   14 1
    28   13   21 1
    29   13   15 1
    30   15   16 1
    31   15   17 1
    32   17   18 1
    33   17   41 1
    34   17   42 1
    35   18   19 1
    36   18   43 1
    37   18   44 1
    38   19   20 1
    39   19   26 1
    40   19   21 1
    41   21   22 1
    42   21   28 1
    43   22   23 1
    44   22   45 1
    45   22   46 1
    46   23   24 1
    47   23   47 1
    48   23   48 1
    49   24   25 1
    50   24   26 1
    51   24   27 1
    52   26   49 1
    53   26   50 1
    54   27   51 1
    55   28   52 1
    56   28   53 1
    57   28   54 1
    58   29   55 1
    59   29   56 1
    60   29   57 1
@<TRIPOS>MOLECULE
ZINC03800039
   57    60     0     0     0
SMALL
USER_CHARGES
1-(3-hydroxy-10,13-dimethyl-2,3,4,5,6,7,8,9,11,12,14,15,16,17-tetradecahydro-1H-cyclopenta[a]phenanthren-17-yl)ethanone
@<TRIPOS>ATOM
      1 C1          1.8452    1.0926   -6.8681 C.3       1 <0>        -0.1979
      2 C2          2.9588    1.0521   -5.8536 C.2       1 <0>         0.3625
      3 O1          3.7958    1.9225   -5.8405 O.2       1 <0>        -0.4547
      4 C3          3.0280   -0.0747   -4.8553 C.3       1 <0>        -0.1247
      5 H1          2.7125   -0.9207   -5.2852 H         1 <0>         0.0884
      6 C4          4.4752   -0.2352   -4.3263 C.3       1 <0>        -0.1195
      7 C5          4.3974   -0.0780   -2.7831 C.3       1 <0>        -0.1138
      8 C6          2.9457   -0.4509   -2.4729 C.3       1 <0>        -0.0783
      9 H2          2.8010   -1.5300   -2.5261 H         1 <0>         0.0765
     10 C7          2.1846    0.2541   -3.6279 C.3       1 <0>        -0.0491
     11 C8          0.7618   -0.2690   -3.6229 C.3       1 <0>        -0.1052
     12 C9          0.1167    0.1737   -2.2987 C.3       1 <0>        -0.1197
     13 C10         0.9088   -0.3327   -1.0984 C.3       1 <0>        -0.0720
     14 H3          0.8553   -1.4213   -1.0879 H         1 <0>         0.0741
     15 C11         2.3843    0.0936   -1.1729 C.3       1 <0>        -0.0757
     16 H4          2.4555    1.1810   -1.1511 H         1 <0>         0.0836
     17 C12         3.1366   -0.4973    0.0205 C.3       1 <0>        -0.1162
     18 C13         2.5231    0.0276    1.3202 C.3       1 <0>        -0.1155
     19 C14         1.0506   -0.3812    1.3933 C.3       1 <0>        -0.0715
     20 H5          0.6139   -0.0035    2.3178 H         1 <0>         0.0698
     21 C15         0.2979    0.2050    0.1965 C.3       1 <0>        -0.0481
     22 C16        -1.1757   -0.1996    0.2743 C.3       1 <0>        -0.1089
     23 C17        -1.2838   -1.7279    0.2433 C.3       1 <0>        -0.1530
     24 C18        -0.5301   -2.3162    1.4377 C.3       1 <0>         0.1048
     25 H6         -0.9657   -1.9396    2.3632 H         1 <0>         0.0511
     26 C19         0.9423   -1.9073    1.3638 C.3       1 <0>        -0.1102
     27 O2         -0.6306   -3.7413    1.4093 O.3       1 <0>        -0.5695
     28 C20         0.4107    1.7306    0.2195 C.3       1 <0>        -0.1493
     29 C21         2.1804    1.7660   -3.3934 C.3       1 <0>        -0.1562
     30 H7          1.2467    0.3022   -6.7378 H         1 <0>         0.0723
     31 H8          1.2697    2.0093   -6.7395 H         1 <0>         0.0906
     32 H9          2.2677    1.0668   -7.8726 H         1 <0>         0.0914
     33 H10         4.8600   -1.2222   -4.5829 H         1 <0>         0.0671
     34 H11         5.1161    0.5383   -4.7494 H         1 <0>         0.0792
     35 H12         5.0863   -0.7640   -2.2903 H         1 <0>         0.0669
     36 H13         4.6042    0.9511   -2.4894 H         1 <0>         0.0695
     37 H14         0.7664   -1.3571   -3.6876 H         1 <0>         0.0659
     38 H15         0.2092    0.1510   -4.4633 H         1 <0>         0.0636
     39 H16        -0.8986   -0.2194   -2.2476 H         1 <0>         0.0637
     40 H17         0.0794    1.2626   -2.2677 H         1 <0>         0.0689
     41 H18         4.1855   -0.2050   -0.0302 H         1 <0>         0.0622
     42 H19         3.0607   -1.5843   -0.0041 H         1 <0>         0.0640
     43 H20         2.5997    1.1147    1.3448 H         1 <0>         0.0669
     44 H21         3.0594   -0.3932    2.1707 H         1 <0>         0.0617
     45 H22        -1.6083    0.1795    1.2002 H         1 <0>         0.0621
     46 H23        -1.7131    0.2195   -0.5764 H         1 <0>         0.0690
     47 H24        -0.8490   -2.1053   -0.6823 H         1 <0>         0.0743
     48 H25        -2.3329   -2.0185    0.2968 H         1 <0>         0.0611
     49 H26         1.3781   -2.2845    0.4387 H         1 <0>         0.0770
     50 H27         1.4787   -2.3260    2.2153 H         1 <0>         0.0662
     51 H28        -1.5380   -4.0726    1.4529 H         1 <0>         0.3770
     52 H29         1.4606    2.0182    0.1644 H         1 <0>         0.0629
     53 H30        -0.1255    2.1475   -0.6330 H         1 <0>         0.0569
     54 H31        -0.0227    2.1131    1.1436 H         1 <0>         0.0530
     55 H32         1.6739    1.9865   -2.4538 H         1 <0>         0.0724
     56 H33         3.2070    2.1293   -3.3468 H         1 <0>         0.0637
     57 H34         1.6572    2.2592   -4.2126 H         1 <0>         0.0490
@<TRIPOS>BOND
     1    1    2 1
     2    1   30 1
     3    1   31 1
     4    1   32 1
     5    2    3 2
     6    2    4 1
     7    4    5 1
     8    4   10 1
     9    4    6 1
    10    6    7 1
    11    6   33 1
    12    6   34 1
    13    7    8 1
    14    7   35 1
    15    7   36 1
    16    8    9 1
    17    8   15 1
    18    8   10 1
    19   10   11 1
    20   10   29 1
    21   11   12 1
    22   11   37 1
    23   11   38 1
    24   12   13 1
    25   12   39 1
    26   12   40 1
    27   13   14 1
    28   13   21 1
    29   13   15 1
    30   15   16 1
    31   15   17 1
    32   17   18 1
    33   17   41 1
    34   17   42 1
    35   18   19 1
    36   18   43 1
    37   18   44 1
    38   19   20 1
    39   19   26 1
    40   19   21 1
    41   21   22 1
    42   21   28 1
    43   22   23 1
    44   22   45 1
    45   22   46 1
    46   23   24 1
    47   23   47 1
    48   23   48 1
    49   24   25 1
    50   24   26 1
    51   24   27 1
    52   26   49 1
    53   26   50 1
    54   27   51 1
    55   28   52 1
    56   28   53 1
    57   28   54 1
    58   29   55 1
    59   29   56 1
    60   29   57 1
@<TRIPOS>MOLECULE
ZINC00025301
   27    29     0     0     0
SMALL
USER_CHARGES

@<TRIPOS>ATOM
      1 C1         -0.0173    1.4248    0.0099 C.3       1 <0>         0.0312
      2 O1          0.0021   -0.0041    0.0020 O.3       1 <0>        -0.3302
      3 C2          0.6204   -0.6130    1.0325 C.2       1 <0>         0.5293
      4 O2          1.1292    0.0507    1.9135 O.2       1 <0>        -0.5011
      5 C3          0.6797   -2.0882    1.0910 C.ar      1 <0>         0.0397
      6 C4          1.3159   -2.7095    2.1626 C.ar      1 <0>        -0.0329
      7 C5          1.3598   -4.1000    2.1971 C.ar      1 <0>        -0.0832
      8 C6          1.9195   -5.0927    3.1278 C.ar      1 <0>        -0.1038
      9 C7          2.6185   -4.9977    4.3293 C.ar      1 <0>        -0.0556
     10 C8          3.0181   -6.1435    4.9819 C.ar      1 <0>        -0.1427
     11 C9          2.7270   -7.3895    4.4472 C.ar      1 <0>        -0.0753
     12 C10         2.0365   -7.4987    3.2600 C.ar      1 <0>        -0.1378
     13 C11         1.6241   -6.3532    2.5853 C.ar      1 <0>         0.1402
     14 N1          0.9310   -6.1684    1.4028 N.pl3     1 <0>        -0.5952
     15 H1          0.6094   -6.8838    0.8322 H         1 <0>         0.4248
     16 C12         0.7612   -4.8255    1.1505 C.ar      1 <0>         0.1174
     17 C13         0.1456   -4.1204    0.1158 C.ar      1 <0>         0.0983
     18 N2          0.1196   -2.8083    0.1213 N.ar      1 <0>        -0.4043
     19 H2          1.0053    1.8021    0.0021 H         1 <0>         0.0622
     20 H3         -0.5445    1.7859   -0.8732 H         1 <0>         0.1054
     21 H4         -0.5275    1.7763    0.9067 H         1 <0>         0.0622
     22 H5          1.7663   -2.1243    2.9506 H         1 <0>         0.1540
     23 H6          2.8469   -4.0286    4.7478 H         1 <0>         0.1310
     24 H7          3.5603   -6.0709    5.9131 H         1 <0>         0.1325
     25 H8          3.0446   -8.2820    4.9658 H         1 <0>         0.1343
     26 H9          1.8151   -8.4740    2.8524 H         1 <0>         0.1294
     27 H10        -0.3191   -4.6604   -0.6960 H         1 <0>         0.1702
@<TRIPOS>BOND
     1    1    2 1
     2    1   19 1
     3    1   20 1
     4    1   21 1
     5    2    3 1
     6    3    4 2
     7    3    5 1
     8    5   18 ar
     9    5    6 ar
    10    6    7 ar
    11    6   22 1
    12    7   16 ar
    13    7    8 1
    14    8   13 ar
    15    8    9 ar
    16    9   10 ar
    17    9   23 1
    18   10   11 ar
    19   10   24 1
    20   11   12 ar
    21   11   25 1
    22   12   13 ar
    23   12   26 1
    24   13   14 1
    25   14   15 1
    26   14   16 1
    27   16   17 ar
    28   17   18 ar
    29   17   27 1
@<TRIPOS>MOLECULE
ZINC00025301
   28    30     0     0     0
SMALL
USER_CHARGES

@<TRIPOS>ATOM
      1 C1         -0.0173    1.4248    0.0099 C.3       1 <0>         0.0337
      2 O1          0.0021   -0.0041    0.0020 O.3       1 <0>        -0.3534
      3 C2          0.6204   -0.6130    1.0325 C.2       1 <0>         0.5041
      4 O2          1.1292    0.0507    1.9135 O.2       1 <0>        -0.4436
      5 C3          0.6797   -2.0882    1.0910 C.ar      1 <0>         0.0580
      6 C4          1.3159   -2.7095    2.1626 C.ar      1 <0>         0.0154
      7 C5          1.3598   -4.1000    2.1971 C.ar      1 <0>        -0.0130
      8 C6          1.9195   -5.0927    3.1278 C.ar      1 <0>        -0.1156
      9 C7          2.6185   -4.9977    4.3293 C.ar      1 <0>        -0.0440
     10 C8          3.0181   -6.1435    4.9819 C.ar      1 <0>        -0.1218
     11 C9          2.7270   -7.3895    4.4472 C.ar      1 <0>        -0.0454
     12 C10         2.0365   -7.4987    3.2600 C.ar      1 <0>        -0.1295
     13 C11         1.6241   -6.3532    2.5853 C.ar      1 <0>         0.1537
     14 N1          0.9310   -6.1684    1.4028 N.pl3     1 <0>        -0.5651
     15 H1          0.6094   -6.8838    0.8322 H         1 <0>         0.4401
     16 C12         0.7612   -4.8255    1.1505 C.ar      1 <0>         0.1320
     17 C13         0.1456   -4.1204    0.1158 C.ar      1 <0>         0.1499
     18 N2          0.1196   -2.8083    0.1213 N.ar      1 <0>        -0.3940
     19 H2          1.0053    1.8021    0.0021 H         1 <0>         0.0760
     20 H3         -0.5445    1.7859   -0.8732 H         1 <0>         0.1206
     21 H4         -0.5275    1.7763    0.9067 H         1 <0>         0.0760
     22 H5          1.7663   -2.1243    2.9506 H         1 <0>         0.1968
     23 H6          2.8469   -4.0286    4.7478 H         1 <0>         0.1444
     24 H7          3.5603   -6.0709    5.9131 H         1 <0>         0.1479
     25 H8          3.0446   -8.2820    4.9658 H         1 <0>         0.1500
     26 H9          1.8151   -8.4740    2.8524 H         1 <0>         0.1441
     27 H10        -0.3191   -4.6604   -0.6960 H         1 <0>         0.2209
     28 H11        -0.3196   -2.3463   -0.6098 H         1 <0>         0.4620
@<TRIPOS>BOND
     1    1    2 1
     2    1   19 1
     3    1   20 1
     4    1   21 1
     5    2    3 1
     6    3    4 2
     7    3    5 1
     8    5   18 ar
     9    5    6 ar
    10    6    7 ar
    11    6   22 1
    12    7   16 ar
    13    7    8 1
    14    8   13 ar
    15    8    9 ar
    16    9   10 ar
    17    9   23 1
    18   10   11 ar
    19   10   24 1
    20   11   12 ar
    21   11   25 1
    22   12   13 ar
    23   12   26 1
    24   13   14 1
    25   14   15 1
    26   14   16 1
    27   16   17 ar
    28   17   18 ar
    29   17   27 1
    30   18   28 1
@<TRIPOS>MOLECULE
ZINC00066039
   22    24     0     0     0
SMALL
USER_CHARGES

@<TRIPOS>ATOM
      1 C1         -0.0166    1.3734    0.0096 C.ar      1 <0>        -0.1307
      2 C2          1.1715    2.0887    0.0021 C.ar      1 <0>        -0.0444
      3 C3          2.3832    1.4333   -0.0129 C.ar      1 <0>        -0.1365
      4 C4          2.4235    0.0420   -0.0208 C.ar      1 <0>         0.1617
      5 C5          1.2202   -0.6809   -0.0132 C.ar      1 <0>        -0.1308
      6 C6          0.0021   -0.0041    0.0020 C.ar      1 <0>        -0.0402
      7 C7          1.5904   -2.1045   -0.0248 C.ar      1 <0>         0.0046
      8 C8          0.8771   -3.3028   -0.0254 C.ar      1 <0>        -0.0656
      9 C9          1.5770   -4.4906   -0.0396 C.ar      1 <0>         0.0770
     10 N1          2.8983   -4.5024   -0.0520 N.ar      1 <0>        -0.4204
     11 C10         3.6150   -3.3976   -0.0516 C.ar      1 <0>         0.1179
     12 C11         2.9951   -2.1535   -0.0387 C.ar      1 <0>         0.1187
     13 N2          3.4741   -0.8575   -0.0360 N.pl3     1 <0>        -0.5844
     14 H1          4.4129   -0.6134   -0.0440 H         1 <0>         0.4367
     15 H2         -0.9603    1.8984    0.0259 H         1 <0>         0.1455
     16 H3          1.1466    3.1684    0.0077 H         1 <0>         0.1480
     17 H4          3.3028    1.9996   -0.0190 H         1 <0>         0.1416
     18 H5         -0.9250   -0.5581    0.0082 H         1 <0>         0.1413
     19 H6         -0.2028   -3.3005   -0.0146 H         1 <0>         0.1850
     20 H7          1.0369   -5.4259   -0.0402 H         1 <0>         0.2113
     21 H8          4.6932   -3.4586   -0.0613 H         1 <0>         0.2081
     22 H9          3.3575   -5.3568   -0.0614 H         1 <0>         0.4556
@<TRIPOS>BOND
     1    1    6 ar
     2    1    2 ar
     3    1   15 1
     4    2    3 ar
     5    2   16 1
     6    3    4 ar
     7    3   17 1
     8    4   13 1
     9    4    5 ar
    10    5    6 ar
    11    5    7 1
    12    6   18 1
    13    7   12 ar
    14    7    8 ar
    15    8    9 ar
    16    8   19 1
    17    9   10 ar
    18    9   20 1
    19   10   11 ar
    20   10   22 1
    21   11   12 ar
    22   11   21 1
    23   12   13 1
    24   13   14 1
@<TRIPOS>MOLECULE
ZINC00066039
   21    23     0     0     0
SMALL
USER_CHARGES

@<TRIPOS>ATOM
      1 C1         -0.0166    1.3734    0.0096 C.ar      1 <0>        -0.1504
      2 C2          1.1715    2.0887    0.0021 C.ar      1 <0>        -0.0753
      3 C3          2.3832    1.4333   -0.0129 C.ar      1 <0>        -0.1443
      4 C4          2.4235    0.0420   -0.0208 C.ar      1 <0>         0.1470
      5 C5          1.2202   -0.6809   -0.0132 C.ar      1 <0>        -0.1136
      6 C6          0.0021   -0.0041    0.0020 C.ar      1 <0>        -0.0541
      7 C7          1.5904   -2.1045   -0.0248 C.ar      1 <0>        -0.0683
      8 C8          0.8771   -3.3028   -0.0254 C.ar      1 <0>        -0.1121
      9 C9          1.5770   -4.4906   -0.0396 C.ar      1 <0>         0.0572
     10 N1          2.8983   -4.5024   -0.0520 N.ar      1 <0>        -0.4546
     11 C10         3.6150   -3.3976   -0.0520 C.ar      1 <0>         0.0950
     12 C11         2.9951   -2.1535   -0.0387 C.ar      1 <0>         0.0846
     13 N2          3.4741   -0.8575   -0.0360 N.pl3     1 <0>        -0.6069
     14 H1          4.4129   -0.6134   -0.0440 H         1 <0>         0.4211
     15 H2         -0.9603    1.8984    0.0259 H         1 <0>         0.1301
     16 H3          1.1466    3.1684    0.0077 H         1 <0>         0.1323
     17 H4          3.3028    1.9996   -0.0190 H         1 <0>         0.1270
     18 H5         -0.9250   -0.5581    0.0082 H         1 <0>         0.1278
     19 H6         -0.2028   -3.3005   -0.0146 H         1 <0>         0.1384
     20 H7          1.0369   -5.4259   -0.0402 H         1 <0>         0.1615
     21 H8          4.6932   -3.4586   -0.0621 H         1 <0>         0.1578
@<TRIPOS>BOND
     1    1    6 ar
     2    1    2 ar
     3    1   15 1
     4    2    3 ar
     5    2   16 1
     6    3    4 ar
     7    3   17 1
     8    4   13 1
     9    4    5 ar
    10    5    6 ar
    11    5    7 1
    12    6   18 1
    13    7   12 ar
    14    7    8 ar
    15    8    9 ar
    16    8   19 1
    17    9   10 ar
    18    9   20 1
    19   10   11 ar
    20   11   12 ar
    21   11   21 1
    22   12   13 1
    23   13   14 1
@<TRIPOS>MOLECULE
ZINC00004220
   42    46     0     0     0
SMALL
USER_CHARGES
(5-cyclopropyl-1,2,4-oxadiazol-3-yl)-isopropyl-BLAHone
@<TRIPOS>ATOM
      1 C1          1.4563    1.5106    0.0573 C.3       1 <0>        -0.1720
      2 C2         -0.0127    1.0858    0.0080 C.3       1 <0>         0.1310
      3 C3         -0.6781    1.6934   -1.2285 C.3       1 <0>        -0.1722
      4 N1         -0.6984    1.5583    1.2133 N.am      1 <0>        -0.5384
      5 C4         -1.3014    0.6393    2.0718 C.ar      1 <0>         0.1697
      6 C5         -1.2368   -0.7186    1.7819 C.ar      1 <0>        -0.1435
      7 C6         -1.8261   -1.6353    2.6290 C.ar      1 <0>        -0.0739
      8 C7         -2.4786   -1.2089    3.7727 C.ar      1 <0>        -0.1216
      9 C8         -2.5440    0.1371    4.0734 C.ar      1 <0>        -0.0857
     10 C9         -1.9546    1.0674    3.2278 C.ar      1 <0>         0.0712
     11 N2         -2.0217    2.4283    3.5333 N.pl3     1 <0>        -0.3776
     12 C10        -2.5723    3.1207    4.5466 C.2       1 <0>         0.2311
     13 N3         -2.3577    4.3989    4.3733 N.2       1 <0>        -0.4412
     14 C11        -1.6598    4.5913    3.2422 C.2       1 <0>         0.1722
     15 C12        -1.4325    3.3440    2.6862 C.2       1 <0>        -0.0588
     16 C13        -0.7466    2.8793    1.4818 C.2       1 <0>         0.5822
     17 O1         -0.2235    3.6783    0.7268 O.2       1 <0>        -0.4616
     18 C14        -1.2167    5.8944    2.6921 C.2       1 <0>         0.2316
     19 N4         -1.4436    7.1134    3.2328 N.2       1 <0>        -0.4486
     20 C15        -0.8755    7.9696    2.4209 C.2       1 <0>         0.2042
     21 O2         -0.3347    7.2656    1.4214 O.3       1 <0>         0.0896
     22 N5         -0.5375    6.0817    1.5896 N.2       1 <0>        -0.3230
     23 C16        -0.8428    9.4678    2.5803 C.3       1 <0>        -0.0809
     24 C17        -0.3047   10.2913    1.4084 C.3       1 <0>        -0.1576
     25 C18         0.5290   10.1376    2.6820 C.3       1 <0>        -0.1524
     26 H1          1.5186    2.5977    0.1083 H         1 <0>         0.0825
     27 H2          1.9303    1.0778    0.9383 H         1 <0>         0.0572
     28 H3          1.9665    1.1591   -0.8395 H         1 <0>         0.0763
     29 H4         -0.0750   -0.0012   -0.0430 H         1 <0>         0.1031
     30 H5         -0.1679    1.3419   -2.1253 H         1 <0>         0.0763
     31 H6         -1.7246    1.3907   -1.2637 H         1 <0>         0.0571
     32 H7         -0.6157    2.7804   -1.1775 H         1 <0>         0.0826
     33 H8         -0.7292   -1.0563    0.8905 H         1 <0>         0.1460
     34 H9         -1.7781   -2.6893    2.3983 H         1 <0>         0.1410
     35 H10        -2.9380   -1.9309    4.4315 H         1 <0>         0.1418
     36 H11        -3.0537    0.4664    4.9669 H         1 <0>         0.1420
     37 H12        -3.1096    2.6870    5.3771 H         1 <0>         0.2279
     38 H13        -1.6567    9.8962    3.1652 H         1 <0>         0.1512
     39 H14         0.0256    9.7494    0.5222 H         1 <0>         0.1083
     40 H15        -0.7648   11.2617    1.2221 H         1 <0>         0.1147
     41 H16         0.6175   11.0070    3.3336 H         1 <0>         0.1152
     42 H17         1.4079    9.4947    2.6337 H         1 <0>         0.1031
@<TRIPOS>BOND
     1    1    2 1
     2    1   26 1
     3    1   27 1
     4    1   28 1
     5    2    3 1
     6    2    4 1
     7    2   29 1
     8    3   30 1
     9    3   31 1
    10    3   32 1
    11    4   16 am
    12    4    5 1
    13    5   10 ar
    14    5    6 ar
    15    6    7 ar
    16    6   33 1
    17    7    8 ar
    18    7   34 1
    19    8    9 ar
    20    8   35 1
    21    9   10 ar
    22    9   36 1
    23   10   11 1
    24   11   15 1
    25   11   12 1
    26   12   13 2
    27   12   37 1
    28   13   14 1
    29   14   15 2
    30   14   18 1
    31   15   16 1
    32   16   17 2
    33   18   22 2
    34   18   19 1
    35   19   20 2
    36   20   21 1
    37   20   23 1
    38   21   22 1
    39   23   25 1
    40   23   24 1
    41   23   38 1
    42   24   25 1
    43   24   39 1
    44   24   40 1
    45   25   41 1
    46   25   42 1
@<TRIPOS>MOLECULE
ZINC00004220
   43    47     0     0     0
SMALL
USER_CHARGES
(5-cyclopropyl-1,2,4-oxadiazol-3-yl)-isopropyl-BLAHone
@<TRIPOS>ATOM
      1 C1          1.4563    1.5106    0.0573 C.3       1 <0>        -0.1753
      2 C2         -0.0127    1.0858    0.0080 C.3       1 <0>         0.1269
      3 C3         -0.6781    1.6934   -1.2285 C.3       1 <0>        -0.1756
      4 N1         -0.6984    1.5583    1.2133 N.am      1 <0>        -0.5255
      5 C4         -1.3014    0.6393    2.0718 C.ar      1 <0>         0.1946
      6 C5         -1.2368   -0.7186    1.7819 C.ar      1 <0>        -0.1392
      7 C6         -1.8261   -1.6353    2.6290 C.ar      1 <0>        -0.0390
      8 C7         -2.4786   -1.2089    3.7727 C.ar      1 <0>        -0.1130
      9 C8         -2.5440    0.1371    4.0734 C.ar      1 <0>        -0.0680
     10 C9         -1.9546    1.0674    3.2278 C.ar      1 <0>         0.0265
     11 N2         -2.0217    2.4283    3.5333 N.pl3     1 <0>        -0.3189
     12 C10        -2.5723    3.1207    4.5466 C.cat     1 <0>         0.3146
     13 C11        -1.6598    4.5913    3.2422 C.2       1 <0>         0.2133
     14 C12        -1.4325    3.3440    2.6862 C.2       1 <0>         0.0125
     15 C13        -0.7466    2.8793    1.4818 C.2       1 <0>         0.5755
     16 O1         -0.2235    3.6783    0.7268 O.2       1 <0>        -0.4287
     17 C14        -1.2167    5.8944    2.6921 C.2       1 <0>         0.1786
     18 N3         -1.4436    7.1134    3.2328 N.2       1 <0>        -0.4744
     19 C15        -0.8755    7.9696    2.4209 C.2       1 <0>         0.2517
     20 O2         -0.3347    7.2656    1.4214 O.3       1 <0>         0.1156
     21 N4         -0.5375    6.0817    1.5896 N.2       1 <0>        -0.2883
     22 C16        -0.8428    9.4678    2.5803 C.3       1 <0>        -0.0999
     23 C17        -0.3047   10.2913    1.4084 C.3       1 <0>        -0.1512
     24 C18         0.5290   10.1376    2.6820 C.3       1 <0>        -0.1456
     25 H1          1.5186    2.5977    0.1083 H         1 <0>         0.0818
     26 H2          1.9303    1.0778    0.9383 H         1 <0>         0.0617
     27 H3          1.9665    1.1591   -0.8395 H         1 <0>         0.0870
     28 H4         -0.0750   -0.0012   -0.0430 H         1 <0>         0.1136
     29 H5         -0.1679    1.3419   -2.1253 H         1 <0>         0.0870
     30 H6         -1.7246    1.3907   -1.2637 H         1 <0>         0.0616
     31 H7         -0.6157    2.7804   -1.1775 H         1 <0>         0.0818
     32 H8         -0.7292   -1.0563    0.8905 H         1 <0>         0.1596
     33 H9         -1.7781   -2.6893    2.3983 H         1 <0>         0.1558
     34 H10        -2.9380   -1.9309    4.4315 H         1 <0>         0.1559
     35 H11        -3.0537    0.4664    4.9669 H         1 <0>         0.1506
     36 H12        -3.1096    2.6870    5.3771 H         1 <0>         0.2790
     37 H13        -1.6567    9.8962    3.1652 H         1 <0>         0.1586
     38 H14         0.0256    9.7494    0.5222 H         1 <0>         0.1120
     39 H15        -0.7648   11.2617    1.2221 H         1 <0>         0.1221
     40 H16         0.6175   11.0070    3.3336 H         1 <0>         0.1221
     41 H17         1.4079    9.4947    2.6337 H         1 <0>         0.1063
     42 N5         -2.3581    4.3999    4.3742 N.pl3     1 <0>        -0.4607
     43 H18        -2.6752    5.1437    5.0070 H         1 <0>         0.4968
@<TRIPOS>BOND
     1    1    2 1
     2    1   25 1
     3    1   26 1
     4    1   27 1
     5    2    3 1
     6    2    4 1
     7    2   28 1
     8    3   29 1
     9    3   30 1
    10    3   31 1
    11    4   15 am
    12    4    5 1
    13    5   10 ar
    14    5    6 ar
    15    6    7 ar
    16    6   32 1
    17    7    8 ar
    18    7   33 1
    19    8    9 ar
    20    8   34 1
    21    9   10 ar
    22    9   35 1
    23   10   11 1
    24   11   14 1
    25   11   12 1
    26   12   36 1
    27   12   42 2
    28   13   14 2
    29   13   17 1
    30   13   42 1
    31   14   15 1
    32   15   16 2
    33   17   21 2
    34   17   18 1
    35   18   19 2
    36   19   20 1
    37   19   22 1
    38   20   21 1
    39   22   24 1
    40   22   23 1
    41   22   37 1
    42   23   24 1
    43   23   38 1
    44   23   39 1
    45   24   40 1
    46   24   41 1
    47   42   43 1
@<TRIPOS>MOLECULE
ZINC06018490
   35    38     0     0     0
SMALL
USER_CHARGES

@<TRIPOS>ATOM
      1 C1         -0.0173    1.4248    0.0099 C.3       1 <0>         0.0230
      2 O1          0.0021   -0.0041    0.0020 O.3       1 <0>        -0.3111
      3 C2          0.6060   -0.6073   -1.0560 C.ar      1 <0>         0.1400
      4 C3          1.1727    0.1620   -2.0621 C.ar      1 <0>        -0.1913
      5 C4          1.7862   -0.4500   -3.1368 C.ar      1 <0>        -0.0548
      6 C5          1.8359   -1.8358   -3.2108 C.ar      1 <0>         0.0906
      7 C6          1.2685   -2.6051   -2.2037 C.ar      1 <0>        -0.0737
      8 C7          0.6603   -1.9919   -1.1266 C.ar      1 <0>        -0.1307
      9 N1          2.4583   -2.4579   -4.3022 N.pl3     1 <0>        -0.2920
     10 C8          3.1533   -3.6104   -4.2438 C.2       1 <0>         0.3315
     11 O2          3.3689   -4.3591   -3.1356 O.3       1 <0>        -0.4500
     12 C9          3.6078   -3.8925   -5.5241 C.ar      1 <0>        -0.2847
     13 C10         4.3693   -4.9200   -6.1155 C.ar      1 <0>         0.2491
     14 N2          4.6487   -4.9192   -7.3879 N.ar      1 <0>        -0.5044
     15 C11         4.2483   -3.9587   -8.2513 C.ar      1 <0>         0.1338
     16 C12         4.5945   -4.0373   -9.6070 C.ar      1 <0>        -0.0940
     17 C13         4.1841   -3.0572  -10.4792 C.ar      1 <0>        -0.0955
     18 C14         3.4257   -1.9823  -10.0352 C.ar      1 <0>        -0.1238
     19 C15         3.0713   -1.8812   -8.7078 C.ar      1 <0>        -0.0779
     20 C16         3.4769   -2.8628   -7.8076 C.ar      1 <0>        -0.0650
     21 C17         3.1228   -2.7959   -6.3820 C.ar      1 <0>         0.1462
     22 N3          2.4455   -1.9776   -5.6172 N.2       1 <0>        -0.2589
     23 H1          1.0053    1.8021    0.0021 H         1 <0>         0.0595
     24 H2         -0.5445    1.7859   -0.8732 H         1 <0>         0.0596
     25 H3         -0.5275    1.7763    0.9067 H         1 <0>         0.1056
     26 H4          1.1337    1.2397   -2.0046 H         1 <0>         0.1422
     27 H5          2.2270    0.1488   -3.9200 H         1 <0>         0.1403
     28 H6          1.3065   -3.6829   -2.2609 H         1 <0>         0.1342
     29 H7          0.2228   -2.5901   -0.3410 H         1 <0>         0.1466
     30 H8          4.7310   -5.7288   -5.4980 H         1 <0>         0.1642
     31 H9          5.1840   -4.8677   -9.9665 H         1 <0>         0.1386
     32 H10         4.4553   -3.1239  -11.5225 H         1 <0>         0.1327
     33 H11         3.1123   -1.2210  -10.7342 H         1 <0>         0.1311
     34 H12         2.4816   -1.0432   -8.3665 H         1 <0>         0.1309
     35 H13         2.6915   -5.0306   -2.9767 H         1 <0>         0.4080
@<TRIPOS>BOND
     1    1    2 1
     2    1   23 1
     3    1   24 1
     4    1   25 1
     5    2    3 1
     6    3    8 ar
     7    3    4 ar
     8    4    5 ar
     9    4   26 1
    10    5    6 ar
    11    5   27 1
    12    6    7 ar
    13    6    9 1
    14    7    8 ar
    15    7   28 1
    16    8   29 1
    17    9   22 1
    18    9   10 1
    19   10   11 1
    20   10   12 2
    21   11   35 1
    22   12   21 ar
    23   12   13 ar
    24   13   14 ar
    25   13   30 1
    26   14   15 ar
    27   15   20 ar
    28   15   16 ar
    29   16   17 ar
    30   16   31 1
    31   17   18 ar
    32   17   32 1
    33   18   19 ar
    34   18   33 1
    35   19   20 ar
    36   19   34 1
    37   20   21 ar
    38   21   22 2
@<TRIPOS>MOLECULE
ZINC13119575
   38    39     0     0     0
SMALL
USER_CHARGES

@<TRIPOS>ATOM
      1 C1         -0.0173    1.4248    0.0099 C.3       1 <0>         0.0211
      2 O1          0.0021   -0.0041    0.0020 O.3       1 <0>        -0.3091
      3 C2         -1.1999   -0.6373    0.0101 C.ar      1 <0>         0.1673
      4 C3         -2.3736    0.1044    0.0195 C.ar      1 <0>        -0.2122
      5 C4         -3.5951   -0.5353    0.0277 C.ar      1 <0>        -0.0219
      6 C5         -3.6508   -1.9284    0.0261 C.ar      1 <0>        -0.1158
      7 C6         -2.4705   -2.6703    0.0162 C.ar      1 <0>        -0.0414
      8 C7         -1.2521   -2.0247    0.0031 C.ar      1 <0>        -0.1531
      9 C8         -4.9627   -2.6195    0.0354 C.ar      1 <0>         0.1698
     10 C9         -5.0194   -4.0177    0.0397 C.ar      1 <0>        -0.0236
     11 C10        -6.2661   -4.6162    0.0488 C.ar      1 <0>        -0.1326
     12 C11        -7.3905   -3.7887    0.0533 C.ar      1 <0>         0.4141
     13 N1         -7.2418   -2.4721    0.0487 N.ar      1 <0>        -0.2237
     14 N2         -6.0857   -1.9144    0.0453 N.ar      1 <0>        -0.2096
     15 C12        -8.4367   -1.6246    0.0530 C.3       1 <0>         0.0689
     16 C13        -8.8446   -1.3255    1.4970 C.3       1 <0>        -0.1114
     17 C14       -10.0926   -0.4403    1.5015 C.3       1 <0>        -0.1835
     18 C15       -10.4943   -0.1457    2.9237 C.2       1 <0>         0.4896
     19 O2         -9.8429   -0.6014    3.8481 O.co2     1 <0>        -0.6954
     20 O3        -11.4708    0.5484    3.1501 O.co2     1 <0>        -0.6877
     21 N3         -8.6644   -4.3453    0.0620 N.pl3     1 <0>        -0.8043
     22 H1          1.0053    1.8021    0.0021 H         1 <0>         0.1077
     23 H2         -0.5445    1.7859   -0.8732 H         1 <0>         0.0617
     24 H3         -0.5275    1.7763    0.9067 H         1 <0>         0.0628
     25 H4         -2.3298    1.1835    0.0207 H         1 <0>         0.1415
     26 H5         -4.5077    0.0421    0.0357 H         1 <0>         0.1416
     27 H6         -2.5104   -3.7496    0.0153 H         1 <0>         0.1398
     28 H7         -0.3375   -2.5989   -0.0083 H         1 <0>         0.1452
     29 H8         -4.1171   -4.6113    0.0355 H         1 <0>         0.1877
     30 H9         -6.3669   -5.6915    0.0521 H         1 <0>         0.1940
     31 H10        -8.2211   -0.6899   -0.4647 H         1 <0>         0.1354
     32 H11        -9.2508   -2.1418   -0.4548 H         1 <0>         0.1155
     33 H12        -9.0602   -2.2601    2.0147 H         1 <0>         0.0745
     34 H13        -8.0305   -0.8083    2.0048 H         1 <0>         0.0866
     35 H14        -9.8770    0.4943    0.9838 H         1 <0>         0.0703
     36 H15       -10.9067   -0.9576    0.9937 H         1 <0>         0.0659
     37 H16        -8.7725   -5.3093    0.0650 H         1 <0>         0.4374
     38 H17        -9.4452   -3.7697    0.0651 H         1 <0>         0.4271
@<TRIPOS>BOND
     1    1    2 1
     2    1   22 1
     3    1   23 1
     4    1   24 1
     5    2    3 1
     6    3    8 ar
     7    3    4 ar
     8    4    5 ar
     9    4   25 1
    10    5    6 ar
    11    5   26 1
    12    6    7 ar
    13    6    9 1
    14    7    8 ar
    15    7   27 1
    16    8   28 1
    17    9   14 ar
    18    9   10 ar
    19   10   11 ar
    20   10   29 1
    21   11   12 ar
    22   11   30 1
    23   12   13 ar
    24   12   21 1
    25   13   14 ar
    26   13   15 1
    27   15   16 1
    28   15   31 1
    29   15   32 1
    30   16   17 1
    31   16   33 1
    32   16   34 1
    33   17   18 1
    34   17   35 1
    35   17   36 1
    36   18   19 2
    37   18   20 1
    38   21   37 1
    39   21   38 1
@<TRIPOS>MOLECULE
ZINC01803423
   39    41     0     0     0
SMALL
USER_CHARGES
2-(1H-indol-3-yl)-N-[(4-methoxyphenyl)methyl]-2-oxo-acetamide
@<TRIPOS>ATOM
      1 C1          2.4257    4.1084    0.0005 C.3       1 <0>         0.0254
      2 O1          1.1601    3.4449    0.0090 O.3       1 <0>        -0.3160
      3 C2          1.1759    2.0860    0.0020 C.ar      1 <0>         0.1389
      4 C3         -0.0167    1.3772    0.0096 C.ar      1 <0>        -0.1535
      5 C4          0.0021   -0.0041    0.0020 C.ar      1 <0>        -0.0573
      6 C5          1.2080   -0.6802   -0.0131 C.ar      1 <0>        -0.1544
      7 C6          2.3980    0.0239   -0.0207 C.ar      1 <0>        -0.0565
      8 C7          2.3846    1.4052   -0.0127 C.ar      1 <0>        -0.2106
      9 C8          1.2256   -2.1871   -0.0209 C.3       1 <0>         0.1635
     10 N1          1.2178   -2.6684   -1.4045 N.am      1 <0>        -0.7004
     11 C9          1.2308   -3.9921   -1.6576 C.2       1 <0>         0.4894
     12 O2          1.2489   -4.7855   -0.7391 O.2       1 <0>        -0.5198
     13 C10         1.2229   -4.4823   -3.0665 C.2       1 <0>         0.4205
     14 O3          1.2047   -3.6878   -3.9863 O.2       1 <0>        -0.4392
     15 C11         1.2370   -5.9182   -3.3411 C.2       1 <0>        -0.2770
     16 C12         1.2640   -6.9412   -2.4118 C.2       1 <0>         0.1668
     17 N2          1.2664   -8.1272   -3.0467 N.pl3     1 <0>        -0.5680
     18 H1          1.2814   -8.9897   -2.6033 H         1 <0>         0.4236
     19 C13         1.2508   -7.9490   -4.4161 C.ar      1 <0>         0.0703
     20 C14         1.2317   -6.5677   -4.6663 C.ar      1 <0>        -0.0547
     21 C15         1.2127   -6.0942   -5.9745 C.ar      1 <0>        -0.0762
     22 C16         1.2128   -6.9883   -7.0241 C.ar      1 <0>        -0.1298
     23 C17         1.2315   -8.3529   -6.7795 C.ar      1 <0>        -0.1040
     24 C18         1.2504   -8.8349   -5.4880 C.ar      1 <0>        -0.1180
     25 H2          2.9777    3.8266   -0.8961 H         1 <0>         0.0574
     26 H3          2.2703    5.1873    0.0074 H         1 <0>         0.1026
     27 H4          2.9944    3.8176    0.8838 H         1 <0>         0.0573
     28 H5         -0.9589    1.9049    0.0169 H         1 <0>         0.1344
     29 H6         -0.9260   -0.5563    0.0083 H         1 <0>         0.1328
     30 H7          3.3387   -0.5065   -0.0325 H         1 <0>         0.1281
     31 H8          3.3144    1.9547   -0.0186 H         1 <0>         0.1314
     32 H9          2.1247   -2.5426    0.4824 H         1 <0>         0.0818
     33 H10         0.3449   -2.5634    0.4997 H         1 <0>         0.0827
     34 H11         1.2033   -2.0344   -2.1385 H         1 <0>         0.4129
     35 H12         1.2781   -6.8087   -1.3401 H         1 <0>         0.2031
     36 H13         1.1977   -5.0315   -6.1668 H         1 <0>         0.1319
     37 H14         1.1981   -6.6242   -8.0408 H         1 <0>         0.1276
     38 H15         1.2310   -9.0449   -7.6087 H         1 <0>         0.1292
     39 H16         1.2646   -9.8999   -5.3089 H         1 <0>         0.1239
@<TRIPOS>BOND
     1    1    2 1
     2    1   25 1
     3    1   26 1
     4    1   27 1
     5    2    3 1
     6    3    8 ar
     7    3    4 ar
     8    4    5 ar
     9    4   28 1
    10    5    6 ar
    11    5   29 1
    12    6    7 ar
    13    6    9 1
    14    7    8 ar
    15    7   30 1
    16    8   31 1
    17    9   10 1
    18    9   32 1
    19    9   33 1
    20   10   11 am
    21   10   34 1
    22   11   12 2
    23   11   13 1
    24   13   14 2
    25   13   15 1
    26   15   20 1
    27   15   16 2
    28   16   17 1
    29   16   35 1
    30   17   18 1
    31   17   19 1
    32   19   24 ar
    33   19   20 ar
    34   20   21 ar
    35   21   22 ar
    36   21   36 1
    37   22   23 ar
    38   22   37 1
    39   23   24 ar
    40   23   38 1
    41   24   39 1
@<TRIPOS>MOLECULE
ZINC26495967
   34    37     0     0     0
SMALL
USER_CHARGES
isothiocyanato-methyl-BLAH
@<TRIPOS>ATOM
      1 C1         -2.3674   -0.4889   -0.4086 C.3       1 <0>        -0.1285
      2 C2         -2.4990    0.9619    0.0589 C.3       1 <0>         0.1708
      3 C3         -3.0232    1.0933    1.4700 C.ar      1 <0>        -0.0834
      4 C4         -2.8737    0.2726    2.5676 C.ar      1 <0>        -0.0925
      5 C5         -3.4424    0.7102    3.7590 C.ar      1 <0>        -0.1176
      6 C6         -4.1235    1.9076    3.8365 C.ar      1 <0>        -0.1184
      7 C7         -4.2833    2.7314    2.7286 C.ar      1 <0>        -0.0942
      8 C8         -3.7264    2.2971    1.5411 C.ar      1 <0>        -0.0932
      9 C9         -3.7235    2.9121    0.1724 C.3       1 <0>         0.1079
     10 H1         -4.6671    3.4434   -0.0206 H         1 <0>         0.1116
     11 N1         -3.4749    1.7603   -0.7457 N.3       1 <0>        -0.6362
     12 C10        -2.5478    3.8786    0.0125 C.3       1 <0>        -0.1091
     13 C11        -1.2371    3.1325    0.0187 C.ar      1 <0>        -0.0708
     14 C12        -1.1979    1.7452    0.0172 C.ar      1 <0>        -0.0895
     15 C13        -0.0126    1.0758    0.0080 C.ar      1 <0>        -0.0762
     16 C14         1.2037    1.8070    0.0003 C.ar      1 <0>         0.1188
     17 C15         1.1551    3.2243    0.0077 C.ar      1 <0>        -0.1509
     18 C16        -0.0490    3.8611    0.0142 C.ar      1 <0>        -0.0923
     19 N2          2.3679    1.1745   -0.0140 N.2       1 <0>        -0.4492
     20 C17         3.4338    1.8274   -0.0207 C.1       1 <0>         0.2125
     21 S1          4.7585    2.6389   -0.0290 S.2       1 <0>         0.0250
     22 H2         -1.6370   -1.0134    0.2249 H         1 <0>         0.0675
     23 H3         -2.0262   -0.5077   -1.4542 H         1 <0>         0.0675
     24 H4         -3.3444   -0.9886   -0.3326 H         1 <0>         0.0768
     25 H5         -2.3405   -0.6645    2.5054 H         1 <0>         0.1301
     26 H6         -3.3485    0.0985    4.6441 H         1 <0>         0.1230
     27 H7         -4.5434    2.2130    4.7836 H         1 <0>         0.1227
     28 H8         -4.8183    3.6675    2.7929 H         1 <0>         0.1317
     29 H9         -3.0120    2.0509   -1.7003 H         1 <0>         0.3547
     30 H10        -2.6441    4.4185   -0.9410 H         1 <0>         0.0925
     31 H11        -2.5498    4.5991    0.8437 H         1 <0>         0.0890
     32 H12         0.0021   -0.0041    0.0020 H         1 <0>         0.1400
     33 H13         2.0705    3.7973    0.0078 H         1 <0>         0.1270
     34 H14        -0.0834    4.9406    0.0154 H         1 <0>         0.1327
@<TRIPOS>BOND
     1    1    2 1
     2    1   22 1
     3    1   23 1
     4    1   24 1
     5    2   11 1
     6    2   14 1
     7    2    3 1
     8    3    8 ar
     9    3    4 ar
    10    4    5 ar
    11    4   25 1
    12    5    6 ar
    13    5   26 1
    14    6    7 ar
    15    6   27 1
    16    7    8 ar
    17    7   28 1
    18    8    9 1
    19    9   10 1
    20    9   11 1
    21    9   12 1
    22   11   29 1
    23   12   13 1
    24   12   30 1
    25   12   31 1
    26   13   18 ar
    27   13   14 ar
    28   14   15 ar
    29   15   16 ar
    30   15   32 1
    31   16   17 ar
    32   16   19 1
    33   17   18 ar
    34   17   33 1
    35   18   34 1
    36   19   20 2
    37   20   21 2
@<TRIPOS>MOLECULE
ZINC28478250
   78    83     0     0     0
SMALL
USER_CHARGES

@<TRIPOS>ATOM
      1 C1          0.8636    2.1492    0.8489 C.3       1 <0>        -0.1521
      2 C2          0.7047    0.6323    0.7276 C.3       1 <0>        -0.0798
      3 C3          1.2939    0.1685   -0.5793 C.ar      1 <0>        -0.0153
      4 C4          0.6277    0.0927   -1.7682 C.ar      1 <0>        -0.1216
      5 C5          1.5133   -0.4170   -2.7335 C.ar      1 <0>         0.1792
      6 C6          1.2078   -0.5905   -4.0826 C.ar      1 <0>        -0.1190
      7 C7          2.1066   -1.0034   -5.0505 C.ar      1 <0>         0.1659
      8 C8          1.7475   -1.2202   -6.4122 C.ar      1 <0>        -0.0419
      9 C9          2.8911   -1.6125   -7.0876 C.ar      1 <0>        -0.0919
     10 C10         3.9488   -1.6428   -6.1651 C.ar      1 <0>         0.2365
     11 N1          3.4496   -1.2780   -4.9330 N.pl3     1 <0>        -0.6128
     12 H1          3.9748   -1.2206   -4.1217 H         1 <0>         0.4163
     13 C11         5.2563   -1.9849   -6.5008 C.ar      1 <0>        -0.1627
     14 C12         6.3113   -2.0201   -5.6134 C.ar      1 <0>         0.2359
     15 N2          6.2794   -1.7483   -4.3256 N.ar      1 <0>        -0.5659
     16 C13         7.4456   -1.9071   -3.7000 C.ar      1 <0>         0.1978
     17 C14         7.6355   -1.6611   -2.3639 C.ar      1 <0>        -0.1121
     18 C15         6.6260   -1.1763   -1.5026 C.ar      1 <0>         0.2106
     19 N3          5.3842   -0.6984   -1.4894 N.ar      1 <0>        -0.5129
     20 C16         4.9627   -0.5255   -0.2308 C.ar      1 <0>        -0.0160
     21 C17         3.6508   -0.1793    0.1333 C.ar      1 <0>         0.0766
     22 C18         2.6196   -0.2321   -0.7986 C.ar      1 <0>         0.0098
     23 N4          2.6991   -0.6969   -2.0971 N.pl3     1 <0>        -0.5826
     24 H2          3.4330   -1.1909   -2.4861 H         1 <0>         0.4083
     25 C19         6.0395   -0.7423    0.6544 C.2       1 <0>         0.0673
     26 C20         7.1204   -1.1460   -0.1195 C.2       1 <0>        -0.2622
     27 C21         8.5265   -1.5369   -0.1196 C.2       1 <0>         0.4366
     28 O1          9.2602   -1.6109    0.8441 O.2       1 <0>        -0.4110
     29 C22         8.8956   -1.8320   -1.5578 C.3       1 <0>        -0.1109
     30 C23         6.0237   -0.5697    2.1514 C.3       1 <0>        -0.1172
     31 C24         8.4734   -2.3883   -4.6792 C.3       1 <0>        -0.0994
     32 H3          9.3209   -1.7036   -4.7166 H         1 <0>         0.1232
     33 C25         7.7215   -2.3849   -6.0102 C.3       1 <0>        -0.1135
     34 H4          7.7472   -3.3737   -6.4674 H         1 <0>         0.1190
     35 C26         8.3061   -1.3356   -6.9573 C.3       1 <0>        -0.1411
     36 C27         8.9389   -3.8050   -4.3366 C.3       1 <0>        -0.0979
     37 C28        10.0814   -4.2066   -5.2718 C.3       1 <0>        -0.1152
     38 C29        10.5961   -5.5678   -4.8804 C.2       1 <0>         0.4572
     39 O2         10.1000   -6.1564   -3.9490 O.2       1 <0>        -0.5045
     40 O3         11.6056   -6.1263   -5.5664 O.3       1 <0>        -0.3524
     41 C30        12.0428   -7.4184   -5.1404 C.3       1 <0>         0.0320
     42 C31         2.9664   -1.9439   -8.5561 C.3       1 <0>        -0.1042
     43 C32         0.4099   -1.0616   -7.0119 C.2       1 <0>        -0.1236
     44 C33        -0.6459   -1.6323   -6.4414 C.2       1 <0>        -0.1404
     45 C34        -0.8089    0.4924   -1.9885 C.3       1 <0>        -0.1005
     46 H5          1.9220    2.4074    0.8155 H         1 <0>         0.0568
     47 H6          0.3446    2.6360    0.0232 H         1 <0>         0.0635
     48 H7          0.4373    2.4847    1.7943 H         1 <0>         0.0747
     49 H8          1.2237    0.1454    1.5532 H         1 <0>         0.0863
     50 H9         -0.3538    0.3740    0.7609 H         1 <0>         0.0975
     51 H10         0.1826   -0.3837   -4.4002 H         1 <0>         0.1854
     52 H11         5.4680   -2.2494   -7.5404 H         1 <0>         0.1734
     53 H12         3.4399    0.1309    1.1479 H         1 <0>         0.1914
     54 H13         9.2620   -2.8553   -1.6396 H         1 <0>         0.1288
     55 H14         9.6582   -1.1327   -1.8991 H         1 <0>         0.1313
     56 H15         5.0333   -0.2437    2.4691 H         1 <0>         0.0818
     57 H16         6.2642   -1.5194    2.6292 H         1 <0>         0.1011
     58 H17         6.7621    0.1789    2.4386 H         1 <0>         0.1032
     59 H18         8.2961   -0.3606   -6.4701 H         1 <0>         0.0612
     60 H19         9.3316   -1.6052   -7.2098 H         1 <0>         0.0791
     61 H20         7.7070   -1.2934   -7.8670 H         1 <0>         0.0727
     62 H21         9.2874   -3.8333   -3.3042 H         1 <0>         0.0881
     63 H22         8.1081   -4.5000   -4.4588 H         1 <0>         0.0799
     64 H23         9.7167   -4.2374   -6.2985 H         1 <0>         0.1104
     65 H24        10.8877   -3.4772   -5.1943 H         1 <0>         0.1143
     66 H25        12.3858   -7.3636   -4.1072 H         1 <0>         0.0635
     67 H26        11.2149   -8.1238   -5.2114 H         1 <0>         0.0624
     68 H27        12.8612   -7.7534   -5.7777 H         1 <0>         0.1067
     69 H28         3.1975   -1.0408   -9.1210 H         1 <0>         0.0918
     70 H29         3.7475   -2.6859   -8.7216 H         1 <0>         0.0824
     71 H30         2.0085   -2.3447   -8.8877 H         1 <0>         0.0883
     72 H31         0.2882   -0.4816   -7.9148 H         1 <0>         0.1432
     73 H32        -0.5242   -2.2123   -5.5385 H         1 <0>         0.1029
     74 H33        -1.6257   -1.5161   -6.8807 H         1 <0>         0.1233
     75 H34        -0.8542    1.5441   -2.2712 H         1 <0>         0.0857
     76 H35        -1.2375   -0.1166   -2.7845 H         1 <0>         0.0769
     77 H36        -1.3739    0.3386   -1.0691 H         1 <0>         0.0858
     78 H37         4.8949   -0.4638   -2.2910 H         1 <0>         0.4141
@<TRIPOS>BOND
     1    1    2 1
     2    1   46 1
     3    1   47 1
     4    1   48 1
     5    2    3 1
     6    2   49 1
     7    2   50 1
     8    3   22 ar
     9    3    4 ar
    10    4    5 ar
    11    4   45 1
    12    5   23 1
    13    5    6 ar
    14    6    7 ar
    15    6   51 1
    16    7   11 1
    17    7    8 ar
    18    8    9 ar
    19    8   43 1
    20    9   10 ar
    21    9   42 1
    22   10   11 1
    23   10   13 ar
    24   11   12 1
    25   13   14 ar
    26   13   52 1
    27   14   33 1
    28   14   15 ar
    29   15   16 ar
    30   16   17 ar
    31   16   31 1
    32   17   29 1
    33   17   18 ar
    34   18   26 1
    35   18   19 ar
    36   19   20 ar
    37   19   78 1
    38   20   21 ar
    39   20   25 1
    40   21   22 ar
    41   21   53 1
    42   22   23 1
    43   23   24 1
    44   25   26 2
    45   25   30 1
    46   26   27 1
    47   27   28 2
    48   27   29 1
    49   29   54 1
    50   29   55 1
    51   30   56 1
    52   30   57 1
    53   30   58 1
    54   31   32 1
    55   31   33 1
    56   31   36 1
    57   33   34 1
    58   33   35 1
    59   35   59 1
    60   35   60 1
    61   35   61 1
    62   36   37 1
    63   36   62 1
    64   36   63 1
    65   37   38 1
    66   37   64 1
    67   37   65 1
    68   38   39 2
    69   38   40 1
    70   40   41 1
    71   41   66 1
    72   41   67 1
    73   41   68 1
    74   42   69 1
    75   42   70 1
    76   42   71 1
    77   43   44 2
    78   43   72 1
    79   44   73 1
    80   44   74 1
    81   45   75 1
    82   45   76 1
    83   45   77 1
@<TRIPOS>MOLECULE
ZINC03635492
   35    37     0     0     0
SMALL
USER_CHARGES
N-[(4-bromophenyl)methyl]-2-(1H-indol-3-yl)-2-oxo-acetamide
@<TRIPOS>ATOM
      1 C1         -0.7100    3.7645    0.0291 C.ar      1 <0>        -0.1294
      2 C2          0.6182    4.1637    0.0185 C.ar      1 <0>        -0.1037
      3 C3          1.6321    3.2303    0.0038 C.ar      1 <0>        -0.1177
      4 C4          1.3268    1.8732   -0.0005 C.ar      1 <0>         0.0702
      5 C5         -0.0179    1.4716    0.0101 C.ar      1 <0>        -0.0547
      6 C6         -1.0324    2.4243    0.0300 C.ar      1 <0>        -0.0763
      7 C7          0.0021   -0.0041    0.0020 C.2       1 <0>        -0.2774
      8 C8          1.3349   -0.3701   -0.0127 C.2       1 <0>         0.1669
      9 N1          2.1053    0.7326   -0.0141 N.pl3     1 <0>        -0.5675
     10 H1          3.0753    0.7274   -0.0229 H         1 <0>         0.4238
     11 C9         -1.1545   -0.8984    0.0087 C.2       1 <0>         0.4210
     12 O1         -2.2791   -0.4374    0.0223 O.2       1 <0>        -0.4384
     13 C10        -0.9545   -2.3766   -0.0012 C.2       1 <0>         0.4910
     14 O2          0.1686   -2.8370   -0.0148 O.2       1 <0>        -0.5175
     15 N2         -2.0207   -3.2010    0.0049 N.am      1 <0>        -0.7015
     16 C11        -1.8242   -4.6527   -0.0048 C.3       1 <0>         0.1569
     17 C12        -3.1647   -5.3411    0.0048 C.ar      1 <0>        -0.0999
     18 C13        -3.7649   -5.6684    1.2064 C.ar      1 <0>        -0.0920
     19 C14        -4.9966   -6.2955    1.2157 C.ar      1 <0>        -0.0918
     20 C15        -5.6239   -6.6051    0.0224 C.ar      1 <0>        -0.0814
     21 C16        -5.0205   -6.2822   -1.1798 C.ar      1 <0>        -0.0918
     22 C17        -3.7912   -5.6504   -1.1881 C.ar      1 <0>        -0.0920
     23 Br1        -7.3060   -7.4689    0.0344 Br        1 <0>        -0.0442
     24 H2         -1.4946    4.5065    0.0402 H         1 <0>         0.1278
     25 H3          0.8603    5.2163    0.0215 H         1 <0>         0.1294
     26 H4          2.6630    3.5523   -0.0046 H         1 <0>         0.1241
     27 H5         -2.0671    2.1151    0.0426 H         1 <0>         0.1319
     28 H6          1.7016   -1.3859   -0.0220 H         1 <0>         0.2029
     29 H7         -2.9181   -2.8331    0.0158 H         1 <0>         0.4137
     30 H8         -1.2751   -4.9390   -0.9018 H         1 <0>         0.0864
     31 H9         -1.2575   -4.9486    0.8780 H         1 <0>         0.0864
     32 H10        -3.2731   -5.4303    2.1380 H         1 <0>         0.1355
     33 H11        -5.4674   -6.5471    2.1545 H         1 <0>         0.1369
     34 H12        -5.5101   -6.5234   -2.1117 H         1 <0>         0.1369
     35 H13        -3.3203   -5.3979   -2.1266 H         1 <0>         0.1355
@<TRIPOS>BOND
     1    1    6 ar
     2    1    2 ar
     3    1   24 1
     4    2    3 ar
     5    2   25 1
     6    3    4 ar
     7    3   26 1
     8    4    9 1
     9    4    5 ar
    10    5    6 ar
    11    5    7 1
    12    6   27 1
    13    7    8 2
    14    7   11 1
    15    8    9 1
    16    8   28 1
    17    9   10 1
    18   11   12 2
    19   11   13 1
    20   13   14 2
    21   13   15 am
    22   15   16 1
    23   15   29 1
    24   16   17 1
    25   16   30 1
    26   16   31 1
    27   17   22 ar
    28   17   18 ar
    29   18   19 ar
    30   18   32 1
    31   19   20 ar
    32   19   33 1
    33   20   21 ar
    34   20   23 1
    35   21   22 ar
    36   21   34 1
    37   22   35 1
@<TRIPOS>MOLECULE
ZINC09227024
   28    30     0     0     0
SMALL
USER_CHARGES

@<TRIPOS>ATOM
      1 C1         -0.0178    1.4608    0.0101 C.3       1 <0>         0.0856
      2 N1          0.0021   -0.0041    0.0020 N.am      1 <0>        -0.7181
      3 C2         -1.1558   -0.6938    0.0094 C.2       1 <0>         0.5778
      4 O1         -2.2166   -0.1004    0.0227 O.2       1 <0>        -0.5353
      5 C3         -1.1358   -2.1723    0.0012 C.ar      1 <0>         0.0270
      6 C4         -2.3364   -2.8766    0.0032 C.ar      1 <0>        -0.0399
      7 C5         -2.2939   -4.2677   -0.0046 C.ar      1 <0>        -0.0794
      8 C6         -3.3100   -5.3319   -0.0055 C.ar      1 <0>        -0.1058
      9 C7         -4.7033   -5.3314    0.0005 C.ar      1 <0>        -0.0549
     10 C8         -5.3888   -6.5264   -0.0033 C.ar      1 <0>        -0.1444
     11 C9         -4.6973   -7.7285   -0.0131 C.ar      1 <0>        -0.0755
     12 C10        -3.3196   -7.7443   -0.0187 C.ar      1 <0>        -0.1397
     13 C11        -2.6085   -6.5477   -0.0154 C.ar      1 <0>         0.1413
     14 N2         -1.2536   -6.2705   -0.0204 N.pl3     1 <0>        -0.5980
     15 C12        -1.0418   -4.9096   -0.0141 C.ar      1 <0>         0.1090
     16 C13         0.1111   -4.1244   -0.0158 C.ar      1 <0>         0.0979
     17 N3          0.0300   -2.8143   -0.0133 N.ar      1 <0>        -0.4295
     18 H1          1.0048    1.8381    0.0023 H         1 <0>         0.0784
     19 H2         -0.5450    1.8219   -0.8730 H         1 <0>         0.0621
     20 H3         -0.5280    1.8123    0.9069 H         1 <0>         0.0622
     21 H4          0.8486   -0.4776   -0.0086 H         1 <0>         0.4122
     22 H5         -3.2817   -2.3543    0.0109 H         1 <0>         0.1516
     23 H6         -5.2444   -4.3967    0.0085 H         1 <0>         0.1307
     24 H7         -6.4688   -6.5271    0.0017 H         1 <0>         0.1320
     25 H8         -5.2434   -8.6602   -0.0160 H         1 <0>         0.1337
     26 H9         -2.7910   -8.6860   -0.0259 H         1 <0>         0.1286
     27 H10         1.0809   -4.5996   -0.0230 H         1 <0>         0.1667
     28 H11        -0.5516   -6.9399   -0.0271 H         1 <0>         0.4235
@<TRIPOS>BOND
     1    1    2 1
     2    1   18 1
     3    1   19 1
     4    1   20 1
     5    2    3 am
     6    2   21 1
     7    3    4 2
     8    3    5 1
     9    5   17 ar
    10    5    6 ar
    11    6    7 ar
    12    6   22 1
    13    7   15 ar
    14    7    8 1
    15    8   13 ar
    16    8    9 ar
    17    9   10 ar
    18    9   23 1
    19   10   11 ar
    20   10   24 1
    21   11   12 ar
    22   11   25 1
    23   12   13 ar
    24   12   26 1
    25   13   14 1
    26   14   15 1
    27   14   28 1
    28   15   16 ar
    29   16   17 ar
    30   16   27 1
@<TRIPOS>MOLECULE
ZINC09227024
   29    31     0     0     0
SMALL
USER_CHARGES

@<TRIPOS>ATOM
      1 C1         -0.0178    1.4608    0.0101 C.3       1 <0>         0.0800
      2 N1          0.0021   -0.0041    0.0020 N.am      1 <0>        -0.7213
      3 C2          0.5851   -0.6645   -1.0180 C.2       1 <0>         0.5560
      4 O1          1.0944   -0.0447   -1.9312 O.2       1 <0>        -0.4749
      5 C3          0.6051   -2.1431   -1.0261 C.ar      1 <0>         0.0435
      6 C4          1.2144   -2.8170   -2.0807 C.ar      1 <0>         0.0088
      7 C5          1.2216   -4.2087   -2.0679 C.ar      1 <0>        -0.0069
      8 C6          1.7467   -5.2470   -2.9684 C.ar      1 <0>        -0.1190
      9 C7          2.4377   -5.2115   -4.1777 C.ar      1 <0>        -0.0422
     10 C8          2.8022   -6.3890   -4.7933 C.ar      1 <0>        -0.1239
     11 C9          2.4839   -7.6080   -4.2137 C.ar      1 <0>        -0.0446
     12 C10         1.8005   -7.6583   -3.0184 C.ar      1 <0>        -0.1316
     13 C11         1.4236   -6.4800   -2.3804 C.ar      1 <0>         0.1560
     14 N2          0.7466   -6.2368   -1.1992 N.pl3     1 <0>        -0.5697
     15 C12         0.6141   -4.8817   -0.9918 C.ar      1 <0>         0.1292
     16 C13         0.0272   -4.1258    0.0229 C.ar      1 <0>         0.1404
     17 N3          0.0452   -2.8140   -0.0223 N.ar      1 <0>        -0.4075
     18 H1          1.0048    1.8381    0.0023 H         1 <0>         0.0768
     19 H2         -0.5450    1.8219   -0.8730 H         1 <0>         0.0768
     20 H3         -0.5280    1.8123    0.9069 H         1 <0>         0.0925
     21 H4         -0.4044   -0.4986    0.7308 H         1 <0>         0.3959
     22 H5          1.6719   -2.2711   -2.8926 H         1 <0>         0.1955
     23 H6          2.6866   -4.2637   -4.6315 H         1 <0>         0.1443
     24 H7          3.3376   -6.3626   -5.7309 H         1 <0>         0.1476
     25 H8          2.7738   -8.5257   -4.7036 H         1 <0>         0.1496
     26 H9          1.5572   -8.6130   -2.5759 H         1 <0>         0.1434
     27 H10        -0.4438   -4.6251    0.8568 H         1 <0>         0.2180
     28 H11         0.4120   -6.9236   -0.6015 H         1 <0>         0.4391
     29 H12        -0.3680   -2.3157    0.7001 H         1 <0>         0.4482
@<TRIPOS>BOND
     1    1    2 1
     2    1   18 1
     3    1   19 1
     4    1   20 1
     5    2    3 am
     6    2   21 1
     7    3    4 2
     8    3    5 1
     9    5   17 ar
    10    5    6 ar
    11    6    7 ar
    12    6   22 1
    13    7   15 ar
    14    7    8 1
    15    8   13 ar
    16    8    9 ar
    17    9   10 ar
    18    9   23 1
    19   10   11 ar
    20   10   24 1
    21   11   12 ar
    22   11   25 1
    23   12   13 ar
    24   12   26 1
    25   13   14 1
    26   14   15 1
    27   14   28 1
    28   15   16 ar
    29   16   17 ar
    30   16   27 1
    31   17   29 1
@<TRIPOS>MOLECULE
ZINC19632917
   35    37     0     0     0
SMALL
USER_CHARGES
7-chloro-N-methyl-4-oxido-5-phenyl-3H-1,4-benzodiazepin-4-ium-2-amine
@<TRIPOS>ATOM
      1 C1          0.3869    1.6257   -0.4688 C.3       1 <0>         0.0950
      2 N1         -0.4381    1.8111    0.7275 N.pl3     1 <0>        -0.7042
      3 C2         -0.6877    3.0703    1.1972 C.2       1 <0>         0.4378
      4 N2         -0.1880    4.0751    0.5725 N.2       1 <0>        -0.5908
      5 C3         -0.3144    5.3787    0.9381 C.ar      1 <0>         0.1969
      6 C4          0.8182    6.1971    0.8113 C.ar      1 <0>        -0.1083
      7 C5          0.7611    7.5284    1.1532 C.ar      1 <0>        -0.0648
      8 C6         -0.4211    8.0763    1.6280 C.ar      1 <0>        -0.0582
      9 C7         -1.5431    7.2893    1.7639 C.ar      1 <0>        -0.0451
     10 C8         -1.5051    5.9298    1.4246 C.ar      1 <0>        -0.1385
     11 C9         -2.7355    5.1437    1.6090 C.2       1 <0>         0.2524
     12 N3         -2.7652    3.9385    2.0629 N.pl3     1 <0>        -0.1798
     13 O1         -4.0124    3.2849    2.2127 O.3       1 <0>        -0.5210
     14 C10        -1.5427    3.2309    2.4234 C.3       1 <0>         0.0460
     15 C11        -4.0245    5.7803    1.2495 C.ar      1 <0>        -0.0872
     16 C12        -5.1583    5.5542    2.0290 C.ar      1 <0>        -0.0406
     17 C13        -6.3546    6.1540    1.6923 C.ar      1 <0>        -0.1353
     18 C14        -6.4331    6.9690    0.5772 C.ar      1 <0>        -0.0907
     19 C15        -5.3129    7.1929   -0.2030 C.ar      1 <0>        -0.1331
     20 C16        -4.1098    6.6032    0.1270 C.ar      1 <0>        -0.0779
     21 Cl1        -0.4868    9.7583    2.0526 Cl        1 <0>        -0.0571
     22 H1          0.4748    0.5519   -0.6907 H         1 <0>         0.0788
     23 H2          1.3877    2.0469   -0.2929 H         1 <0>         0.0662
     24 H3         -0.0824    2.1390   -1.3210 H         1 <0>         0.0623
     25 H4         -0.8567    0.9370    1.2478 H         1 <0>         0.4420
     26 H5          1.7426    5.7784    0.4417 H         1 <0>         0.1453
     27 H6          1.6395    8.1486    1.0520 H         1 <0>         0.1449
     28 H7         -2.4601    7.7233    2.1343 H         1 <0>         0.1431
     29 H8         -1.7945    2.2392    2.8273 H         1 <0>         0.1402
     30 H9         -0.9918    3.8066    3.1818 H         1 <0>         0.1292
     31 H10        -5.0994    4.9142    2.8970 H         1 <0>         0.1447
     32 H11        -7.2324    5.9831    2.2978 H         1 <0>         0.1283
     33 H12        -7.3726    7.4327    0.3150 H         1 <0>         0.1263
     34 H13        -5.3800    7.8307   -1.0720 H         1 <0>         0.1287
     35 H14        -3.2358    6.7790   -0.4827 H         1 <0>         0.1246
@<TRIPOS>BOND
     1    1    2 1
     2    1   22 1
     3    1   23 1
     4    1   24 1
     5    2    3 1
     6    2   25 1
     7    3   14 1
     8    3    4 2
     9    4    5 1
    10    5   10 ar
    11    5    6 ar
    12    6    7 ar
    13    6   26 1
    14    7    8 ar
    15    7   27 1
    16    8    9 ar
    17    8   21 1
    18    9   10 ar
    19    9   28 1
    20   10   11 1
    21   11   12 2
    22   11   15 1
    23   12   13 1
    24   12   14 1
    25   14   29 1
    26   14   30 1
    27   15   20 ar
    28   15   16 ar
    29   16   17 ar
    30   16   31 1
    31   17   18 ar
    32   17   32 1
    33   18   19 ar
    34   18   33 1
    35   19   20 ar
    36   19   34 1
    37   20   35 1
@<TRIPOS>MOLECULE
ZINC19632917
   36    38     0     0     0
SMALL
USER_CHARGES
7-chloro-N-methyl-4-oxido-5-phenyl-3H-1,4-benzodiazepin-4-ium-2-amine
@<TRIPOS>ATOM
      1 C1          0.3869    1.6257   -0.4688 C.3       1 <0>         0.0260
      2 N1         -0.4381    1.8111    0.7275 N.pl3     1 <0>        -0.6524
      3 C2         -0.6877    3.0703    1.1972 C.cat     1 <0>         0.4984
      4 N2         -0.1880    4.0751    0.5725 N.pl3     1 <0>        -0.5579
      5 C3         -0.3144    5.3787    0.9381 C.ar      1 <0>         0.1017
      6 C4          0.8182    6.1971    0.8113 C.ar      1 <0>        -0.0937
      7 C5          0.7611    7.5284    1.1532 C.ar      1 <0>        -0.0563
      8 C6         -0.4211    8.0763    1.6280 C.ar      1 <0>        -0.0154
      9 C7         -1.5431    7.2893    1.7639 C.ar      1 <0>        -0.0439
     10 C8         -1.5051    5.9298    1.4246 C.ar      1 <0>        -0.0688
     11 C9         -2.7355    5.1437    1.6090 C.2       1 <0>         0.2576
     12 N3         -2.7652    3.9385    2.0629 N.pl3     1 <0>        -0.1943
     13 O1         -4.0124    3.2849    2.2127 O.3       1 <0>        -0.4829
     14 C10        -1.5427    3.2309    2.4234 C.3       1 <0>         0.0643
     15 C11        -4.0245    5.7803    1.2495 C.ar      1 <0>        -0.1098
     16 C12        -5.1583    5.5542    2.0290 C.ar      1 <0>        -0.0323
     17 C13        -6.3546    6.1540    1.6923 C.ar      1 <0>        -0.1301
     18 C14        -6.4331    6.9690    0.5772 C.ar      1 <0>        -0.0738
     19 C15        -5.3129    7.1929   -0.2030 C.ar      1 <0>        -0.1292
     20 C16        -4.1098    6.6032    0.1270 C.ar      1 <0>        -0.0779
     21 Cl1        -0.4868    9.7583    2.0526 Cl        1 <0>        -0.0128
     22 H1          0.4748    0.5519   -0.6907 H         1 <0>         0.1302
     23 H2          1.3877    2.0469   -0.2929 H         1 <0>         0.0959
     24 H3         -0.0824    2.1390   -1.3210 H         1 <0>         0.0928
     25 H4         -0.8567    0.9370    1.2478 H         1 <0>         0.4846
     26 H5          1.7426    5.7784    0.4417 H         1 <0>         0.1609
     27 H6          1.6395    8.1486    1.0520 H         1 <0>         0.1658
     28 H7         -2.4601    7.7233    2.1343 H         1 <0>         0.1657
     29 H8         -1.7945    2.2392    2.8273 H         1 <0>         0.1778
     30 H9         -0.9918    3.8066    3.1818 H         1 <0>         0.1627
     31 H10        -5.0994    4.9142    2.8970 H         1 <0>         0.1478
     32 H11        -7.2324    5.9831    2.2978 H         1 <0>         0.1357
     33 H12        -7.3726    7.4327    0.3150 H         1 <0>         0.1340
     34 H13        -5.3800    7.8307   -1.0720 H         1 <0>         0.1349
     35 H14        -3.2358    6.7790   -0.4827 H         1 <0>         0.1240
     36 H15         0.4010    3.9161   -0.3428 H         1 <0>         0.4708
@<TRIPOS>BOND
     1    1    2 1
     2    1   22 1
     3    1   23 1
     4    1   24 1
     5    2    3 2
     6    2   25 1
     7    3   14 1
     8    3    4 1
     9    4    5 1
    10    4   36 1
    11    5   10 ar
    12    5    6 ar
    13    6    7 ar
    14    6   26 1
    15    7    8 ar
    16    7   27 1
    17    8    9 ar
    18    8   21 1
    19    9   10 ar
    20    9   28 1
    21   10   11 1
    22   11   12 2
    23   11   15 1
    24   12   13 1
    25   12   14 1
    26   14   29 1
    27   14   30 1
    28   15   20 ar
    29   15   16 ar
    30   16   17 ar
    31   16   31 1
    32   17   18 ar
    33   17   32 1
    34   18   19 ar
    35   18   33 1
    36   19   20 ar
    37   19   34 1
    38   20   35 1
@<TRIPOS>MOLECULE
ZINC01249069
   30    32     0     0     0
SMALL
USER_CHARGES

@<TRIPOS>ATOM
      1 C1         -0.0168    1.3790    0.0114 C.ar      1 <0>        -0.0979
      2 C2          0.0291    0.0534   -0.3819 C.ar      1 <0>        -0.1242
      3 C3          1.2319   -0.6226   -0.4000 C.ar      1 <0>        -0.0883
      4 C4          2.4028    0.0333   -0.0207 C.ar      1 <0>        -0.0719
      5 C5          2.3501    1.3696    0.3747 C.ar      1 <0>        -0.0684
      6 C6          1.1414    2.0349    0.3887 C.ar      1 <0>        -0.1269
      7 C7          3.6975   -0.6869   -0.0375 C.2       1 <0>         0.2727
      8 N1          4.7755    0.0132   -0.1385 N.2       1 <0>        -0.4946
      9 C8          6.0934   -0.6209   -0.1815 C.3       1 <0>         0.0513
     10 C9          6.1735   -1.4867   -1.4074 C.2       1 <0>         0.3946
     11 N2          5.4324   -2.5193   -1.5699 N.2       1 <0>        -0.5886
     12 C10         4.5189   -2.9862   -0.6762 C.ar      1 <0>         0.1739
     13 C11         3.6698   -2.1537    0.0682 C.ar      1 <0>        -0.1451
     14 C12         2.7471   -2.7257    0.9553 C.ar      1 <0>        -0.0581
     15 C13         2.6794   -4.0926    1.1100 C.ar      1 <0>        -0.0521
     16 C14         3.5275   -4.9185    0.3880 C.ar      1 <0>        -0.0751
     17 C15         4.4374   -4.3758   -0.5041 C.ar      1 <0>        -0.1035
     18 Cl1         1.5299   -4.7832    2.2124 Cl        1 <0>        -0.0584
     19 O1          7.0578   -1.1647   -2.3723 O.3       1 <0>        -0.4542
     20 H1         -0.9599    1.9052    0.0197 H         1 <0>         0.1268
     21 H2         -0.8784   -0.4535   -0.6750 H         1 <0>         0.1288
     22 H3          1.2664   -1.6575   -0.7068 H         1 <0>         0.1264
     23 H4          3.2536    1.8826    0.6698 H         1 <0>         0.1345
     24 H5          1.0993    3.0698    0.6947 H         1 <0>         0.1288
     25 H6          6.8667    0.1460   -0.2246 H         1 <0>         0.1273
     26 H7          6.2331   -1.2341    0.7088 H         1 <0>         0.0980
     27 H8          2.0839   -2.0892    1.5223 H         1 <0>         0.1430
     28 H9          3.4743   -5.9895    0.5166 H         1 <0>         0.1442
     29 H10         5.0949   -5.0241   -1.0642 H         1 <0>         0.1442
     30 H11         7.0514   -1.7671   -3.1287 H         1 <0>         0.4125
@<TRIPOS>BOND
     1    1    6 ar
     2    1    2 ar
     3    1   20 1
     4    2    3 ar
     5    2   21 1
     6    3    4 ar
     7    3   22 1
     8    4    5 ar
     9    4    7 1
    10    5    6 ar
    11    5   23 1
    12    6   24 1
    13    7   13 1
    14    7    8 2
    15    8    9 1
    16    9   10 1
    17    9   25 1
    18    9   26 1
    19   10   11 2
    20   10   19 1
    21   11   12 1
    22   12   17 ar
    23   12   13 ar
    24   13   14 ar
    25   14   15 ar
    26   14   27 1
    27   15   16 ar
    28   15   18 1
    29   16   17 ar
    30   16   28 1
    31   17   29 1
    32   19   30 1
@<TRIPOS>MOLECULE
ZINC01249069
   30    32     0     0     0
SMALL
USER_CHARGES

@<TRIPOS>ATOM
      1 C1         -0.0165    1.3795    0.0097 C.ar      1 <0>        -0.0985
      2 C2          1.1414    2.0349    0.3888 C.ar      1 <0>        -0.1262
      3 C3          2.3500    1.3694    0.3757 C.ar      1 <0>        -0.0682
      4 C4          2.4028    0.0333   -0.0207 C.ar      1 <0>        -0.0715
      5 C5          1.2321   -0.6220   -0.4018 C.ar      1 <0>        -0.0905
      6 C6          0.0295    0.0542   -0.3846 C.ar      1 <0>        -0.1240
      7 C7          3.6974   -0.6869   -0.0375 C.2       1 <0>         0.2674
      8 N1          4.7685    0.0173   -0.1385 N.2       1 <0>        -0.4889
      9 C8          6.0957   -0.5958   -0.1703 C.3       1 <0>         0.0229
     10 C9          6.2077   -1.4514   -1.4026 C.2       1 <0>         0.5124
     11 O1          7.0273   -1.1638   -2.2490 O.2       1 <0>        -0.5110
     12 N2          5.4306   -2.5163   -1.5879 N.am      1 <0>        -0.6628
     13 C10         4.4944   -2.9884   -0.6804 C.ar      1 <0>         0.1794
     14 C11         3.6615   -2.1539    0.0687 C.ar      1 <0>        -0.1198
     15 C12         2.7413   -2.7188    0.9645 C.ar      1 <0>        -0.0509
     16 C13         2.6592   -4.0851    1.1138 C.ar      1 <0>        -0.0511
     17 C14         3.4894   -4.9140    0.3762 C.ar      1 <0>        -0.0650
     18 C15         4.3980   -4.3719   -0.5201 C.ar      1 <0>        -0.1319
     19 Cl1         1.5161   -4.7694    2.2267 Cl        1 <0>        -0.0523
     20 H1         -0.9609    1.9033    0.0258 H         1 <0>         0.1264
     21 H2          1.0992    3.0697    0.6953 H         1 <0>         0.1286
     22 H3          3.2533    1.8822    0.6715 H         1 <0>         0.1347
     23 H4          1.2669   -1.6565   -0.7101 H         1 <0>         0.1264
     24 H5         -0.8777   -0.4522   -0.6794 H         1 <0>         0.1285
     25 H6          6.8574    0.1835   -0.1966 H         1 <0>         0.1343
     26 H7          6.2337   -1.2138    0.7169 H         1 <0>         0.0954
     27 H8          5.5266   -2.9997   -2.4234 H         1 <0>         0.4142
     28 H9          2.0923   -2.0769    1.5417 H         1 <0>         0.1486
     29 H10         3.4254   -5.9855    0.4953 H         1 <0>         0.1471
     30 H11         5.0429   -5.0224   -1.0923 H         1 <0>         0.1461
@<TRIPOS>BOND
     1    1    6 ar
     2    1    2 ar
     3    1   20 1
     4    2    3 ar
     5    2   21 1
     6    3    4 ar
     7    3   22 1
     8    4    5 ar
     9    4    7 1
    10    5    6 ar
    11    5   23 1
    12    6   24 1
    13    7   14 1
    14    7    8 2
    15    8    9 1
    16    9   10 1
    17    9   25 1
    18    9   26 1
    19   10   11 2
    20   10   12 am
    21   12   13 1
    22   12   27 1
    23   13   18 ar
    24   13   14 ar
    25   14   15 ar
    26   15   16 ar
    27   15   28 1
    28   16   17 ar
    29   16   19 1
    30   17   18 ar
    31   17   29 1
    32   18   30 1
@<TRIPOS>MOLECULE
ZINC04163163
   38    40     0     0     0
SMALL
USER_CHARGES
2-(1H-indol-3-yl)-2-oxo-N-(1-phenylethyl)acetamide
@<TRIPOS>ATOM
      1 C1          1.4074    4.0985    1.4307 C.3       1 <0>        -0.1594
      2 C2          1.1505    3.5924    0.0099 C.3       1 <0>         0.1810
      3 H1          0.1767    3.9443   -0.3307 H         1 <0>         0.1019
      4 C3          1.1709    2.0855    0.0021 C.ar      1 <0>        -0.0974
      5 C4         -0.0167    1.3781    0.0096 C.ar      1 <0>        -0.1061
      6 C5          0.0021   -0.0041    0.0020 C.ar      1 <0>        -0.1153
      7 C6          1.2084   -0.6789   -0.0136 C.ar      1 <0>        -0.1165
      8 C7          2.3961    0.0285   -0.0212 C.ar      1 <0>        -0.1142
      9 C8          2.3773    1.4107   -0.0136 C.ar      1 <0>        -0.1141
     10 N1          2.1935    4.0996   -0.8852 N.am      1 <0>        -0.6994
     11 C9          2.0712    5.3229   -1.4374 C.2       1 <0>         0.4926
     12 O1          1.0969    6.0044   -1.1932 O.2       1 <0>        -0.5181
     13 C10         3.1332    5.8393   -2.3489 C.2       1 <0>         0.4207
     14 O2          4.1089    5.1569   -2.5934 O.2       1 <0>        -0.4393
     15 C11         3.0006    7.1663   -2.9480 C.2       1 <0>        -0.2771
     16 C12         1.9561    8.0551   -2.7749 C.2       1 <0>         0.1670
     17 N2          2.1931    9.1731   -3.4844 N.pl3     1 <0>        -0.5678
     18 H2          1.6014    9.9411   -3.5170 H         1 <0>         0.4237
     19 C13         3.3912    9.0762   -4.1644 C.ar      1 <0>         0.0704
     20 C14         3.9517    7.8246   -3.8645 C.ar      1 <0>        -0.0546
     21 C15         5.1731    7.4544   -4.4188 C.ar      1 <0>        -0.0763
     22 C16         5.8303    8.3231   -5.2641 C.ar      1 <0>        -0.1296
     23 C17         5.2787    9.5598   -5.5617 C.ar      1 <0>        -0.1039
     24 C18         4.0692    9.9385   -5.0191 C.ar      1 <0>        -0.1179
     25 H3          1.3926    5.1884    1.4364 H         1 <0>         0.0672
     26 H4          0.6313    3.7211    2.0967 H         1 <0>         0.0722
     27 H5          2.3811    3.7466    1.7713 H         1 <0>         0.0615
     28 H6         -0.9592    1.9054    0.0170 H         1 <0>         0.1256
     29 H7         -0.9258   -0.5567    0.0079 H         1 <0>         0.1256
     30 H8          1.2231   -1.7588   -0.0196 H         1 <0>         0.1243
     31 H9          3.3386   -0.4987   -0.0327 H         1 <0>         0.1254
     32 H10         3.3052    1.9634   -0.0192 H         1 <0>         0.1214
     33 H11         2.9721    3.5549   -1.0803 H         1 <0>         0.4107
     34 H12         1.0843    7.8796   -2.1620 H         1 <0>         0.2031
     35 H13         5.6044    6.4916   -4.1877 H         1 <0>         0.1319
     36 H14         6.7787    8.0393   -5.6958 H         1 <0>         0.1277
     37 H15         5.8016   10.2331   -6.2248 H         1 <0>         0.1293
     38 H16         3.6487   10.9044   -5.2574 H         1 <0>         0.1240
@<TRIPOS>BOND
     1    1    2 1
     2    1   25 1
     3    1   26 1
     4    1   27 1
     5    2    3 1
     6    2    4 1
     7    2   10 1
     8    4    9 ar
     9    4    5 ar
    10    5    6 ar
    11    5   28 1
    12    6    7 ar
    13    6   29 1
    14    7    8 ar
    15    7   30 1
    16    8    9 ar
    17    8   31 1
    18    9   32 1
    19   10   11 am
    20   10   33 1
    21   11   12 2
    22   11   13 1
    23   13   14 2
    24   13   15 1
    25   15   20 1
    26   15   16 2
    27   16   17 1
    28   16   34 1
    29   17   18 1
    30   17   19 1
    31   19   24 ar
    32   19   20 ar
    33   20   21 ar
    34   21   22 ar
    35   21   35 1
    36   22   23 ar
    37   22   36 1
    38   23   24 ar
    39   23   37 1
    40   24   38 1
@<TRIPOS>MOLECULE
ZINC13863224
   40    42     0     0     0
SMALL
USER_CHARGES
2-(5-nitro-1H-indol-3-yl)-2-oxo-N-[(1R)-1-phenylethyl]acetamide
@<TRIPOS>ATOM
      1 C1          8.2939    4.7655   -1.4840 C.3       1 <0>        -0.1598
      2 C2          8.0847    4.2814   -0.0477 C.3       1 <0>         0.1815
      3 H1          7.6627    5.0892    0.5501 H         1 <0>         0.1029
      4 C3          9.4078    3.8609    0.5385 C.ar      1 <0>        -0.0992
      5 C4          9.9330    2.6179    0.2383 C.ar      1 <0>        -0.1141
      6 C5         11.1487    2.2340    0.7726 C.ar      1 <0>        -0.1136
      7 C6         11.8347    3.0892    1.6146 C.ar      1 <0>        -0.1155
      8 C7         11.3072    4.3303    1.9185 C.ar      1 <0>        -0.1151
      9 C8         10.0935    4.7160    1.3808 C.ar      1 <0>        -0.1058
     10 N1          7.1652    3.1408   -0.0459 N.am      1 <0>        -0.6962
     11 C9          5.8336    3.3487   -0.0328 C.2       1 <0>         0.4945
     12 O1          5.3962    4.4810   -0.0224 O.2       1 <0>        -0.5175
     13 C10         4.8974    2.1874   -0.0309 C.2       1 <0>         0.4186
     14 O2          5.3354    1.0536   -0.0413 O.2       1 <0>        -0.4273
     15 C11         3.4529    2.4129   -0.0166 C.2       1 <0>        -0.2585
     16 C12         2.8029    3.6327   -0.0039 C.2       1 <0>         0.1760
     17 N2          1.4724    3.4345    0.0070 N.pl3     1 <0>        -0.5617
     18 H2          0.8097    4.1428    0.0173 H         1 <0>         0.4319
     19 C13         1.1787    2.0851    0.0020 C.ar      1 <0>         0.1167
     20 C14         2.3948    1.3840   -0.0129 C.ar      1 <0>        -0.0641
     21 C15         2.3999   -0.0073   -0.0204 C.ar      1 <0>         0.0030
     22 C16         1.2044   -0.6943   -0.0132 C.ar      1 <0>        -0.0557
     23 C17         0.0021   -0.0041    0.0020 C.ar      1 <0>        -0.0514
     24 C18        -0.0166    1.3744    0.0096 C.ar      1 <0>        -0.1077
     25 N3          1.2047   -2.1745   -0.0211 N.pl3     1 <0>         0.0313
     26 O3          0.1501   -2.7837   -0.0143 O.2       1 <0>        -0.1591
     27 O4          2.2596   -2.7832   -0.0345 O.3       1 <0>        -0.1586
     28 H3          7.3369    5.0696   -1.9080 H         1 <0>         0.0671
     29 H4          8.9780    5.6140   -1.4853 H         1 <0>         0.0732
     30 H5          8.7159    3.9576   -2.0818 H         1 <0>         0.0621
     31 H6          9.3951    1.9482   -0.4162 H         1 <0>         0.1214
     32 H7         11.5610    1.2645    0.5349 H         1 <0>         0.1260
     33 H8         12.7829    2.7879    2.0346 H         1 <0>         0.1247
     34 H9         11.8431    4.9985    2.5763 H         1 <0>         0.1259
     35 H10         9.6812    5.6854    1.6185 H         1 <0>         0.1256
     36 H11         7.5148    2.2360   -0.0542 H         1 <0>         0.4119
     37 H12         3.2888    4.5972   -0.0028 H         1 <0>         0.2130
     38 H13         3.3356   -0.5465   -0.0323 H         1 <0>         0.1631
     39 H14        -0.9288   -0.5516    0.0083 H         1 <0>         0.1603
     40 H15        -0.9589    1.9020    0.0169 H         1 <0>         0.1501
@<TRIPOS>BOND
     1    1    2 1
     2    1   28 1
     3    1   29 1
     4    1   30 1
     5    2    3 1
     6    2    4 1
     7    2   10 1
     8    4    9 ar
     9    4    5 ar
    10    5    6 ar
    11    5   31 1
    12    6    7 ar
    13    6   32 1
    14    7    8 ar
    15    7   33 1
    16    8    9 ar
    17    8   34 1
    18    9   35 1
    19   10   11 am
    20   10   36 1
    21   11   12 2
    22   11   13 1
    23   13   14 2
    24   13   15 1
    25   15   20 1
    26   15   16 2
    27   16   17 1
    28   16   37 1
    29   17   18 1
    30   17   19 1
    31   19   24 ar
    32   19   20 ar
    33   20   21 ar
    34   21   22 ar
    35   21   38 1
    36   22   23 ar
    37   22   25 1
    38   23   24 ar
    39   23   39 1
    40   24   40 1
    41   25   26 2
    42   25   27 1
@<TRIPOS>MOLECULE
ZINC03875364
   51    54     0     0     0
SMALL
USER_CHARGES

@<TRIPOS>ATOM
      1 C1         -0.0029    1.5259    0.0192 C.3       1 <0>        -0.1496
      2 C2          0.0189   -0.0039    0.0113 C.3       1 <0>        -0.0475
      3 C3         -1.4159   -0.5356    0.0299 C.3       1 <0>        -0.1093
      4 C4         -1.3917   -2.0656    0.0163 C.3       1 <0>        -0.1538
      5 C5         -0.6439   -2.5750    1.2500 C.3       1 <0>         0.1048
      6 H1         -1.1509   -2.2290    2.1507 H         1 <0>         0.0514
      7 C6          0.7896   -2.0408    1.2346 C.3       1 <0>        -0.1107
      8 C7          0.7649   -0.5109    1.2478 C.3       1 <0>        -0.0719
      9 H2          0.2551   -0.1654    2.1472 H         1 <0>         0.0705
     10 C8          2.1980    0.0246    1.2337 C.3       1 <0>        -0.1151
     11 C9          2.9125   -0.4598   -0.0295 C.3       1 <0>        -0.1166
     12 C10         2.1671    0.0502   -1.2638 C.3       1 <0>        -0.0746
     13 H3          2.1452    1.1399   -1.2564 H         1 <0>         0.0850
     14 C11         0.7320   -0.4981   -1.2480 C.3       1 <0>        -0.0731
     15 H4          0.7710   -1.5872   -1.2264 H         1 <0>         0.0749
     16 C12        -0.0453   -0.0718   -2.4886 C.3       1 <0>        -0.1199
     17 C13         0.6939   -0.4716   -3.7769 C.3       1 <0>        -0.0973
     18 C14         2.0671    0.1673   -3.7259 C.3       1 <0>        -0.1241
     19 C15         2.8461   -0.4405   -2.5295 C.3       1 <0>        -0.0786
     20 H5          2.8163   -1.5288   -2.5819 H         1 <0>         0.0798
     21 C16         4.2636    0.0930   -2.7725 C.3       1 <0>        -0.1110
     22 C17         4.4120   -0.0355   -4.3132 C.3       1 <0>        -0.1800
     23 C18         2.9760   -0.0803   -4.8930 C.2       1 <0>         0.3772
     24 O1          2.6530   -0.2367   -6.0461 O.2       1 <0>        -0.4381
     25 C19         1.9251    1.6731   -3.4953 C.3       1 <0>        -0.1434
     26 O2         -0.6199   -4.0038    1.2360 O.3       1 <0>        -0.5697
     27 H6          1.0194    1.9039    0.0067 H         1 <0>         0.0630
     28 H7         -0.5342    1.8863   -0.8617 H         1 <0>         0.0575
     29 H8         -0.5093    1.8775    0.9181 H         1 <0>         0.0538
     30 H9         -1.9207   -0.1880    0.9313 H         1 <0>         0.0625
     31 H10        -1.9495   -0.1726   -0.8486 H         1 <0>         0.0695
     32 H11        -2.4134   -2.4452    0.0283 H         1 <0>         0.0617
     33 H12        -0.8857   -2.4129   -0.8845 H         1 <0>         0.0741
     34 H13         1.3217   -2.4031    2.1142 H         1 <0>         0.0667
     35 H14         1.2971   -2.3881    0.3346 H         1 <0>         0.0768
     36 H15         2.1786    1.1144    1.2447 H         1 <0>         0.0677
     37 H16         2.7298   -0.3379    2.1134 H         1 <0>         0.0626
     38 H17         3.9336   -0.0784   -0.0383 H         1 <0>         0.0637
     39 H18         2.9315   -1.5495   -0.0410 H         1 <0>         0.0651
     40 H19        -1.0253   -0.5487   -2.4770 H         1 <0>         0.0659
     41 H20        -0.1760    1.0102   -2.4734 H         1 <0>         0.0704
     42 H21         0.7912   -1.5561   -3.8273 H         1 <0>         0.0647
     43 H22         0.1473   -0.1066   -4.6465 H         1 <0>         0.0693
     44 H23         4.3438    1.1346   -2.4614 H         1 <0>         0.0780
     45 H24         5.0022   -0.5232   -2.2598 H         1 <0>         0.0775
     46 H25         4.9746    0.8115   -4.7059 H         1 <0>         0.0983
     47 H26         4.9176   -0.9682   -4.5631 H         1 <0>         0.0926
     48 H27         1.3281    1.8490   -2.6005 H         1 <0>         0.0821
     49 H28         2.9128    2.1156   -3.3658 H         1 <0>         0.0626
     50 H29         1.4334    2.1276   -4.3554 H         1 <0>         0.0571
     51 H30        -1.4964   -4.4120    1.2449 H         1 <0>         0.3773
@<TRIPOS>BOND
     1    1    2 1
     2    1   27 1
     3    1   28 1
     4    1   29 1
     5    2    8 1
     6    2   14 1
     7    2    3 1
     8    3    4 1
     9    3   30 1
    10    3   31 1
    11    4    5 1
    12    4   32 1
    13    4   33 1
    14    5    6 1
    15    5    7 1
    16    5   26 1
    17    7    8 1
    18    7   34 1
    19    7   35 1
    20    8    9 1
    21    8   10 1
    22   10   11 1
    23   10   36 1
    24   10   37 1
    25   11   12 1
    26   11   38 1
    27   11   39 1
    28   12   13 1
    29   12   19 1
    30   12   14 1
    31   14   15 1
    32   14   16 1
    33   16   17 1
    34   16   40 1
    35   16   41 1
    36   17   18 1
    37   17   42 1
    38   17   43 1
    39   18   23 1
    40   18   19 1
    41   18   25 1
    42   19   20 1
    43   19   21 1
    44   21   22 1
    45   21   44 1
    46   21   45 1
    47   22   23 1
    48   22   46 1
    49   22   47 1
    50   23   24 2
    51   25   48 1
    52   25   49 1
    53   25   50 1
    54   26   51 1
@<TRIPOS>MOLECULE
ZINC03861550
   51    54     0     0     0
SMALL
USER_CHARGES

@<TRIPOS>ATOM
      1 C1          0.0008    1.5258    0.0212 C.3       1 <0>        -0.1534
      2 C2          0.0228   -0.0040    0.0134 C.3       1 <0>        -0.0433
      3 C3         -1.4120   -0.5354    0.0326 C.3       1 <0>        -0.1058
      4 C4         -2.1211   -0.0467    1.2971 C.3       1 <0>        -0.1546
      5 C5         -1.3727   -0.5559    2.5307 C.3       1 <0>         0.1050
      6 H1         -1.8782   -0.2082    3.4316 H         1 <0>         0.0508
      7 C6          0.0613   -0.0228    2.5122 C.3       1 <0>        -0.1097
      8 C7          0.7701   -0.5102    1.2491 C.3       1 <0>        -0.0687
      9 H2          0.7878   -1.6000    1.2414 H         1 <0>         0.0774
     10 C8          2.2046    0.0211    1.2325 C.3       1 <0>        -0.1180
     11 C9          2.9157   -0.4668   -0.0314 C.3       1 <0>        -0.1126
     12 C10         2.1706    0.0454   -1.2648 C.3       1 <0>        -0.0743
     13 H3          2.1526    1.1353   -1.2579 H         1 <0>         0.0847
     14 C11         0.7334   -0.4977   -1.2475 C.3       1 <0>        -0.0681
     15 H4          0.7685   -1.5870   -1.2284 H         1 <0>         0.0666
     16 C12        -0.0433   -0.0661   -2.4868 C.3       1 <0>        -0.1193
     17 C13         0.6921   -0.4679   -3.7764 C.3       1 <0>        -0.0973
     18 C14         2.0689    0.1634   -3.7269 C.3       1 <0>        -0.1243
     19 C15         2.8458   -0.4483   -2.5312 C.3       1 <0>        -0.0787
     20 H5          2.8101   -1.5365   -2.5838 H         1 <0>         0.0800
     21 C16         4.2661    0.0771   -2.7756 C.3       1 <0>        -0.1110
     22 C17         4.4122   -0.0523   -4.3164 C.3       1 <0>        -0.1799
     23 C18         2.9753   -0.0894   -4.8949 C.2       1 <0>         0.3773
     24 O1          2.6502   -0.2438   -6.0477 O.2       1 <0>        -0.4383
     25 C19         1.9355    1.6700   -3.4964 C.3       1 <0>        -0.1434
     26 O2         -1.3503   -1.9847    2.5183 O.3       1 <0>        -0.5631
     27 H6          1.0230    1.9040    0.0077 H         1 <0>         0.0607
     28 H7         -0.5315    1.8860   -0.8591 H         1 <0>         0.0551
     29 H8         -0.5047    1.8774    0.9207 H         1 <0>         0.0575
     30 H9         -1.9454   -0.1727   -0.8461 H         1 <0>         0.0630
     31 H10        -1.3959   -1.6252    0.0234 H         1 <0>         0.0670
     32 H11        -2.1375    1.0431    1.3063 H         1 <0>         0.0734
     33 H12        -3.1430   -0.4256    1.3100 H         1 <0>         0.0616
     34 H13         0.0440    1.0671    2.5206 H         1 <0>         0.0762
     35 H14         0.5948   -0.3845    3.3913 H         1 <0>         0.0667
     36 H15         2.1884    1.1109    1.2424 H         1 <0>         0.0637
     37 H16         2.7366   -0.3421    2.1118 H         1 <0>         0.0604
     38 H17         3.9382   -0.0893   -0.0417 H         1 <0>         0.0630
     39 H18         2.9305   -1.5567   -0.0423 H         1 <0>         0.0612
     40 H19        -1.0257   -0.5381   -2.4745 H         1 <0>         0.0658
     41 H20        -0.1687    1.0166   -2.4701 H         1 <0>         0.0702
     42 H21         0.7835   -1.5528   -3.8284 H         1 <0>         0.0649
     43 H22         0.1463   -0.0989   -4.6448 H         1 <0>         0.0691
     44 H23         4.3524    1.1182   -2.4646 H         1 <0>         0.0778
     45 H24         5.0017   -0.5433   -2.2635 H         1 <0>         0.0775
     46 H25         4.9795    0.7913   -4.7097 H         1 <0>         0.0982
     47 H26         4.9121   -0.9880   -4.5668 H         1 <0>         0.0925
     48 H27         1.3394    1.8493   -2.6016 H         1 <0>         0.0821
     49 H28         2.9257    2.1068   -3.3669 H         1 <0>         0.0625
     50 H29         1.4464    2.1273   -4.3565 H         1 <0>         0.0570
     51 H30        -2.2272   -2.3920    2.5283 H         1 <0>         0.3749
@<TRIPOS>BOND
     1    1    2 1
     2    1   27 1
     3    1   28 1
     4    1   29 1
     5    2    8 1
     6    2   14 1
     7    2    3 1
     8    3    4 1
     9    3   30 1
    10    3   31 1
    11    4    5 1
    12    4   32 1
    13    4   33 1
    14    5    6 1
    15    5    7 1
    16    5   26 1
    17    7    8 1
    18    7   34 1
    19    7   35 1
    20    8    9 1
    21    8   10 1
    22   10   11 1
    23   10   36 1
    24   10   37 1
    25   11   12 1
    26   11   38 1
    27   11   39 1
    28   12   13 1
    29   12   19 1
    30   12   14 1
    31   14   15 1
    32   14   16 1
    33   16   17 1
    34   16   40 1
    35   16   41 1
    36   17   18 1
    37   17   42 1
    38   17   43 1
    39   18   23 1
    40   18   19 1
    41   18   25 1
    42   19   20 1
    43   19   21 1
    44   21   22 1
    45   21   44 1
    46   21   45 1
    47   22   23 1
    48   22   46 1
    49   22   47 1
    50   23   24 2
    51   25   48 1
    52   25   49 1
    53   25   50 1
    54   26   51 1
@<TRIPOS>MOLECULE
ZINC00003876
   44    46     0     0     0
SMALL
USER_CHARGES

@<TRIPOS>ATOM
      1 C1         -0.9117    1.3819    0.8050 C.3       1 <0>        -0.1169
      2 C2         -0.6965   -0.0986    0.6235 C.ar      1 <0>        -0.0790
      3 C3          0.5861   -0.6161    0.6437 C.ar      1 <0>        -0.1207
      4 C4          0.7890   -1.9712    0.4780 C.ar      1 <0>        -0.0987
      5 C5         -0.3012   -2.8184    0.2904 C.ar      1 <0>        -0.0178
      6 C6         -1.5911   -2.2918    0.2714 C.ar      1 <0>        -0.0819
      7 C7         -1.7827   -0.9357    0.4429 C.ar      1 <0>        -0.1210
      8 C8         -0.0893   -4.2762    0.1112 C.2       1 <0>         0.1167
      9 C9          0.7803   -5.0491    0.8198 C.2       1 <0>        -0.0371
     10 N1          0.6641   -6.3246    0.3429 N.pl3     1 <0>        -0.3454
     11 C10         1.2856   -7.4928    0.6792 C.2       1 <0>         0.0517
     12 C11         0.9826   -8.6418    0.0396 C.2       1 <0>        -0.1050
     13 C12         0.0205   -8.6507   -0.9840 C.2       1 <0>        -0.0971
     14 C13        -0.6066   -7.4944   -1.3295 C.2       1 <0>        -0.0747
     15 C14        -0.2794   -6.3016   -0.6521 C.2       1 <0>         0.2302
     16 N2         -0.7258   -5.0604   -0.7732 N.2       1 <0>        -0.4775
     17 C15         1.6798   -9.9210    0.4248 C.3       1 <0>        -0.1052
     18 C16         1.6977   -4.5850    1.9216 C.3       1 <0>        -0.0616
     19 C17         3.0613   -4.2930    1.3502 C.2       1 <0>         0.5079
     20 O1          3.2678   -4.4466    0.1650 O.2       1 <0>        -0.5213
     21 N3          4.0514   -3.8612    2.1563 N.am      1 <0>        -0.6226
     22 C18         5.3769   -3.5773    1.6009 C.3       1 <0>         0.0837
     23 C19         3.8020   -3.6756    3.5880 C.3       1 <0>         0.0707
     24 H1         -1.0291    1.6046    1.8655 H         1 <0>         0.0717
     25 H2         -0.0517    1.9248    0.4128 H         1 <0>         0.0669
     26 H3         -1.8098    1.6870    0.2680 H         1 <0>         0.0678
     27 H4          1.4304    0.0415    0.7891 H         1 <0>         0.1238
     28 H5          1.7909   -2.3741    0.4932 H         1 <0>         0.1195
     29 H6         -2.4397   -2.9440    0.1264 H         1 <0>         0.1276
     30 H7         -2.7824   -0.5270    0.4324 H         1 <0>         0.1260
     31 H8          2.0271   -7.4974    1.4645 H         1 <0>         0.1559
     32 H9         -0.2198   -9.5716   -1.4945 H         1 <0>         0.1447
     33 H10        -1.3475   -7.4896   -2.1152 H         1 <0>         0.1539
     34 H11         1.1134  -10.4213    1.2103 H         1 <0>         0.0768
     35 H12         1.7486  -10.5737   -0.4455 H         1 <0>         0.0766
     36 H13         2.6819   -9.6934    0.7883 H         1 <0>         0.0691
     37 H14         1.2925   -3.6804    2.3750 H         1 <0>         0.1217
     38 H15         1.7804   -5.3652    2.6783 H         1 <0>         0.1017
     39 H16         5.4240   -2.5342    1.2880 H         1 <0>         0.0572
     40 H17         6.1365   -3.7635    2.3601 H         1 <0>         0.0719
     41 H18         5.5565   -4.2229    0.7412 H         1 <0>         0.0766
     42 H19         2.7674   -3.9347    3.8131 H         1 <0>         0.0792
     43 H20         4.4704   -4.3194    4.1596 H         1 <0>         0.0662
     44 H21         3.9825   -2.6347    3.8563 H         1 <0>         0.0678
@<TRIPOS>BOND
     1    1    2 1
     2    1   24 1
     3    1   25 1
     4    1   26 1
     5    2    7 ar
     6    2    3 ar
     7    3    4 ar
     8    3   27 1
     9    4    5 ar
    10    4   28 1
    11    5    6 ar
    12    5    8 1
    13    6    7 ar
    14    6   29 1
    15    7   30 1
    16    8   16 1
    17    8    9 2
    18    9   10 1
    19    9   18 1
    20   10   15 1
    21   10   11 1
    22   11   12 2
    23   11   31 1
    24   12   13 1
    25   12   17 1
    26   13   14 2
    27   13   32 1
    28   14   15 1
    29   14   33 1
    30   15   16 2
    31   17   34 1
    32   17   35 1
    33   17   36 1
    34   18   19 1
    35   18   37 1
    36   18   38 1
    37   19   20 2
    38   19   21 am
    39   21   22 1
    40   21   23 1
    41   22   39 1
    42   22   40 1
    43   22   41 1
    44   23   42 1
    45   23   43 1
    46   23   44 1
@<TRIPOS>MOLECULE
ZINC00003876
   45    47     0     0     0
SMALL
USER_CHARGES

@<TRIPOS>ATOM
      1 C1         -0.0184    1.5028    0.0103 C.3       1 <0>        -0.1298
      2 C2          0.0021   -0.0041    0.0020 C.ar      1 <0>        -0.0415
      3 C3          0.0057   -0.6865   -1.2011 C.ar      1 <0>        -0.1156
      4 C4          0.0244   -2.0665   -1.2146 C.ar      1 <0>        -0.0824
      5 C5          0.0401   -2.7722   -0.0132 C.ar      1 <0>        -0.0858
      6 C6          0.0368   -2.0796    1.1958 C.ar      1 <0>        -0.0737
      7 C7          0.0229   -0.6995    1.1975 C.ar      1 <0>        -0.1157
      8 C8          0.0597   -4.2561   -0.0214 C.2       1 <0>         0.1702
      9 C9         -0.7101   -5.0684    0.7552 C.2       1 <0>         0.0252
     10 N1         -0.3822   -6.3565    0.4370 N.pl3     1 <0>        -0.3091
     11 C10        -0.8325   -7.5609    0.8964 C.2       1 <0>         0.0725
     12 C11        -0.3332   -8.7143    0.4052 C.2       1 <0>        -0.0702
     13 C12         0.6596   -8.6908   -0.5884 C.2       1 <0>        -0.0204
     14 C13         1.1176   -7.4983   -1.0553 C.2       1 <0>        -0.1164
     15 C14         0.5863   -6.3013   -0.5324 C.cat     1 <0>         0.3049
     16 N2          0.8350   -5.0279   -0.7995 N.pl3     1 <0>        -0.5016
     17 C15        -0.8427  -10.0338    0.9253 C.3       1 <0>        -0.1221
     18 C16        -1.7306   -4.6296    1.7735 C.3       1 <0>        -0.0775
     19 C17        -1.0655   -4.4753    3.1170 C.2       1 <0>         0.5078
     20 O1          0.1204   -4.6997    3.2358 O.2       1 <0>        -0.5296
     21 N3         -1.7885   -4.0881    4.1864 N.am      1 <0>        -0.6101
     22 C18        -1.1420   -3.9381    5.4924 C.3       1 <0>         0.0789
     23 C19        -3.2211   -3.8170    4.0429 C.3       1 <0>         0.0651
     24 H1          1.0042    1.8801    0.0026 H         1 <0>         0.0833
     25 H2         -0.5455    1.8639   -0.8728 H         1 <0>         0.0766
     26 H3         -0.5286    1.8543    0.9071 H         1 <0>         0.0762
     27 H4         -0.0064   -0.1385   -2.1317 H         1 <0>         0.1390
     28 H5          0.0266   -2.5984   -2.1545 H         1 <0>         0.1289
     29 H6          0.0488   -2.6217    2.1299 H         1 <0>         0.1324
     30 H7          0.0244   -0.1616    2.1340 H         1 <0>         0.1378
     31 H8         -1.5953   -7.5907    1.6603 H         1 <0>         0.1924
     32 H9          1.0577   -9.6154   -0.9795 H         1 <0>         0.1759
     33 H10         1.8809   -7.4684   -1.8188 H         1 <0>         0.1817
     34 H11        -1.6926  -10.3574    0.3245 H         1 <0>         0.0964
     35 H12        -0.0496  -10.7791    0.8641 H         1 <0>         0.0930
     36 H13        -1.1542   -9.9192    1.9635 H         1 <0>         0.0856
     37 H14        -2.1604   -3.6752    1.4692 H         1 <0>         0.1397
     38 H15        -2.5200   -5.3780    1.8427 H         1 <0>         0.1237
     39 H16        -0.7740   -2.9178    5.6007 H         1 <0>         0.0640
     40 H17        -1.8635   -4.1498    6.2815 H         1 <0>         0.0798
     41 H18        -0.3073   -4.6352    5.5668 H         1 <0>         0.0805
     42 H19        -3.7840   -4.7329    4.2229 H         1 <0>         0.0675
     43 H20        -3.5214   -3.0581    4.7652 H         1 <0>         0.0860
     44 H21        -3.4237   -3.4585    3.0337 H         1 <0>         0.0751
     45 H22         1.4768   -4.7047   -1.4511 H         1 <0>         0.4614
@<TRIPOS>BOND
     1    1    2 1
     2    1   24 1
     3    1   25 1
     4    1   26 1
     5    2    7 ar
     6    2    3 ar
     7    3    4 ar
     8    3   27 1
     9    4    5 ar
    10    4   28 1
    11    5    6 ar
    12    5    8 1
    13    6    7 ar
    14    6   29 1
    15    7   30 1
    16    8   16 1
    17    8    9 2
    18    9   10 1
    19    9   18 1
    20   10   15 1
    21   10   11 1
    22   11   12 2
    23   11   31 1
    24   12   13 1
    25   12   17 1
    26   13   14 2
    27   13   32 1
    28   14   15 1
    29   14   33 1
    30   15   16 2
    31   16   45 1
    32   17   34 1
    33   17   35 1
    34   17   36 1
    35   18   19 1
    36   18   37 1
    37   18   38 1
    38   19   20 2
    39   19   21 am
    40   21   22 1
    41   21   23 1
    42   22   39 1
    43   22   40 1
    44   22   41 1
    45   23   42 1
    46   23   43 1
    47   23   44 1
@<TRIPOS>MOLECULE
ZINC01532620
   16    15     0     0     0
SMALL
USER_CHARGES

@<TRIPOS>ATOM
      1 C1         -0.0187    1.5258    0.0104 C.3       1 <0>        -0.1250
      2 C2          0.0021   -0.0041    0.0020 C.3       1 <0>        -0.1856
      3 C3         -1.4117   -0.5257    0.0127 C.2       1 <0>         0.4870
      4 O1         -2.3491    0.2539    0.0259 O.co2     1 <0>        -0.6970
      5 O2         -1.6182   -1.7273    0.0082 O.co2     1 <0>        -0.6862
      6 C4          1.4167    2.0553   -0.0004 C.3       1 <0>        -0.0130
      7 N1          1.3968    3.5242    0.0076 N.4       1 <0>        -0.6362
      8 H1         -0.5459    1.8868   -0.8726 H         1 <0>         0.0846
      9 H2         -0.5289    1.8773    0.9072 H         1 <0>         0.0846
     10 H3          0.5123   -0.3556   -0.8948 H         1 <0>         0.0679
     11 H4          0.5293   -0.3651    0.8851 H         1 <0>         0.0679
     12 H5          1.9439    1.6943    0.8826 H         1 <0>         0.1275
     13 H6          1.9269    1.7038   -0.8972 H         1 <0>         0.1275
     14 H7          2.3434    3.8734    0.0005 H         1 <0>         0.4293
     15 H8          0.9088    3.8584   -0.8098 H         1 <0>         0.4334
     16 H9          0.9245    3.8496    0.8378 H         1 <0>         0.4334
@<TRIPOS>BOND
     1    1    2 1
     2    1    6 1
     3    1    8 1
     4    1    9 1
     5    2    3 1
     6    2   10 1
     7    2   11 1
     8    3    4 2
     9    3    5 1
    10    6    7 1
    11    6   12 1
    12    6   13 1
    13    7   14 1
    14    7   15 1
    15    7   16 1
