@<TRIPOS>MOLECULE
ZINC01532157
   30    31     0     0     0
SMALL
USER_CHARGES

@<TRIPOS>ATOM
      1 C1          0.6241    1.3582    1.1570 C.ar      1 <0>        -0.0402
      2 C2          1.1796    2.0855    0.1204 C.ar      1 <0>        -0.1470
      3 C3          1.7557    1.4341   -0.9546 C.ar      1 <0>        -0.0419
      4 C4          1.7778    0.0526   -0.9968 C.ar      1 <0>        -0.0140
      5 C5          1.2206   -0.6815    0.0429 C.ar      1 <0>         0.1822
      6 C6          0.6429   -0.0236    1.1218 C.ar      1 <0>        -0.0370
      7 Cl1        -0.0548   -0.9357    2.4237 Cl        1 <0>        -0.0099
      8 N1          1.2407   -2.0822    0.0033 N.pl3     1 <0>        -0.3493
      9 C7          0.1537   -2.9004    0.0743 C.2       1 <0>         0.5034
     10 C8          0.5952   -4.1828    0.0019 C.2       1 <0>        -0.6460
     11 C9          2.0005   -4.1488   -0.1175 C.2       1 <0>         0.2619
     12 N2          2.3813   -2.8853   -0.1222 N.2       1 <0>        -0.2092
     13 C10         2.8631   -5.2871   -0.2217 C.1       1 <0>         0.2680
     14 N3          3.5474   -6.1901   -0.3044 N.1       1 <0>        -0.3345
     15 S1         -0.4082   -5.6305    0.0487 S.o       1 <0>         1.4312
     16 O1          0.4701   -6.6422    0.5223 O.2       1 <0>        -0.7564
     17 C11        -0.8082   -5.9437   -1.6927 C.3       1 <0>         0.0980
     18 F1          0.3737   -6.1446   -2.4138 F         1 <0>        -0.1891
     19 F2         -1.6126   -7.0843   -1.7885 F         1 <0>        -0.1738
     20 F3         -1.4942   -4.8437   -2.2187 F         1 <0>        -0.1709
     21 N4         -1.1722   -2.4947    0.1993 N.pl3     1 <0>        -0.8236
     22 Cl2         2.5003   -0.7642   -2.3476 Cl        1 <0>        -0.0017
     23 C12         1.1566    3.5917    0.1623 C.3       1 <0>         0.5153
     24 F4          2.3120    4.0583    0.7985 F         1 <0>        -0.1653
     25 F5          1.1077    4.0938   -1.1426 F         1 <0>        -0.1671
     26 F6          0.0288    4.0214    0.8698 F         1 <0>        -0.1674
     27 H1          0.1790    1.8703    1.9972 H         1 <0>         0.1698
     28 H2          2.1886    2.0054   -1.7625 H         1 <0>         0.1687
     29 H3         -1.3977   -1.5525    0.1513 H         1 <0>         0.4162
     30 H4         -1.8706   -3.1542    0.3343 H         1 <0>         0.4295
@<TRIPOS>BOND
     1    1    6 ar
     2    1    2 ar
     3    1   27 1
     4    2    3 ar
     5    2   23 1
     6    3    4 ar
     7    3   28 1
     8    4    5 ar
     9    4   22 1
    10    5    6 ar
    11    5    8 1
    12    6    7 1
    13    8   12 1
    14    8    9 1
    15    9   10 2
    16    9   21 1
    17   10   11 1
    18   10   15 1
    19   11   12 2
    20   11   13 1
    21   13   14 3
    22   15   16 2
    23   15   17 1
    24   17   18 1
    25   17   19 1
    26   17   20 1
    27   21   29 1
    28   21   30 1
    29   23   24 1
    30   23   25 1
    31   23   26 1
@<TRIPOS>MOLECULE
ZINC03872568
   30    31     0     0     0
SMALL
USER_CHARGES

@<TRIPOS>ATOM
      1 C1          0.6247    1.3688    1.1156 C.ar      1 <0>        -0.0407
      2 C2          1.1752    2.0866    0.0698 C.ar      1 <0>        -0.1473
      3 C3          1.7474    1.4255   -1.0014 C.ar      1 <0>        -0.0423
      4 C4          1.7706    0.0437   -1.0304 C.ar      1 <0>        -0.0141
      5 C5          1.2185   -0.6810    0.0186 C.ar      1 <0>         0.1815
      6 C6          0.6447   -0.0133    1.0935 C.ar      1 <0>        -0.0389
      7 Cl1        -0.0467   -0.9135    2.4070 Cl        1 <0>        -0.0085
      8 N1          1.2398   -2.0820   -0.0076 N.pl3     1 <0>        -0.3518
      9 C7          0.1537   -2.9004    0.0743 C.2       1 <0>         0.4982
     10 C8          0.5961   -4.1830    0.0128 C.2       1 <0>        -0.6484
     11 C9          2.0011   -4.1489   -0.1110 C.2       1 <0>         0.2681
     12 N2          2.3807   -2.8852   -0.1288 N.2       1 <0>        -0.2063
     13 C10         2.8644   -5.2874   -0.2069 C.1       1 <0>         0.2726
     14 N3          3.5493   -6.1905   -0.2829 N.1       1 <0>        -0.3349
     15 S1         -0.4057   -5.6311    0.0764 S.o       1 <0>         1.4432
     16 O1         -1.5759   -5.2096    0.7636 O.2       1 <0>        -0.7799
     17 C11        -0.8106   -5.9613   -1.6607 C.3       1 <0>         0.1002
     18 F1          0.3694   -6.1680   -2.3834 F         1 <0>        -0.1662
     19 F2         -1.6142   -7.1035   -1.7433 F         1 <0>        -0.1725
     20 F3         -1.4991   -4.8670   -2.1952 F         1 <0>        -0.1934
     21 N4         -1.1722   -2.4947    0.1993 N.pl3     1 <0>        -0.8201
     22 Cl2         2.4882   -0.7853   -2.3764 Cl        1 <0>        -0.0015
     23 C12         1.1509    3.5932    0.0974 C.3       1 <0>         0.5156
     24 F4          2.3085    4.0668    0.7242 F         1 <0>        -0.1650
     25 F5          1.0961    4.0827   -1.2121 F         1 <0>        -0.1671
     26 F6          0.0257    4.0286    0.8055 F         1 <0>        -0.1675
     27 H1          0.1827    1.8885    1.9528 H         1 <0>         0.1695
     28 H2          2.1763    1.9894   -1.8165 H         1 <0>         0.1692
     29 H3         -1.3977   -1.5525    0.1513 H         1 <0>         0.4110
     30 H4         -1.8706   -3.1542    0.3343 H         1 <0>         0.4369
@<TRIPOS>BOND
     1    1    6 ar
     2    1    2 ar
     3    1   27 1
     4    2    3 ar
     5    2   23 1
     6    3    4 ar
     7    3   28 1
     8    4    5 ar
     9    4   22 1
    10    5    6 ar
    11    5    8 1
    12    6    7 1
    13    8   12 1
    14    8    9 1
    15    9   10 2
    16    9   21 1
    17   10   11 1
    18   10   15 1
    19   11   12 2
    20   11   13 1
    21   13   14 3
    22   15   16 2
    23   15   17 1
    24   17   18 1
    25   17   19 1
    26   17   20 1
    27   21   29 1
    28   21   30 1
    29   23   24 1
    30   23   25 1
    31   23   26 1
@<TRIPOS>MOLECULE
ZINC00006427
   33    35     0     0     0
SMALL
USER_CHARGES

@<TRIPOS>ATOM
      1 C1          0.5645    1.4220    0.1928 C.3       1 <0>         0.0583
      2 N1          0.3235   -0.0204    0.1049 N.am      1 <0>        -0.5555
      3 C2         -0.9927   -0.4531    0.1626 C.ar      1 <0>         0.1844
      4 C3         -1.9457    0.2992   -0.5272 C.ar      1 <0>        -0.1319
      5 C4         -3.2733   -0.0670   -0.5149 C.ar      1 <0>        -0.0651
      6 C5         -3.6777   -1.1917    0.1872 C.ar      1 <0>        -0.0514
      7 C6         -2.7519   -1.9453    0.8726 C.ar      1 <0>        -0.0516
      8 C7         -1.3954   -1.5853    0.8674 C.ar      1 <0>        -0.1200
      9 C8         -0.4607   -2.4388    1.6175 C.2       1 <0>         0.2679
     10 N2          0.7150   -2.7715    1.2168 N.2       1 <0>        -0.4888
     11 C9          1.2537   -2.3110   -0.0624 C.3       1 <0>         0.0242
     12 C10         1.3847   -0.8126   -0.0296 C.2       1 <0>         0.5094
     13 O1          2.4861   -0.3137   -0.1239 O.2       1 <0>        -0.5107
     14 C11        -0.9076   -2.9538    2.9327 C.ar      1 <0>        -0.0709
     15 C12        -0.3330   -4.1079    3.4647 C.ar      1 <0>        -0.0682
     16 C13        -0.7535   -4.5827    4.6901 C.ar      1 <0>        -0.1263
     17 C14        -1.7429   -3.9163    5.3909 C.ar      1 <0>        -0.0986
     18 C15        -2.3166   -2.7710    4.8684 C.ar      1 <0>        -0.1241
     19 C16        -1.9005   -2.2832    3.6466 C.ar      1 <0>        -0.0904
     20 Cl1        -5.3522   -1.6496    0.2025 Cl        1 <0>        -0.0531
     21 H1          1.6353    1.6160    0.1296 H         1 <0>         0.1025
     22 H2          0.0549    1.9262   -0.6283 H         1 <0>         0.0740
     23 H3          0.1827    1.7970    1.1424 H         1 <0>         0.0729
     24 H4         -1.6385    1.1774   -1.0758 H         1 <0>         0.1452
     25 H5         -4.0004    0.5233   -1.0528 H         1 <0>         0.1468
     26 H6         -3.0719   -2.8206    1.4183 H         1 <0>         0.1484
     27 H7          2.2331   -2.7595   -0.2287 H         1 <0>         0.1343
     28 H8          0.5774   -2.5976   -0.8678 H         1 <0>         0.0942
     29 H9          0.4392   -4.6292    2.9184 H         1 <0>         0.1347
     30 H10        -0.3096   -5.4765    5.1029 H         1 <0>         0.1285
     31 H11        -2.0690   -4.2920    6.3495 H         1 <0>         0.1264
     32 H12        -3.0889   -2.2553    5.4199 H         1 <0>         0.1284
     33 H13        -2.3460   -1.3865    3.2417 H         1 <0>         0.1261
@<TRIPOS>BOND
     1    1    2 1
     2    1   21 1
     3    1   22 1
     4    1   23 1
     5    2   12 am
     6    2    3 1
     7    3    8 ar
     8    3    4 ar
     9    4    5 ar
    10    4   24 1
    11    5    6 ar
    12    5   25 1
    13    6    7 ar
    14    6   20 1
    15    7    8 ar
    16    7   26 1
    17    8    9 1
    18    9   10 2
    19    9   14 1
    20   10   11 1
    21   11   12 1
    22   11   27 1
    23   11   28 1
    24   12   13 2
    25   14   19 ar
    26   14   15 ar
    27   15   16 ar
    28   15   29 1
    29   16   17 ar
    30   16   30 1
    31   17   18 ar
    32   17   31 1
    33   18   19 ar
    34   18   32 1
    35   19   33 1
@<TRIPOS>MOLECULE
ZINC02516023
   41    43     0     0     0
SMALL
USER_CHARGES

@<TRIPOS>ATOM
      1 C1          0.3544    1.0573    0.0432 C.3       1 <0>        -0.1356
      2 C2          0.1262   -0.4518   -0.0637 C.3       1 <0>        -0.0959
      3 C3         -1.3521   -0.7408   -0.0189 C.ar      1 <0>         0.0079
      4 C4         -1.9734   -1.0811    1.1796 C.ar      1 <0>        -0.0805
      5 C5         -1.5151   -1.2514    2.5671 C.ar      1 <0>        -0.0926
      6 C6         -0.2727   -1.1314    3.1898 C.ar      1 <0>        -0.1203
      7 C7         -0.1591   -1.3612    4.5457 C.ar      1 <0>         0.0870
      8 C8         -1.2845   -1.7130    5.2926 C.ar      1 <0>         0.1512
      9 C9         -2.5186   -1.8339    4.6833 C.ar      1 <0>        -0.1996
     10 C10        -2.6475   -1.6050    3.3168 C.ar      1 <0>         0.1475
     11 N1         -3.7381   -1.6537    2.4646 N.pl3     1 <0>        -0.5913
     12 H1         -4.6429   -1.8753    2.7352 H         1 <0>         0.4245
     13 C11        -3.3559   -1.3428    1.1785 C.ar      1 <0>         0.1199
     14 C12        -4.0521   -1.2516   -0.0271 C.ar      1 <0>         0.0920
     15 N2         -3.4310   -0.9286   -1.1371 N.ar      1 <0>        -0.4017
     16 C13        -2.1257   -0.6673   -1.1740 C.ar      1 <0>         0.0333
     17 C14        -1.4898   -0.3026   -2.4568 C.2       1 <0>         0.5268
     18 O1         -0.3222    0.0313   -2.4826 O.2       1 <0>        -0.4929
     19 O2         -2.2050   -0.3405   -3.5979 O.3       1 <0>        -0.3316
     20 C15        -1.5264    0.0248   -4.8013 C.3       1 <0>         0.0320
     21 O3         -1.1655   -1.9385    6.6281 O.3       1 <0>        -0.2971
     22 C16        -2.3554   -2.2950    7.3344 C.3       1 <0>         0.0223
     23 O4          1.0518   -1.2452    5.1553 O.3       1 <0>        -0.3021
     24 C17         2.1612   -0.8825    4.3308 C.3       1 <0>         0.0230
     25 H2          1.4237    1.2663    0.0107 H         1 <0>         0.0635
     26 H3         -0.1393    1.5592   -0.7889 H         1 <0>         0.0613
     27 H4         -0.0586    1.4215    0.9839 H         1 <0>         0.0495
     28 H5          0.5392   -0.8160   -1.0044 H         1 <0>         0.1068
     29 H6          0.6199   -0.9538    0.7684 H         1 <0>         0.0696
     30 H7          0.5983   -0.8595    2.6120 H         1 <0>         0.1452
     31 H8         -3.3843   -2.1069    5.2684 H         1 <0>         0.1431
     32 H9         -5.1137   -1.4494   -0.0472 H         1 <0>         0.1691
     33 H10        -1.1633    1.0491   -4.7170 H         1 <0>         0.0617
     34 H11        -0.6835   -0.6474   -4.9615 H         1 <0>         0.0616
     35 H12        -2.2148   -0.0485   -5.6432 H         1 <0>         0.1041
     36 H13        -3.0894   -1.4950    7.2367 H         1 <0>         0.0578
     37 H14        -2.7637   -3.2155    6.9172 H         1 <0>         0.0578
     38 H15        -2.1210   -2.4463    8.3881 H         1 <0>         0.1052
     39 H16         1.9705    0.0873    3.8711 H         1 <0>         0.0569
     40 H17         3.0632   -0.8249    4.9400 H         1 <0>         0.1040
     41 H18         2.2960   -1.6334    3.5522 H         1 <0>         0.0564
@<TRIPOS>BOND
     1    1    2 1
     2    1   25 1
     3    1   26 1
     4    1   27 1
     5    2    3 1
     6    2   28 1
     7    2   29 1
     8    3   16 ar
     9    3    4 ar
    10    4   13 ar
    11    4    5 1
    12    5   10 ar
    13    5    6 ar
    14    6    7 ar
    15    6   30 1
    16    7    8 ar
    17    7   23 1
    18    8    9 ar
    19    8   21 1
    20    9   10 ar
    21    9   31 1
    22   10   11 1
    23   11   12 1
    24   11   13 1
    25   13   14 ar
    26   14   15 ar
    27   14   32 1
    28   15   16 ar
    29   16   17 1
    30   17   18 2
    31   17   19 1
    32   19   20 1
    33   20   33 1
    34   20   34 1
    35   20   35 1
    36   21   22 1
    37   22   36 1
    38   22   37 1
    39   22   38 1
    40   23   24 1
    41   24   39 1
    42   24   40 1
    43   24   41 1
@<TRIPOS>MOLECULE
ZINC02516023
   42    44     0     0     0
SMALL
USER_CHARGES

@<TRIPOS>ATOM
      1 C1         -0.2286    1.0401    0.3120 C.3       1 <0>        -0.1436
      2 C2          0.0046   -0.4617    0.1351 C.3       1 <0>        -0.1054
      3 C3          0.7087   -0.7099   -1.1740 C.ar      1 <0>         0.0584
      4 C4         -0.0135   -1.0386   -2.3179 C.ar      1 <0>        -0.0146
      5 C5         -1.4413   -1.2281   -2.6175 C.ar      1 <0>        -0.1026
      6 C6         -2.6029   -1.1454   -1.8497 C.ar      1 <0>        -0.1227
      7 C7         -3.8303   -1.3848   -2.4333 C.ar      1 <0>         0.1126
      8 C8         -3.9095   -1.7089   -3.7887 C.ar      1 <0>         0.1856
      9 C9         -2.7635   -1.7928   -4.5559 C.ar      1 <0>        -0.2026
     10 C10        -1.5193   -1.5539   -3.9803 C.ar      1 <0>         0.1677
     11 N1         -0.2358   -1.5684   -4.5004 N.pl3     1 <0>        -0.5600
     12 H1         -0.0147   -1.7662   -5.4239 H         1 <0>         0.4396
     13 C11         0.6821   -1.2621   -3.5204 C.ar      1 <0>         0.1268
     14 C12         2.0724   -1.1459   -3.5194 C.ar      1 <0>         0.1491
     15 N2          2.7184   -0.8348   -2.4202 N.ar      1 <0>        -0.3933
     16 C13         2.0942   -0.6095   -1.2655 C.ar      1 <0>         0.0415
     17 C14         2.8817   -0.2565   -0.0664 C.2       1 <0>         0.5030
     18 O1          2.3153    0.0481    0.9642 O.2       1 <0>        -0.4388
     19 O2          4.2279   -0.2724   -0.1159 O.3       1 <0>        -0.3540
     20 C15         4.9253    0.0800    1.0806 C.3       1 <0>         0.0342
     21 O3         -5.1218   -1.9440   -4.3573 O.3       1 <0>        -0.2849
     22 C16        -5.1335   -2.2708   -5.7484 C.3       1 <0>         0.0164
     23 O4         -4.9648   -1.3052   -1.6865 O.3       1 <0>        -0.2915
     24 C17        -4.8106   -0.9694   -0.3061 C.3       1 <0>         0.0183
     25 H2          0.7298    1.5592    0.3109 H         1 <0>         0.0645
     26 H3         -0.8439    1.4113   -0.5076 H         1 <0>         0.0586
     27 H4         -0.7379    1.2196    1.2589 H         1 <0>         0.0811
     28 H5          0.6198   -0.8329    0.9547 H         1 <0>         0.1214
     29 H6         -0.9539   -0.9808    0.1363 H         1 <0>         0.0922
     30 H7         -2.5419   -0.8950   -0.8009 H         1 <0>         0.1552
     31 H8         -2.8334   -2.0445   -5.6038 H         1 <0>         0.1566
     32 H9          2.6231   -1.3142   -4.4331 H         1 <0>         0.2199
     33 H10         5.9996    0.0269    0.9041 H         1 <0>         0.1192
     34 H11         4.6549    1.0945    1.3734 H         1 <0>         0.0752
     35 H12         4.6533   -0.6127    1.8771 H         1 <0>         0.0753
     36 H13        -6.1607   -2.4336   -6.0747 H         1 <0>         0.1152
     37 H14        -4.6969   -1.4504   -6.3180 H         1 <0>         0.0645
     38 H15        -4.5518   -3.1777   -5.9134 H         1 <0>         0.0645
     39 H16        -5.7896   -0.9395    0.1722 H         1 <0>         0.1133
     40 H17        -4.1899   -1.7199    0.1833 H         1 <0>         0.0614
     41 H18        -4.3346    0.0075   -0.2208 H         1 <0>         0.0618
     42 H19         3.6851   -0.7618   -2.4509 H         1 <0>         0.4608
@<TRIPOS>BOND
     1    1    2 1
     2    1   25 1
     3    1   26 1
     4    1   27 1
     5    2    3 1
     6    2   28 1
     7    2   29 1
     8    3   16 ar
     9    3    4 ar
    10    4   13 ar
    11    4    5 1
    12    5   10 ar
    13    5    6 ar
    14    6    7 ar
    15    6   30 1
    16    7    8 ar
    17    7   23 1
    18    8    9 ar
    19    8   21 1
    20    9   10 ar
    21    9   31 1
    22   10   11 1
    23   11   12 1
    24   11   13 1
    25   13   14 ar
    26   14   15 ar
    27   14   32 1
    28   15   16 ar
    29   15   42 1
    30   16   17 1
    31   17   18 2
    32   17   19 1
    33   19   20 1
    34   20   33 1
    35   20   34 1
    36   20   35 1
    37   21   22 1
    38   22   36 1
    39   22   37 1
    40   22   38 1
    41   23   24 1
    42   24   39 1
    43   24   40 1
    44   24   41 1
@<TRIPOS>MOLECULE
ZINC01043853
   29    30     0     0     0
SMALL
USER_CHARGES
5-amino-1-[2,6-dichloro-4-(trifluoromethyl)phenyl]-3-methylsulfanyl-pyrazole-4-carbonitrile
@<TRIPOS>ATOM
      1 C1         -5.3298    0.3270   -0.2026 C.3       1 <0>        -0.1510
      2 S1         -5.1546    2.0874    0.1984 S.3       1 <0>         0.0058
      3 C2         -3.4203    2.3789    0.0893 C.2       1 <0>         0.1446
      4 C3         -2.7375    3.6536    0.3220 C.2       1 <0>        -0.2296
      5 C4         -1.3795    3.4092    0.1286 C.2       1 <0>         0.4582
      6 N1         -1.2450    2.1068   -0.2005 N.pl3     1 <0>        -0.3533
      7 N2         -2.5016    1.4958   -0.2160 N.2       1 <0>        -0.2717
      8 C5         -0.0309    1.4648   -0.4782 C.ar      1 <0>         0.1933
      9 C6          0.7962    1.9450   -1.4861 C.ar      1 <0>        -0.0430
     10 C7          1.9907    1.3059   -1.7607 C.ar      1 <0>        -0.0411
     11 C8          2.3625    0.1895   -1.0344 C.ar      1 <0>        -0.1529
     12 C9          1.5419   -0.2912   -0.0306 C.ar      1 <0>        -0.0431
     13 C10         0.3461    0.3430    0.2499 C.ar      1 <0>        -0.0173
     14 Cl1        -0.6836   -0.2617    1.5099 Cl        1 <0>        -0.0051
     15 C11         3.6654   -0.5046   -1.3372 C.3       1 <0>         0.5157
     16 F1          3.4534   -1.4931   -2.3043 F         1 <0>        -0.1663
     17 F2          4.5899    0.4283   -1.8188 F         1 <0>        -0.1683
     18 F3          4.1623   -1.0936   -0.1696 F         1 <0>        -0.1680
     19 Cl2         0.3300    3.3458   -2.3993 Cl        1 <0>        -0.0114
     20 N3         -0.3578    4.3314    0.2493 N.pl3     1 <0>        -0.8266
     21 C12        -3.3436    4.9002    0.6815 C.1       1 <0>         0.2939
     22 N4         -3.8245    5.8891    0.9666 N.1       1 <0>        -0.4267
     23 H1         -4.7674   -0.2674    0.5174 H         1 <0>         0.0899
     24 H2         -6.3826    0.0478   -0.1607 H         1 <0>         0.1142
     25 H3         -4.9447    0.1427   -1.2056 H         1 <0>         0.0904
     26 H4          2.6342    1.6786   -2.5440 H         1 <0>         0.1669
     27 H5          1.8354   -1.1634    0.5346 H         1 <0>         0.1665
     28 H6          0.5661    4.0424    0.1883 H         1 <0>         0.4086
     29 H7         -0.5644    5.2678    0.3951 H         1 <0>         0.4271
@<TRIPOS>BOND
     1    1    2 1
     2    1   23 1
     3    1   24 1
     4    1   25 1
     5    2    3 1
     6    3    7 2
     7    3    4 1
     8    4    5 2
     9    4   21 1
    10    5    6 1
    11    5   20 1
    12    6    7 1
    13    6    8 1
    14    8   13 ar
    15    8    9 ar
    16    9   10 ar
    17    9   19 1
    18   10   11 ar
    19   10   26 1
    20   11   12 ar
    21   11   15 1
    22   12   13 ar
    23   12   27 1
    24   13   14 1
    25   15   16 1
    26   15   17 1
    27   15   18 1
    28   20   28 1
    29   20   29 1
    30   21   22 3
@<TRIPOS>MOLECULE
ZINC03812994
   35    37     0     0     0
SMALL
USER_CHARGES
6-(2-fluorophenyl)-2-methyl-9-nitro-2,5-diazabicyclo[5.4.0]undeca-5,8,10,12-tetraen-3-one
@<TRIPOS>ATOM
      1 C1          4.6526   -1.0855    2.9178 C.3       1 <0>         0.0547
      2 N1          4.3753   -0.5355    1.5886 N.am      1 <0>        -0.5569
      3 C2          3.3560   -1.1220    0.8546 C.ar      1 <0>         0.2353
      4 C3          3.2539   -2.5141    0.8975 C.ar      1 <0>        -0.1412
      5 C4          2.2648   -3.1677    0.1963 C.ar      1 <0>        -0.0152
      6 C5          1.3577   -2.4459   -0.5619 C.ar      1 <0>        -0.0590
      7 C6          1.4438   -1.0742   -0.6171 C.ar      1 <0>         0.0096
      8 C7          2.4465   -0.3938    0.0970 C.ar      1 <0>        -0.1324
      9 C8          2.4800    1.0729   -0.0154 C.2       1 <0>         0.2690
     10 N2          3.5505    1.7781   -0.1213 N.2       1 <0>        -0.4654
     11 C9          4.8789    1.1670   -0.1400 C.3       1 <0>         0.0183
     12 C10         5.1216    0.4885    1.1806 C.2       1 <0>         0.5105
     13 O1          6.0207    0.8844    1.8917 O.2       1 <0>        -0.4969
     14 C11         1.1854    1.7909    0.0004 C.ar      1 <0>        -0.1015
     15 C12         0.7583    2.4907   -1.1286 C.ar      1 <0>        -0.0536
     16 C13        -0.4462    3.1620   -1.1061 C.ar      1 <0>        -0.1264
     17 C14        -1.2376    3.1345    0.0292 C.ar      1 <0>        -0.0715
     18 C15        -0.8227    2.4435    1.1521 C.ar      1 <0>        -0.1523
     19 C16         0.3856    1.7705    1.1456 C.ar      1 <0>         0.1246
     20 F1          0.7913    1.0959    2.2435 F         1 <0>        -0.1336
     21 N3          0.2953   -3.1511   -1.3136 N.pl3     1 <0>         0.0287
     22 O2          0.2189   -4.3658   -1.2653 O.2       1 <0>        -0.1505
     23 O3         -0.5025   -2.5168   -1.9804 O.3       1 <0>        -0.1519
     24 H1          5.4716   -0.5315    3.3766 H         1 <0>         0.1071
     25 H2          3.7618   -0.9989    3.5400 H         1 <0>         0.0776
     26 H3          4.9308   -2.1354    2.8258 H         1 <0>         0.0785
     27 H4          3.9577   -3.0840    1.4860 H         1 <0>         0.1607
     28 H5          2.1965   -4.2447    0.2375 H         1 <0>         0.1670
     29 H6          0.7340   -0.5164   -1.2099 H         1 <0>         0.1654
     30 H7          4.9313    0.4320   -0.9432 H         1 <0>         0.0996
     31 H8          5.6330    1.9375   -0.3005 H         1 <0>         0.1412
     32 H9          1.3720    2.5103   -2.0171 H         1 <0>         0.1390
     33 H10        -0.7748    3.7075   -1.9784 H         1 <0>         0.1393
     34 H11        -2.1817    3.6588    0.0391 H         1 <0>         0.1399
     35 H12        -1.4429    2.4293    2.0362 H         1 <0>         0.1425
@<TRIPOS>BOND
     1    1    2 1
     2    1   24 1
     3    1   25 1
     4    1   26 1
     5    2   12 am
     6    2    3 1
     7    3    8 ar
     8    3    4 ar
     9    4    5 ar
    10    4   27 1
    11    5    6 ar
    12    5   28 1
    13    6    7 ar
    14    6   21 1
    15    7    8 ar
    16    7   29 1
    17    8    9 1
    18    9   10 2
    19    9   14 1
    20   10   11 1
    21   11   12 1
    22   11   30 1
    23   11   31 1
    24   12   13 2
    25   14   19 ar
    26   14   15 ar
    27   15   16 ar
    28   15   32 1
    29   16   17 ar
    30   16   33 1
    31   17   18 ar
    32   17   34 1
    33   18   19 ar
    34   18   35 1
    35   19   20 1
    36   21   22 2
    37   21   23 1
@<TRIPOS>MOLECULE
ZINC12428918
   38    39     0     0     0
SMALL
USER_CHARGES

@<TRIPOS>ATOM
      1 C1          0.9243   -0.1082    1.1034 C.ar      1 <0>        -0.0388
      2 C2          2.0615    0.6722    1.0951 C.ar      1 <0>        -0.1140
      3 C3          2.2376    1.6334    0.1138 C.ar      1 <0>         0.0170
      4 C4          1.2741    1.8167   -0.8640 C.ar      1 <0>        -0.1063
      5 C5          0.1330    1.0417   -0.8652 C.ar      1 <0>        -0.0504
      6 C6         -0.0495    0.0721    0.1209 C.ar      1 <0>        -0.1601
      7 C7         -1.2725   -0.7634    0.1245 C.2       1 <0>         0.4481
      8 N1         -2.4426   -0.2066   -0.0187 N.pl3     1 <0>        -0.5077
      9 C8         -2.5640    1.2533   -0.0194 C.3       1 <0>         0.0268
     10 C9         -3.0780    1.7216   -1.3823 C.3       1 <0>        -0.1126
     11 C10        -3.2048    3.2464   -1.3831 C.3       1 <0>        -0.1843
     12 C11        -3.7109    3.7076   -2.7256 C.2       1 <0>         0.4891
     13 O1         -3.9483    2.8924   -3.6005 O.co2     1 <0>        -0.6949
     14 O2         -3.8831    4.8960   -2.9366 O.co2     1 <0>        -0.6872
     15 C12        -1.1662   -2.2294    0.2904 C.ar      1 <0>        -0.1603
     16 C13        -1.6810   -2.8450    1.4322 C.ar      1 <0>        -0.0992
     17 C14        -1.5788   -4.2137    1.5813 C.ar      1 <0>         0.1031
     18 C15        -0.9658   -4.9789    0.6005 C.ar      1 <0>        -0.0878
     19 C16        -0.4532   -4.3794   -0.5331 C.ar      1 <0>        -0.1093
     20 C17        -0.5540   -3.0068   -0.6998 C.ar      1 <0>         0.1677
     21 O3         -0.0556   -2.4178   -1.8170 O.3       1 <0>        -0.4836
     22 F1         -2.0771   -4.8095    2.6867 F         1 <0>        -0.1203
     23 Cl1         3.6710    2.6127    0.1096 Cl        1 <0>        -0.0300
     24 H1          0.7900   -0.8606    1.8665 H         1 <0>         0.1493
     25 H2          2.8159    0.5337    1.8555 H         1 <0>         0.1549
     26 H3          1.4162    2.5679   -1.6267 H         1 <0>         0.1594
     27 H4         -0.6179    1.1857   -1.6279 H         1 <0>         0.1558
     28 H5         -3.2640    1.5601    0.7578 H         1 <0>         0.1302
     29 H6         -1.5883    1.6992    0.1737 H         1 <0>         0.1224
     30 H7         -2.3780    1.4148   -2.1596 H         1 <0>         0.0795
     31 H8         -4.0537    1.2758   -1.5755 H         1 <0>         0.0853
     32 H9         -3.9047    3.5532   -0.6059 H         1 <0>         0.0685
     33 H10        -2.2290    3.6922   -1.1900 H         1 <0>         0.0662
     34 H11        -2.1582   -2.2516    2.1980 H         1 <0>         0.1539
     35 H12        -0.8887   -6.0491    0.7240 H         1 <0>         0.1590
     36 H13         0.0228   -4.9813   -1.2930 H         1 <0>         0.1616
     37 H14         0.8688   -2.1449   -1.7387 H         1 <0>         0.4077
     38 H15        -3.2329   -0.7591   -0.1246 H         1 <0>         0.4414
@<TRIPOS>BOND
     1    1    6 ar
     2    1    2 ar
     3    1   24 1
     4    2    3 ar
     5    2   25 1
     6    3    4 ar
     7    3   23 1
     8    4    5 ar
     9    4   26 1
    10    5    6 ar
    11    5   27 1
    12    6    7 1
    13    7    8 2
    14    7   15 1
    15    8    9 1
    16    8   38 1
    17    9   10 1
    18    9   28 1
    19    9   29 1
    20   10   11 1
    21   10   30 1
    22   10   31 1
    23   11   12 1
    24   11   32 1
    25   11   33 1
    26   12   13 2
    27   12   14 1
    28   15   20 ar
    29   15   16 ar
    30   16   17 ar
    31   16   34 1
    32   17   18 ar
    33   17   22 1
    34   18   19 ar
    35   18   35 1
    36   19   20 ar
    37   19   36 1
    38   20   21 1
    39   21   37 1
@<TRIPOS>MOLECULE
ZINC04375654
   36    38     0     0     0
SMALL
USER_CHARGES
4-amino-2-methyl-6-phenyl-2,5-diazabicyclo[5.4.0]undeca-5,8,10,12-tetraen-3-one
@<TRIPOS>ATOM
      1 C1         -1.5479    1.4412   -0.1691 C.3       1 <0>         0.0533
      2 N1         -0.1437    1.0299   -0.0964 N.am      1 <0>        -0.5458
      3 C2          0.8176    2.0270   -0.1542 C.ar      1 <0>         0.1451
      4 C3          0.5638    3.2048    0.5519 C.ar      1 <0>        -0.1366
      5 C4          1.4709    4.2411    0.5385 C.ar      1 <0>        -0.0504
      6 C5          2.6500    4.1233   -0.1789 C.ar      1 <0>        -0.1155
      7 C6          2.9175    2.9703   -0.8796 C.ar      1 <0>        -0.0495
      8 C7          2.0035    1.9053   -0.8754 C.ar      1 <0>        -0.1884
      9 C8          2.3556    0.7015   -1.6444 C.2       1 <0>         0.3357
     10 N2          2.1481   -0.5065   -1.2558 N.2       1 <0>        -0.5217
     11 C9          1.5153   -0.8065    0.0280 C.3       1 <0>         0.1971
     12 H1          1.4947   -1.8851    0.1836 H         1 <0>         0.2010
     13 C10         0.1091   -0.2724    0.0146 C.2       1 <0>         0.4790
     14 O1         -0.8184   -1.0482    0.1077 O.2       1 <0>        -0.4601
     15 H2          3.2223   -0.5109    1.1403 H         1 <0>         0.4485
     16 H3          2.2557    0.8372    1.0221 H         1 <0>         0.4269
     17 C11         2.9978    0.8956   -2.9653 C.ar      1 <0>        -0.1060
     18 C12         2.8146    2.0885   -3.6644 C.ar      1 <0>        -0.0749
     19 C13         3.4188    2.2651   -4.8922 C.ar      1 <0>        -0.1237
     20 C14         4.1969    1.2580   -5.4347 C.ar      1 <0>        -0.0740
     21 C15         4.3784    0.0706   -4.7482 C.ar      1 <0>        -0.1259
     22 C16         3.7833   -0.1160   -3.5174 C.ar      1 <0>        -0.0555
     23 H4         -2.1876    0.5602   -0.1171 H         1 <0>         0.1095
     24 H5         -1.7756    2.1053    0.6646 H         1 <0>         0.0864
     25 H6         -1.7252    1.9639   -1.1090 H         1 <0>         0.0848
     26 H7         -0.3532    3.3042    1.1138 H         1 <0>         0.1490
     27 H8          1.2627    5.1469    1.0885 H         1 <0>         0.1507
     28 H9          3.3597    4.9374   -0.1881 H         1 <0>         0.1505
     29 H10         3.8382    2.8839   -1.4375 H         1 <0>         0.1511
     30 H11         2.2037    2.8737   -3.2439 H         1 <0>         0.1301
     31 H12         3.2807    3.1898   -5.4328 H         1 <0>         0.1366
     32 H13         4.6641    1.3991   -6.3981 H         1 <0>         0.1357
     33 H14         4.9869   -0.7120   -5.1768 H         1 <0>         0.1367
     34 H15         3.9252   -1.0436   -2.9828 H         1 <0>         0.1371
     35 N3          2.2605   -0.1755    1.1316 N.4       1 <0>        -0.6650
     36 H16         1.8130   -0.4182    2.0232 H         1 <0>         0.4481
@<TRIPOS>BOND
     1    1    2 1
     2    1   23 1
     3    1   24 1
     4    1   25 1
     5    2   13 am
     6    2    3 1
     7    3    8 ar
     8    3    4 ar
     9    4    5 ar
    10    4   26 1
    11    5    6 ar
    12    5   27 1
    13    6    7 ar
    14    6   28 1
    15    7    8 ar
    16    7   29 1
    17    8    9 1
    18    9   10 2
    19    9   17 1
    20   10   11 1
    21   11   12 1
    22   11   13 1
    23   11   35 1
    24   13   14 2
    25   15   35 1
    26   16   35 1
    27   17   22 ar
    28   17   18 ar
    29   18   19 ar
    30   18   30 1
    31   19   20 ar
    32   19   31 1
    33   20   21 ar
    34   20   32 1
    35   21   22 ar
    36   21   33 1
    37   22   34 1
    38   35   36 1
@<TRIPOS>MOLECULE
ZINC04081122
   56    59     0     0     0
SMALL
USER_CHARGES

@<TRIPOS>ATOM
      1 C1         -1.6226    0.5624    0.5386 C.3       1 <0>        -0.2089
      2 C2         -0.2949   -0.0196    0.1272 C.2       1 <0>         0.3635
      3 O1          0.6535    0.0545    0.8712 O.2       1 <0>        -0.4518
      4 C3         -0.1505   -0.6941   -1.2127 C.3       1 <0>        -0.1328
      5 H1         -0.7569   -0.1885   -1.9642 H         1 <0>         0.1039
      6 C4          1.3387   -0.7366   -1.6476 C.3       1 <0>        -0.1174
      7 C5          1.5512   -2.1006   -2.3482 C.3       1 <0>        -0.1121
      8 C6          0.1773   -2.7654   -2.3699 C.3       1 <0>        -0.0845
      9 H2         -0.3623   -2.4678   -3.2690 H         1 <0>         0.0806
     10 C7         -0.5313   -2.1773   -1.1168 C.3       1 <0>        -0.0444
     11 C8         -2.0188   -2.4670   -1.2494 C.3       1 <0>        -0.1592
     12 C9         -2.1601   -3.9795   -1.3566 C.2       1 <0>         0.3702
     13 O2         -2.9418   -4.5726   -0.6528 O.2       1 <0>        -0.4419
     14 C10        -1.3119   -4.7254   -2.3529 C.3       1 <0>        -0.1238
     15 H3         -1.6733   -4.5111   -3.3587 H         1 <0>         0.1024
     16 C11         0.1636   -4.2725   -2.2401 C.3       1 <0>        -0.0720
     17 H4          0.5616   -4.5580   -1.2664 H         1 <0>         0.0887
     18 C12         0.9720   -4.9487   -3.3449 C.3       1 <0>        -0.1094
     19 C13         0.9077   -6.4668   -3.1493 C.3       1 <0>        -0.1194
     20 C14        -0.5450   -6.9394   -3.2049 C.3       1 <0>        -0.0694
     21 H5         -0.9660   -6.6996   -4.1813 H         1 <0>         0.0780
     22 C15        -1.3712   -6.2314   -2.1130 C.3       1 <0>        -0.0327
     23 C16        -2.8232   -6.7082   -2.1847 C.3       1 <0>        -0.1224
     24 C17        -2.8753   -8.2206   -1.9589 C.3       1 <0>        -0.1511
     25 C18        -2.0536   -8.9269   -3.0392 C.3       1 <0>         0.1040
     26 H6         -2.0904  -10.0042   -2.8774 H         1 <0>         0.0506
     27 C19        -0.6018   -8.4522   -2.9856 C.3       1 <0>        -0.1078
     28 O3         -2.5940   -8.6196   -4.3259 O.3       1 <0>        -0.5640
     29 C20        -0.7873   -6.5540   -0.7361 C.3       1 <0>        -0.1548
     30 C21         0.0396   -2.7954    0.1610 C.3       1 <0>        -0.1490
     31 H7         -1.6803    1.6013    0.2138 H         1 <0>         0.0973
     32 H8         -2.4283   -0.0080    0.0765 H         1 <0>         0.0851
     33 H9         -1.7197    0.5150    1.6233 H         1 <0>         0.0853
     34 H10         1.5490    0.0771   -2.3417 H         1 <0>         0.0686
     35 H11         1.9858   -0.6602   -0.7739 H         1 <0>         0.0822
     36 H12         1.9134   -1.9499   -3.3652 H         1 <0>         0.0703
     37 H13         2.2561   -2.7096   -1.7823 H         1 <0>         0.0692
     38 H14        -2.5495   -2.1041   -0.3692 H         1 <0>         0.0913
     39 H15        -2.4132   -1.9907   -2.1470 H         1 <0>         0.1031
     40 H16         0.5520   -4.6877   -4.3163 H         1 <0>         0.0649
     41 H17         2.0092   -4.6176   -3.2930 H         1 <0>         0.0685
     42 H18         1.4783   -6.9577   -3.9377 H         1 <0>         0.0634
     43 H19         1.3355   -6.7253   -2.1806 H         1 <0>         0.0641
     44 H20        -3.4091   -6.2056   -1.4152 H         1 <0>         0.0942
     45 H21        -3.2348   -6.4730   -3.1662 H         1 <0>         0.0600
     46 H22        -2.4634   -8.4557   -0.9775 H         1 <0>         0.0724
     47 H23        -3.9098   -8.5600   -2.0095 H         1 <0>         0.0616
     48 H24        -0.0154   -8.9532   -3.7558 H         1 <0>         0.0688
     49 H25        -0.1936   -8.6926   -2.0040 H         1 <0>         0.0746
     50 H26        -3.5139   -8.8941   -4.4420 H         1 <0>         0.3742
     51 H27        -1.3653   -6.0413    0.0328 H         1 <0>         0.0600
     52 H28        -0.8303   -7.6298   -0.5661 H         1 <0>         0.0600
     53 H29         0.2496   -6.2206   -0.6940 H         1 <0>         0.0583
     54 H30        -0.3465   -2.2593    1.0279 H         1 <0>         0.0568
     55 H31        -0.2550   -3.8431    0.2209 H         1 <0>         0.0618
     56 H32         1.1272   -2.7242    0.1445 H         1 <0>         0.0708
@<TRIPOS>BOND
     1    1    2 1
     2    1   31 1
     3    1   32 1
     4    1   33 1
     5    2    3 2
     6    2    4 1
     7    4    5 1
     8    4   10 1
     9    4    6 1
    10    6    7 1
    11    6   34 1
    12    6   35 1
    13    7    8 1
    14    7   36 1
    15    7   37 1
    16    8    9 1
    17    8   16 1
    18    8   10 1
    19   10   11 1
    20   10   30 1
    21   11   12 1
    22   11   38 1
    23   11   39 1
    24   12   13 2
    25   12   14 1
    26   14   15 1
    27   14   22 1
    28   14   16 1
    29   16   17 1
    30   16   18 1
    31   18   19 1
    32   18   40 1
    33   18   41 1
    34   19   20 1
    35   19   42 1
    36   19   43 1
    37   20   21 1
    38   20   27 1
    39   20   22 1
    40   22   23 1
    41   22   29 1
    42   23   24 1
    43   23   44 1
    44   23   45 1
    45   24   25 1
    46   24   46 1
    47   24   47 1
    48   25   26 1
    49   25   27 1
    50   25   28 1
    51   27   48 1
    52   27   49 1
    53   28   50 1
    54   29   51 1
    55   29   52 1
    56   29   53 1
    57   30   54 1
    58   30   55 1
    59   30   56 1
@<TRIPOS>MOLECULE
ZINC18254725
   27    28     0     0     0
SMALL
USER_CHARGES
ethyl 6-bromo-4-oxo-1H-quinoline-3-carboxylate
@<TRIPOS>ATOM
      1 C1         -3.4976   -2.5857    0.0065 C.3       1 <0>        -0.1526
      2 C2         -3.7329   -1.0739    0.0155 C.3       1 <0>         0.0655
      3 O1         -2.4546   -0.3852    0.0126 O.3       1 <0>        -0.3683
      4 C3         -2.4856    0.9625    0.0197 C.2       1 <0>         0.5227
      5 O2         -3.5520    1.5460    0.0280 O.2       1 <0>        -0.4853
      6 C4         -1.2299    1.7265    0.0174 C.2       1 <0>        -0.3219
      7 C5         -0.0126    1.0758    0.0080 C.2       1 <0>         0.2469
      8 N1          1.1507    1.7389    0.0004 N.pl3     1 <0>        -0.5909
      9 H1          1.9757    1.2288   -0.0102 H         1 <0>         0.4282
     10 C6          1.2262    3.1151    0.0067 C.ar      1 <0>         0.1880
     11 C7          2.4631    3.7554   -0.0011 C.ar      1 <0>        -0.1550
     12 C8          2.5261    5.1312    0.0066 C.ar      1 <0>        -0.0314
     13 C9          1.3661    5.8943    0.0212 C.ar      1 <0>        -0.1228
     14 C10         0.1317    5.2817    0.0288 C.ar      1 <0>        -0.0010
     15 C11         0.0537    3.8890    0.0215 C.ar      1 <0>        -0.1734
     16 C12        -1.2493    3.1981    0.0297 C.2       1 <0>         0.4352
     17 O3         -2.2975    3.8194    0.0426 O.2       1 <0>        -0.4420
     18 Br1         1.4806    7.7818    0.0303 Br        1 <0>        -0.0317
     19 H2         -2.9296   -2.8703    0.8922 H         1 <0>         0.0663
     20 H3         -4.4572   -3.1027    0.0086 H         1 <0>         0.0810
     21 H4         -2.9385   -2.8611   -0.8877 H         1 <0>         0.0663
     22 H5         -4.2920   -0.7985    0.9097 H         1 <0>         0.0710
     23 H6         -4.3009   -0.7893   -0.8702 H         1 <0>         0.0710
     24 H7          0.0021   -0.0041    0.0020 H         1 <0>         0.1855
     25 H8          3.3726    3.1731   -0.0122 H         1 <0>         0.1477
     26 H9          3.4882    5.6218    0.0008 H         1 <0>         0.1471
     27 H10        -0.7698    5.8763    0.0405 H         1 <0>         0.1538
@<TRIPOS>BOND
     1    1    2 1
     2    1   19 1
     3    1   20 1
     4    1   21 1
     5    2    3 1
     6    2   22 1
     7    2   23 1
     8    3    4 1
     9    4    5 2
    10    4    6 1
    11    6   16 1
    12    6    7 2
    13    7    8 1
    14    7   24 1
    15    8    9 1
    16    8   10 1
    17   10   15 ar
    18   10   11 ar
    19   11   12 ar
    20   11   25 1
    21   12   13 ar
    22   12   26 1
    23   13   14 ar
    24   13   18 1
    25   14   15 ar
    26   14   27 1
    27   15   16 1
    28   16   17 2
@<TRIPOS>MOLECULE
ZINC00001408
   34    35     0     0     0
SMALL
USER_CHARGES

@<TRIPOS>ATOM
      1 C1         -0.0187    1.5258    0.0104 C.3       1 <0>        -0.1532
      2 C2          0.0021   -0.0041    0.0020 C.3       1 <0>         0.0602
      3 O1          0.6932   -0.4774    1.1597 O.3       1 <0>        -0.3581
      4 C3          0.8012   -1.8140    1.3046 C.2       1 <0>         0.5458
      5 O2          0.3211   -2.5568    0.4699 O.2       1 <0>        -0.4910
      6 C4          1.4971   -2.3713    2.4681 C.2       1 <0>        -0.0825
      7 C5          1.6929   -3.6951    2.7503 C.2       1 <0>         0.0856
      8 N1          2.3680   -3.7711    3.8969 N.2       1 <0>        -0.4947
      9 C6          2.6064   -2.5663    4.3493 C.2       1 <0>         0.2243
     10 N2          2.0916   -1.6639    3.4956 N.pl3     1 <0>        -0.4250
     11 C7          2.1476   -0.2062    3.6310 C.3       1 <0>         0.1612
     12 H1          1.6406    0.2570    2.7844 H         1 <0>         0.1302
     13 C8          3.6084    0.2475    3.6611 C.3       1 <0>        -0.1593
     14 C9          1.4670    0.2060    4.9108 C.ar      1 <0>        -0.1093
     15 C10         1.9400   -0.2558    6.1249 C.ar      1 <0>        -0.1078
     16 C11         1.3157    0.1222    7.2989 C.ar      1 <0>        -0.1153
     17 C12         0.2188    0.9624    7.2588 C.ar      1 <0>        -0.1089
     18 C13        -0.2537    1.4250    6.0448 C.ar      1 <0>        -0.1170
     19 C14         0.3732    1.0503    4.8711 C.ar      1 <0>        -0.0974
     20 H2          1.0039    1.9031    0.0027 H         1 <0>         0.0671
     21 H3         -0.5459    1.8868   -0.8726 H         1 <0>         0.0832
     22 H4         -0.5289    1.8773    0.9072 H         1 <0>         0.0662
     23 H5         -1.0205   -0.3814    0.0098 H         1 <0>         0.0712
     24 H6          0.5123   -0.3556   -0.8948 H         1 <0>         0.0715
     25 H7          1.3597   -4.5297    2.1514 H         1 <0>         0.1880
     26 H8          3.1362   -2.3338    5.2613 H         1 <0>         0.2115
     27 H9          4.1006   -0.0506    2.7354 H         1 <0>         0.0707
     28 H10         3.6500    1.3321    3.7618 H         1 <0>         0.0853
     29 H11         4.1153   -0.2157    4.5076 H         1 <0>         0.0681
     30 H12         2.7970   -0.9123    6.1561 H         1 <0>         0.1220
     31 H13         1.6848   -0.2391    8.2473 H         1 <0>         0.1278
     32 H14        -0.2694    1.2572    8.1760 H         1 <0>         0.1263
     33 H15        -1.1109    2.0811    6.0136 H         1 <0>         0.1271
     34 H16         0.0064    1.4147    3.9229 H         1 <0>         0.1256
@<TRIPOS>BOND
     1    1    2 1
     2    1   20 1
     3    1   21 1
     4    1   22 1
     5    2    3 1
     6    2   23 1
     7    2   24 1
     8    3    4 1
     9    4    5 2
    10    4    6 1
    11    6   10 1
    12    6    7 2
    13    7    8 1
    14    7   25 1
    15    8    9 2
    16    9   10 1
    17    9   26 1
    18   10   11 1
    19   11   12 1
    20   11   13 1
    21   11   14 1
    22   13   27 1
    23   13   28 1
    24   13   29 1
    25   14   19 ar
    26   14   15 ar
    27   15   16 ar
    28   15   30 1
    29   16   17 ar
    30   16   31 1
    31   17   18 ar
    32   17   32 1
    33   18   19 ar
    34   18   33 1
    35   19   34 1
@<TRIPOS>MOLECULE
ZINC17364045
   34    35     0     0     0
SMALL
USER_CHARGES

@<TRIPOS>ATOM
      1 C1         -0.0187    1.5258    0.0104 C.3       1 <0>        -0.1532
      2 C2          0.0021   -0.0041    0.0020 C.3       1 <0>         0.0602
      3 O1          0.6932   -0.4774    1.1597 O.3       1 <0>        -0.3580
      4 C3          0.8012   -1.8140    1.3046 C.2       1 <0>         0.5458
      5 O2          0.3211   -2.5568    0.4699 O.2       1 <0>        -0.4910
      6 C4          1.4971   -2.3713    2.4681 C.2       1 <0>        -0.0825
      7 C5          1.6929   -3.6951    2.7503 C.2       1 <0>         0.0857
      8 N1          2.3680   -3.7711    3.8969 N.2       1 <0>        -0.4947
      9 C6          2.6064   -2.5663    4.3493 C.2       1 <0>         0.2242
     10 N2          2.0916   -1.6639    3.4956 N.pl3     1 <0>        -0.4251
     11 C7          2.1476   -0.2062    3.6310 C.3       1 <0>         0.1612
     12 H1          1.6406    0.2570    2.7844 H         1 <0>         0.1302
     13 C8          1.4566    0.2123    4.9303 C.3       1 <0>        -0.1593
     14 C9          3.5865    0.2407    3.6607 C.ar      1 <0>        -0.1091
     15 C10         4.4342   -0.2239    4.6488 C.ar      1 <0>        -0.1077
     16 C11         5.7541    0.1861    4.6761 C.ar      1 <0>        -0.1153
     17 C12         6.2263    1.0602    3.7149 C.ar      1 <0>        -0.1089
     18 C13         5.3788    1.5241    2.7263 C.ar      1 <0>        -0.1170
     19 C14         4.0600    1.1108    2.6965 C.ar      1 <0>        -0.0974
     20 H2          1.0039    1.9031    0.0027 H         1 <0>         0.0663
     21 H3         -0.5459    1.8868   -0.8726 H         1 <0>         0.0832
     22 H4         -0.5289    1.8773    0.9072 H         1 <0>         0.0671
     23 H5         -1.0205   -0.3814    0.0098 H         1 <0>         0.0715
     24 H6          0.5123   -0.3556   -0.8948 H         1 <0>         0.0712
     25 H7          1.3597   -4.5297    2.1514 H         1 <0>         0.1880
     26 H8          3.1362   -2.3338    5.2613 H         1 <0>         0.2116
     27 H9          1.4982    1.2968    5.0310 H         1 <0>         0.0853
     28 H10         0.4159   -0.1110    4.9088 H         1 <0>         0.0708
     29 H11         1.9635   -0.2509    5.7769 H         1 <0>         0.0681
     30 H12         4.0653   -0.9068    5.3997 H         1 <0>         0.1220
     31 H13         6.4163   -0.1763    5.4485 H         1 <0>         0.1278
     32 H14         7.2574    1.3811    3.7367 H         1 <0>         0.1263
     33 H15         5.7477    2.2073    1.9756 H         1 <0>         0.1271
     34 H16         3.3988    1.4703    1.9219 H         1 <0>         0.1257
@<TRIPOS>BOND
     1    1    2 1
     2    1   20 1
     3    1   21 1
     4    1   22 1
     5    2    3 1
     6    2   23 1
     7    2   24 1
     8    3    4 1
     9    4    5 2
    10    4    6 1
    11    6   10 1
    12    6    7 2
    13    7    8 1
    14    7   25 1
    15    8    9 2
    16    9   10 1
    17    9   26 1
    18   10   11 1
    19   11   12 1
    20   11   13 1
    21   11   14 1
    22   13   27 1
    23   13   28 1
    24   13   29 1
    25   14   19 ar
    26   14   15 ar
    27   15   16 ar
    28   15   30 1
    29   16   17 ar
    30   16   31 1
    31   17   18 ar
    32   17   32 1
    33   18   19 ar
    34   18   33 1
    35   19   34 1
@<TRIPOS>MOLECULE
ZINC01255325
   30    32     0     0     0
SMALL
USER_CHARGES

@<TRIPOS>ATOM
      1 C1          1.7779    1.4018    1.0412 C.ar      1 <0>        -0.1145
      2 C2          1.1699    2.0868    0.0037 C.ar      1 <0>        -0.0924
      3 C3          0.5873    1.3949   -1.0421 C.ar      1 <0>        -0.1103
      4 C4          0.6091    0.0135   -1.0569 C.ar      1 <0>        -0.0118
      5 C5          1.2209   -0.6824   -0.0132 C.ar      1 <0>        -0.0516
      6 C6          1.8065    0.0227    1.0384 C.ar      1 <0>        -0.0738
      7 C7          1.2478   -2.1633   -0.0218 C.2       1 <0>         0.2726
      8 N1          2.3938   -2.7449   -0.1304 N.2       1 <0>        -0.4796
      9 C8          2.5065   -4.2032   -0.1662 C.3       1 <0>         0.0490
     10 C9          1.7863   -4.7140   -1.3824 C.2       1 <0>         0.3924
     11 N2          0.5199   -4.5923   -1.5337 N.2       1 <0>        -0.5827
     12 C10        -0.3342   -4.0316   -0.6352 C.ar      1 <0>         0.1780
     13 C11        -0.0336   -2.8751    0.0999 C.ar      1 <0>        -0.1381
     14 C12        -0.9832   -2.3592    0.9930 C.ar      1 <0>        -0.0571
     15 C13        -2.1979   -2.9858    1.1624 C.ar      1 <0>        -0.0492
     16 C14        -2.4930   -4.1382    0.4500 C.ar      1 <0>        -0.0756
     17 C15        -1.5752   -4.6577   -0.4479 C.ar      1 <0>        -0.1035
     18 Cl1        -3.3624   -2.3314    2.2712 Cl        1 <0>        -0.0596
     19 O1          2.4997   -5.3226   -2.3508 O.3       1 <0>        -0.4545
     20 Cl2        -0.1232   -0.8543   -2.3701 Cl        1 <0>        -0.0550
     21 H1          2.2351    1.9484    1.8527 H         1 <0>         0.1365
     22 H2          1.1501    3.1666    0.0111 H         1 <0>         0.1373
     23 H3          0.1140    1.9352   -1.8486 H         1 <0>         0.1394
     24 H4          2.2817   -0.5102    1.8487 H         1 <0>         0.1363
     25 H5          3.5576   -4.4873   -0.2176 H         1 <0>         0.1285
     26 H6          2.0547   -4.6268    0.7308 H         1 <0>         0.1000
     27 H7         -0.7604   -1.4627    1.5526 H         1 <0>         0.1388
     28 H8         -3.4445   -4.6293    0.5906 H         1 <0>         0.1437
     29 H9         -1.8109   -5.5552   -1.0004 H         1 <0>         0.1439
     30 H10         1.9683   -5.6237   -3.1005 H         1 <0>         0.4125
@<TRIPOS>BOND
     1    1    6 ar
     2    1    2 ar
     3    1   21 1
     4    2    3 ar
     5    2   22 1
     6    3    4 ar
     7    3   23 1
     8    4    5 ar
     9    4   20 1
    10    5    6 ar
    11    5    7 1
    12    6   24 1
    13    7   13 1
    14    7    8 2
    15    8    9 1
    16    9   10 1
    17    9   25 1
    18    9   26 1
    19   10   11 2
    20   10   19 1
    21   11   12 1
    22   12   17 ar
    23   12   13 ar
    24   13   14 ar
    25   14   15 ar
    26   14   27 1
    27   15   16 ar
    28   15   18 1
    29   16   17 ar
    30   16   28 1
    31   17   29 1
    32   19   30 1
@<TRIPOS>MOLECULE
ZINC22064260
   14    14     0     0     0
SMALL
USER_CHARGES

@<TRIPOS>ATOM
      1 C1         -0.0171    1.4078    0.0098 C.2       1 <0>        -0.2462
      2 C2          1.2556    1.8427   -0.0000 C.2       1 <0>        -0.0707
      3 O1          2.0635    0.7709   -0.0135 O.3       1 <0>        -0.1200
      4 N1          1.2514   -0.3892   -0.0120 N.2       1 <0>        -0.4098
      5 C3          0.0021   -0.0041    0.0020 C.2       1 <0>         0.3437
      6 O2         -1.0842   -0.8174    0.0080 O.3       1 <0>        -0.6956
      7 C4          1.6978    3.2834    0.0030 C.3       1 <0>         0.0917
      8 N2          1.8546    3.7445    1.3889 N.4       1 <0>        -0.6348
      9 H1         -0.8997    2.0299    0.0256 H         1 <0>         0.1394
     10 H2          2.6504    3.3722   -0.5194 H         1 <0>         0.1450
     11 H3          0.9488    3.8944   -0.5007 H         1 <0>         0.1492
     12 H4          2.1507    4.7091    1.3910 H         1 <0>         0.4342
     13 H5          0.9728    3.6623    1.8725 H         1 <0>         0.4360
     14 H6          2.5479    3.1789    1.8552 H         1 <0>         0.4380
@<TRIPOS>BOND
     1    1    5 1
     2    1    2 2
     3    1    9 1
     4    2    3 1
     5    2    7 1
     6    3    4 1
     7    4    5 2
     8    5    6 1
     9    7    8 1
    10    7   10 1
    11    7   11 1
    12    8   12 1
    13    8   13 1
    14    8   14 1
@<TRIPOS>MOLECULE
ZINC00057674
   27    29     0     0     0
SMALL
USER_CHARGES

@<TRIPOS>ATOM
      1 C1         -0.0167    1.3795    0.0096 C.ar      1 <0>        -0.0927
      2 C2          1.1683    2.0941    0.0021 C.ar      1 <0>        -0.1234
      3 C3          2.3774    1.4305   -0.0134 C.ar      1 <0>        -0.0788
      4 C4          2.4038    0.0341   -0.0211 C.ar      1 <0>        -0.0759
      5 C5          1.2040   -0.6806   -0.0130 C.ar      1 <0>        -0.0797
      6 C6          0.0021   -0.0041    0.0020 C.ar      1 <0>        -0.1211
      7 C7          3.6944   -0.6832   -0.0382 C.2       1 <0>         0.2130
      8 C8          3.6862   -2.0434   -0.0509 C.2       1 <0>        -0.3188
      9 C9          4.9130   -2.7475   -0.0679 C.2       1 <0>         0.4216
     10 O1          4.9443   -3.9668   -0.0801 O.2       1 <0>        -0.4694
     11 C10         6.1541   -1.9476   -0.0708 C.ar      1 <0>        -0.2229
     12 C11         7.4082   -2.5556   -0.0877 C.ar      1 <0>        -0.0309
     13 C12         8.5427   -1.7738   -0.0903 C.ar      1 <0>        -0.1474
     14 C13         8.4391   -0.3905   -0.0763 C.ar      1 <0>        -0.0567
     15 C14         7.2043    0.2225   -0.0592 C.ar      1 <0>        -0.1399
     16 C15         6.0479   -0.5480   -0.0567 C.ar      1 <0>         0.1453
     17 O2          4.8296    0.0320   -0.0461 O.3       1 <0>        -0.2207
     18 H1         -0.9606    1.9042    0.0260 H         1 <0>         0.1308
     19 H2          1.1464    3.1738    0.0081 H         1 <0>         0.1325
     20 H3          3.3015    1.9894   -0.0199 H         1 <0>         0.1349
     21 H4          1.2172   -1.7605   -0.0192 H         1 <0>         0.1361
     22 H5         -0.9265   -0.5555    0.0082 H         1 <0>         0.1346
     23 H6          2.7500   -2.5817   -0.0478 H         1 <0>         0.1622
     24 H7          7.4901   -3.6324   -0.0982 H         1 <0>         0.1431
     25 H8          9.5169   -2.2399   -0.1029 H         1 <0>         0.1378
     26 H9          9.3351    0.2126   -0.0785 H         1 <0>         0.1423
     27 H10         7.1359    1.3003   -0.0477 H         1 <0>         0.1443
@<TRIPOS>BOND
     1    1    6 ar
     2    1    2 ar
     3    1   18 1
     4    2    3 ar
     5    2   19 1
     6    3    4 ar
     7    3   20 1
     8    4    5 ar
     9    4    7 1
    10    5    6 ar
    11    5   21 1
    12    6   22 1
    13    7   17 1
    14    7    8 2
    15    8    9 1
    16    8   23 1
    17    9   10 2
    18    9   11 1
    19   11   16 ar
    20   11   12 ar
    21   12   13 ar
    22   12   24 1
    23   13   14 ar
    24   13   25 1
    25   14   15 ar
    26   14   26 1
    27   15   16 ar
    28   15   27 1
    29   16   17 1
@<TRIPOS>MOLECULE
ZINC00004220
   42    46     0     0     0
SMALL
USER_CHARGES
(5-cyclopropyl-1,2,4-oxadiazol-3-yl)-isopropyl-BLAHone
@<TRIPOS>ATOM
      1 C1          1.4563    1.5106    0.0573 C.3       1 <0>        -0.1720
      2 C2         -0.0127    1.0858    0.0080 C.3       1 <0>         0.1310
      3 C3         -0.6781    1.6934   -1.2285 C.3       1 <0>        -0.1722
      4 N1         -0.6984    1.5583    1.2133 N.am      1 <0>        -0.5384
      5 C4         -1.3014    0.6393    2.0718 C.ar      1 <0>         0.1697
      6 C5         -1.2368   -0.7186    1.7819 C.ar      1 <0>        -0.1435
      7 C6         -1.8261   -1.6353    2.6290 C.ar      1 <0>        -0.0739
      8 C7         -2.4786   -1.2089    3.7727 C.ar      1 <0>        -0.1216
      9 C8         -2.5440    0.1371    4.0734 C.ar      1 <0>        -0.0857
     10 C9         -1.9546    1.0674    3.2278 C.ar      1 <0>         0.0712
     11 N2         -2.0217    2.4283    3.5333 N.pl3     1 <0>        -0.3776
     12 C10        -2.5723    3.1207    4.5466 C.2       1 <0>         0.2311
     13 N3         -2.3577    4.3989    4.3733 N.2       1 <0>        -0.4412
     14 C11        -1.6598    4.5913    3.2422 C.2       1 <0>         0.1722
     15 C12        -1.4325    3.3440    2.6862 C.2       1 <0>        -0.0588
     16 C13        -0.7466    2.8793    1.4818 C.2       1 <0>         0.5822
     17 O1         -0.2235    3.6783    0.7268 O.2       1 <0>        -0.4616
     18 C14        -1.2167    5.8944    2.6921 C.2       1 <0>         0.2316
     19 N4         -1.4436    7.1134    3.2328 N.2       1 <0>        -0.4486
     20 C15        -0.8755    7.9696    2.4209 C.2       1 <0>         0.2042
     21 O2         -0.3347    7.2656    1.4214 O.3       1 <0>         0.0896
     22 N5         -0.5375    6.0817    1.5896 N.2       1 <0>        -0.3230
     23 C16        -0.8428    9.4678    2.5803 C.3       1 <0>        -0.0809
     24 C17        -0.3047   10.2913    1.4084 C.3       1 <0>        -0.1576
     25 C18         0.5290   10.1376    2.6820 C.3       1 <0>        -0.1524
     26 H1          1.5186    2.5977    0.1083 H         1 <0>         0.0825
     27 H2          1.9303    1.0778    0.9383 H         1 <0>         0.0572
     28 H3          1.9665    1.1591   -0.8395 H         1 <0>         0.0763
     29 H4         -0.0750   -0.0012   -0.0430 H         1 <0>         0.1031
     30 H5         -0.1679    1.3419   -2.1253 H         1 <0>         0.0763
     31 H6         -1.7246    1.3907   -1.2637 H         1 <0>         0.0571
     32 H7         -0.6157    2.7804   -1.1775 H         1 <0>         0.0826
     33 H8         -0.7292   -1.0563    0.8905 H         1 <0>         0.1460
     34 H9         -1.7781   -2.6893    2.3983 H         1 <0>         0.1410
     35 H10        -2.9380   -1.9309    4.4315 H         1 <0>         0.1418
     36 H11        -3.0537    0.4664    4.9669 H         1 <0>         0.1420
     37 H12        -3.1096    2.6870    5.3771 H         1 <0>         0.2279
     38 H13        -1.6567    9.8962    3.1652 H         1 <0>         0.1512
     39 H14         0.0256    9.7494    0.5222 H         1 <0>         0.1083
     40 H15        -0.7648   11.2617    1.2221 H         1 <0>         0.1147
     41 H16         0.6175   11.0070    3.3336 H         1 <0>         0.1152
     42 H17         1.4079    9.4947    2.6337 H         1 <0>         0.1031
@<TRIPOS>BOND
     1    1    2 1
     2    1   26 1
     3    1   27 1
     4    1   28 1
     5    2    3 1
     6    2    4 1
     7    2   29 1
     8    3   30 1
     9    3   31 1
    10    3   32 1
    11    4   16 am
    12    4    5 1
    13    5   10 ar
    14    5    6 ar
    15    6    7 ar
    16    6   33 1
    17    7    8 ar
    18    7   34 1
    19    8    9 ar
    20    8   35 1
    21    9   10 ar
    22    9   36 1
    23   10   11 1
    24   11   15 1
    25   11   12 1
    26   12   13 2
    27   12   37 1
    28   13   14 1
    29   14   15 2
    30   14   18 1
    31   15   16 1
    32   16   17 2
    33   18   22 2
    34   18   19 1
    35   19   20 2
    36   20   21 1
    37   20   23 1
    38   21   22 1
    39   23   25 1
    40   23   24 1
    41   23   38 1
    42   24   25 1
    43   24   39 1
    44   24   40 1
    45   25   41 1
    46   25   42 1
@<TRIPOS>MOLECULE
ZINC00004220
   43    47     0     0     0
SMALL
USER_CHARGES
(5-cyclopropyl-1,2,4-oxadiazol-3-yl)-isopropyl-BLAHone
@<TRIPOS>ATOM
      1 C1          1.4563    1.5106    0.0573 C.3       1 <0>        -0.1753
      2 C2         -0.0127    1.0858    0.0080 C.3       1 <0>         0.1269
      3 C3         -0.6781    1.6934   -1.2285 C.3       1 <0>        -0.1756
      4 N1         -0.6984    1.5583    1.2133 N.am      1 <0>        -0.5255
      5 C4         -1.3014    0.6393    2.0718 C.ar      1 <0>         0.1946
      6 C5         -1.2368   -0.7186    1.7819 C.ar      1 <0>        -0.1392
      7 C6         -1.8261   -1.6353    2.6290 C.ar      1 <0>        -0.0390
      8 C7         -2.4786   -1.2089    3.7727 C.ar      1 <0>        -0.1130
      9 C8         -2.5440    0.1371    4.0734 C.ar      1 <0>        -0.0680
     10 C9         -1.9546    1.0674    3.2278 C.ar      1 <0>         0.0265
     11 N2         -2.0217    2.4283    3.5333 N.pl3     1 <0>        -0.3189
     12 C10        -2.5723    3.1207    4.5466 C.cat     1 <0>         0.3146
     13 C11        -1.6598    4.5913    3.2422 C.2       1 <0>         0.2133
     14 C12        -1.4325    3.3440    2.6862 C.2       1 <0>         0.0125
     15 C13        -0.7466    2.8793    1.4818 C.2       1 <0>         0.5755
     16 O1         -0.2235    3.6783    0.7268 O.2       1 <0>        -0.4287
     17 C14        -1.2167    5.8944    2.6921 C.2       1 <0>         0.1786
     18 N3         -1.4436    7.1134    3.2328 N.2       1 <0>        -0.4744
     19 C15        -0.8755    7.9696    2.4209 C.2       1 <0>         0.2517
     20 O2         -0.3347    7.2656    1.4214 O.3       1 <0>         0.1156
     21 N4         -0.5375    6.0817    1.5896 N.2       1 <0>        -0.2883
     22 C16        -0.8428    9.4678    2.5803 C.3       1 <0>        -0.0999
     23 C17        -0.3047   10.2913    1.4084 C.3       1 <0>        -0.1512
     24 C18         0.5290   10.1376    2.6820 C.3       1 <0>        -0.1456
     25 H1          1.5186    2.5977    0.1083 H         1 <0>         0.0818
     26 H2          1.9303    1.0778    0.9383 H         1 <0>         0.0617
     27 H3          1.9665    1.1591   -0.8395 H         1 <0>         0.0870
     28 H4         -0.0750   -0.0012   -0.0430 H         1 <0>         0.1136
     29 H5         -0.1679    1.3419   -2.1253 H         1 <0>         0.0870
     30 H6         -1.7246    1.3907   -1.2637 H         1 <0>         0.0616
     31 H7         -0.6157    2.7804   -1.1775 H         1 <0>         0.0818
     32 H8         -0.7292   -1.0563    0.8905 H         1 <0>         0.1596
     33 H9         -1.7781   -2.6893    2.3983 H         1 <0>         0.1558
     34 H10        -2.9380   -1.9309    4.4315 H         1 <0>         0.1559
     35 H11        -3.0537    0.4664    4.9669 H         1 <0>         0.1506
     36 H12        -3.1096    2.6870    5.3771 H         1 <0>         0.2790
     37 H13        -1.6567    9.8962    3.1652 H         1 <0>         0.1586
     38 H14         0.0256    9.7494    0.5222 H         1 <0>         0.1120
     39 H15        -0.7648   11.2617    1.2221 H         1 <0>         0.1221
     40 H16         0.6175   11.0070    3.3336 H         1 <0>         0.1221
     41 H17         1.4079    9.4947    2.6337 H         1 <0>         0.1063
     42 N5         -2.3581    4.3999    4.3742 N.pl3     1 <0>        -0.4607
     43 H18        -2.6752    5.1437    5.0070 H         1 <0>         0.4968
@<TRIPOS>BOND
     1    1    2 1
     2    1   25 1
     3    1   26 1
     4    1   27 1
     5    2    3 1
     6    2    4 1
     7    2   28 1
     8    3   29 1
     9    3   30 1
    10    3   31 1
    11    4   15 am
    12    4    5 1
    13    5   10 ar
    14    5    6 ar
    15    6    7 ar
    16    6   32 1
    17    7    8 ar
    18    7   33 1
    19    8    9 ar
    20    8   34 1
    21    9   10 ar
    22    9   35 1
    23   10   11 1
    24   11   14 1
    25   11   12 1
    26   12   36 1
    27   12   42 2
    28   13   14 2
    29   13   17 1
    30   13   42 1
    31   14   15 1
    32   15   16 2
    33   17   21 2
    34   17   18 1
    35   18   19 2
    36   19   20 1
    37   19   22 1
    38   20   21 1
    39   22   24 1
    40   22   23 1
    41   22   37 1
    42   23   24 1
    43   23   38 1
    44   23   39 1
    45   24   40 1
    46   24   41 1
    47   42   43 1
@<TRIPOS>MOLECULE
ZINC01706201
   19    18     0     0     0
SMALL
USER_CHARGES
(4R)-4-aminopentanoic acid
@<TRIPOS>ATOM
      1 C1         -0.0638    0.9713    2.5033 C.3       1 <0>        -0.1808
      2 C2         -0.7288    1.5792    1.2668 C.3       1 <0>         0.0285
      3 H1         -1.7755    1.2768    1.2315 H         1 <0>         0.1358
      4 C3         -0.0127    1.0858    0.0080 C.3       1 <0>        -0.1252
      5 C4         -0.7527    1.5927   -1.2315 C.3       1 <0>        -0.1748
      6 C5         -0.0473    1.1067   -2.4714 C.2       1 <0>         0.4538
      7 O1          0.9454    0.4249   -2.3737 O.co2     1 <0>        -0.6319
      8 H2          0.9829    1.2737    2.5386 H         1 <0>         0.0799
      9 H3         -0.5739    1.3228    3.4001 H         1 <0>         0.0752
     10 H4         -0.1264   -0.1157    2.4522 H         1 <0>         0.1041
     11 H5          0.0021   -0.0041    0.0020 H         1 <0>         0.1106
     12 H6          1.0099    1.4631    0.0003 H         1 <0>         0.0872
     13 H7         -1.7753    1.2154   -1.2238 H         1 <0>         0.0778
     14 H8         -0.7675    2.6825   -1.2255 H         1 <0>         0.0582
     15 H9          0.3165    3.3498    1.3694 H         1 <0>         0.4330
     16 H10        -1.1329    3.4713    0.5630 H         1 <0>         0.4375
     17 O2         -0.5219    1.4312   -3.6843 O.co2     1 <0>        -0.7560
     18 N1         -0.6564    3.0482    1.3577 N.4       1 <0>        -0.6443
     19 H11        -1.1129    3.3556    2.2245 H         1 <0>         0.4315
@<TRIPOS>BOND
     1    1    2 1
     2    1    8 1
     3    1    9 1
     4    1   10 1
     5    2    3 1
     6    2    4 1
     7    2   18 1
     8    4    5 1
     9    4   11 1
    10    4   12 1
    11    5    6 1
    12    5   13 1
    13    5   14 1
    14    6    7 2
    15    6   17 1
    16   15   18 1
    17   16   18 1
    18   18   19 1
@<TRIPOS>MOLECULE
ZINC28770773
   17    17     0     0     0
SMALL
USER_CHARGES
5-[(1R)-1-aminoethyl]isoxazol-3-ol
@<TRIPOS>ATOM
      1 C1          1.5753   -2.5003    1.3937 C.3       1 <0>        -0.1797
      2 C2          1.6638   -1.9335   -0.0247 C.3       1 <0>         0.1569
      3 H1          2.6846   -2.0278   -0.4235 H         1 <0>         0.1443
      4 C3          1.2543   -0.4832   -0.0125 C.2       1 <0>        -0.1635
      5 C4          2.0782    0.5897   -0.0146 C.2       1 <0>        -0.2531
      6 C5          1.1943    1.7001   -0.0002 C.2       1 <0>         0.3138
      7 N1         -0.0143    1.2049    0.0087 N.2       1 <0>        -0.4713
      8 O1          0.0021   -0.0041    0.0020 O.3       1 <0>         0.0610
      9 O2          1.5365    3.0134    0.0032 O.3       1 <0>        -0.7075
     10 N2          0.7671   -2.6881   -0.9104 N.4       1 <0>        -0.6850
     11 H2          1.8742   -3.5589    1.3848 H         1 <0>         0.0808
     12 H3          0.5413   -2.4143    1.7591 H         1 <0>         0.0841
     13 H4          2.2468   -1.9352    2.0569 H         1 <0>         0.1044
     14 H5          3.1581    0.5991   -0.0249 H         1 <0>         0.1485
     15 H6          0.8307   -2.2806   -1.9301 H         1 <0>         0.4590
     16 H7         -0.2669   -2.6021   -0.5450 H         1 <0>         0.4573
     17 H8          1.0660   -3.7467   -0.9192 H         1 <0>         0.4500
@<TRIPOS>BOND
     1    1    2 1
     2    1   11 1
     3    1   12 1
     4    1   13 1
     5    2    3 1
     6    2    4 1
     7    2   10 1
     8    4    8 1
     9    4    5 2
    10    5    6 1
    11    5   14 1
    12    6    7 2
    13    6    9 1
    14    7    8 1
    15   10   15 1
    16   10   16 1
    17   10   17 1
@<TRIPOS>MOLECULE
ZINC03581353
   19    18     0     0     0
SMALL
USER_CHARGES
(4S)-4-aminopentanoic acid
@<TRIPOS>ATOM
      1 C1         -0.7527    1.5927   -1.2315 C.3       1 <0>        -0.1808
      2 C2         -0.0127    1.0858    0.0080 C.3       1 <0>         0.0283
      3 H1          0.0021   -0.0041    0.0020 H         1 <0>         0.1390
      4 C3          1.4227    1.6154   -0.0028 C.3       1 <0>        -0.1284
      5 C4          2.1988    1.0094    1.1682 C.3       1 <0>        -0.1747
      6 C5          3.6126    1.5310    1.1575 C.2       1 <0>         0.4538
      7 O1          3.9634    2.3078    0.3011 O.co2     1 <0>        -0.6317
      8 H2         -0.2425    1.2411   -2.1283 H         1 <0>         0.1040
      9 H3         -1.7753    1.2154   -1.2238 H         1 <0>         0.0754
     10 H4         -0.7675    2.6825   -1.2255 H         1 <0>         0.0796
     11 H5          1.9050    1.3387   -0.9404 H         1 <0>         0.1104
     12 H6          1.4101    2.7011    0.0927 H         1 <0>         0.0873
     13 H7          1.7165    1.2860    2.1057 H         1 <0>         0.0579
     14 H8          2.2113   -0.0764    1.0727 H         1 <0>         0.0783
     15 H9         -1.6510    1.2229    1.2472 H         1 <0>         0.4294
     16 H10        -0.1952    1.2924    2.0482 H         1 <0>         0.4374
     17 O2          4.4820    1.1326    2.0993 O.co2     1 <0>        -0.7556
     18 N1         -0.6993    1.5846    1.2126 N.4       1 <0>        -0.6446
     19 H11        -0.7316    2.6104    1.1824 H         1 <0>         0.4347
@<TRIPOS>BOND
     1    1    2 1
     2    1    8 1
     3    1    9 1
     4    1   10 1
     5    2    3 1
     6    2    4 1
     7    2   18 1
     8    4    5 1
     9    4   11 1
    10    4   12 1
    11    5    6 1
    12    5   13 1
    13    5   14 1
    14    6    7 2
    15    6   17 1
    16   15   18 1
    17   16   18 1
    18   18   19 1
@<TRIPOS>MOLECULE
ZINC29205507
   17    17     0     0     0
SMALL
USER_CHARGES
5-[(1S)-1-aminoethyl]isoxazol-3-ol
@<TRIPOS>ATOM
      1 C1          3.0703    1.6540    1.4029 C.3       1 <0>        -0.1796
      2 C2          2.5006    1.5463   -0.0131 C.3       1 <0>         0.1569
      3 H1          2.6162    0.5260   -0.4076 H         1 <0>         0.1443
      4 C3          1.0417    1.9234    0.0024 C.2       1 <0>        -0.1636
      5 C4         -0.0126    1.0758    0.0080 C.2       1 <0>        -0.2530
      6 C5         -1.1424    1.9347    0.0171 C.2       1 <0>         0.3138
      7 N1         -0.6743    3.1541    0.0247 N.2       1 <0>        -0.4713
      8 O1          0.5347    3.1647    0.0135 O.3       1 <0>         0.0611
      9 O2         -2.4477    1.5634    0.0206 O.3       1 <0>        -0.7075
     10 N2          3.2319    2.4555   -0.9056 N.4       1 <0>        -0.6850
     11 H2          4.1352    1.3787    1.3916 H         1 <0>         0.0808
     12 H3          2.5227    0.9732    2.0712 H         1 <0>         0.1043
     13 H4          2.9625    2.6875    1.7638 H         1 <0>         0.0841
     14 H5          0.0021   -0.0041    0.0020 H         1 <0>         0.1485
     15 H6          2.8223    2.3781   -1.9236 H         1 <0>         0.4591
     16 H7          4.2968    2.1802   -0.9169 H         1 <0>         0.4500
     17 H8          3.1241    3.4890   -0.5446 H         1 <0>         0.4573
@<TRIPOS>BOND
     1    1    2 1
     2    1   11 1
     3    1   12 1
     4    1   13 1
     5    2    3 1
     6    2    4 1
     7    2   10 1
     8    4    8 1
     9    4    5 2
    10    5    6 1
    11    5   14 1
    12    6    7 2
    13    6    9 1
    14    7    8 1
    15   10   15 1
    16   10   16 1
    17   10   17 1
@<TRIPOS>MOLECULE
ZINC04163034
   44    46     0     0     0
SMALL
USER_CHARGES
ethyl 1-[2-(1H-indol-3-yl)-2-oxo-acetyl]piperidine-3-carboxylate
@<TRIPOS>ATOM
      1 C1          4.0097  -11.0316    1.6240 C.3       1 <0>        -0.1542
      2 C2          2.4881  -10.8873    1.5542 C.3       1 <0>         0.0614
      3 O1          2.1368   -9.4790    1.5146 O.3       1 <0>        -0.3559
      4 C3          0.8301   -9.1784    1.4516 C.2       1 <0>         0.4689
      5 O2          0.0072  -10.0628    1.4303 O.2       1 <0>        -0.4993
      6 C4          0.3896   -7.7379    1.4075 C.3       1 <0>        -0.0944
      7 H1          0.7357   -7.2236    2.3040 H         1 <0>         0.1149
      8 C5         -1.1379   -7.6728    1.3388 C.3       1 <0>        -0.1071
      9 C6         -1.5878   -6.2101    1.3271 C.3       1 <0>        -0.1341
     10 C7         -1.0179   -5.5147    0.0867 C.3       1 <0>         0.0966
     11 N1          0.4398   -5.6978    0.0698 N.am      1 <0>        -0.5975
     12 C8          0.9818   -7.0603    0.1624 C.3       1 <0>         0.1214
     13 C9          1.2640   -4.6365   -0.0345 C.2       1 <0>         0.4973
     14 O3          2.4478   -4.8056   -0.2433 O.2       1 <0>        -0.5080
     15 C10         0.7216   -3.2541    0.1066 C.2       1 <0>         0.4286
     16 O4         -0.0581   -2.8200   -0.7187 O.2       1 <0>        -0.4336
     17 C11         1.1277   -2.4213    1.2375 C.2       1 <0>        -0.2705
     18 C12         1.9992   -2.7675    2.2531 C.2       1 <0>         0.1544
     19 N2          2.1230   -1.7389    3.1112 N.pl3     1 <0>        -0.5635
     20 H2          2.6818   -1.7468    3.9041 H         1 <0>         0.4246
     21 C13         1.3460   -0.6703    2.7093 C.ar      1 <0>         0.0739
     22 C14         0.6894   -1.0418    1.5254 C.ar      1 <0>        -0.0539
     23 C15        -0.1686   -0.1484    0.8917 C.ar      1 <0>        -0.0745
     24 C16        -0.3709    1.1038    1.4323 C.ar      1 <0>        -0.1283
     25 C17         0.2765    1.4730    2.6014 C.ar      1 <0>        -0.1010
     26 C18         1.1291    0.5971    3.2390 C.ar      1 <0>        -0.1181
     27 H3          4.4592  -10.5696    0.7450 H         1 <0>         0.0685
     28 H4          4.3805  -10.5393    2.5230 H         1 <0>         0.0672
     29 H5          4.2734  -12.0888    1.6537 H         1 <0>         0.0815
     30 H6          2.0386  -11.3493    2.4331 H         1 <0>         0.0711
     31 H7          2.1173  -11.3797    0.6552 H         1 <0>         0.0718
     32 H8         -1.5623   -8.1763    2.2074 H         1 <0>         0.0807
     33 H9         -1.4818   -8.1658    0.4295 H         1 <0>         0.0786
     34 H10        -1.2231   -5.7101    2.2243 H         1 <0>         0.0726
     35 H11        -2.6765   -6.1640    1.3020 H         1 <0>         0.0896
     36 H12        -1.2521   -4.4508    0.1243 H         1 <0>         0.0946
     37 H13        -1.4517   -5.9528   -0.8121 H         1 <0>         0.0827
     38 H14         0.7074   -7.6241   -0.7292 H         1 <0>         0.0806
     39 H15         2.0674   -7.0165    0.2500 H         1 <0>         0.1096
     40 H16         2.5036   -3.7182    2.3437 H         1 <0>         0.1859
     41 H17        -0.6734   -0.4342   -0.0193 H         1 <0>         0.1330
     42 H18        -1.0328    1.8014    0.9406 H         1 <0>         0.1288
     43 H19         0.1115    2.4563    3.0165 H         1 <0>         0.1303
     44 H20         1.6279    0.8948    4.1495 H         1 <0>         0.1248
@<TRIPOS>BOND
     1    1    2 1
     2    1   27 1
     3    1   28 1
     4    1   29 1
     5    2    3 1
     6    2   30 1
     7    2   31 1
     8    3    4 1
     9    4    5 2
    10    4    6 1
    11    6    7 1
    12    6   12 1
    13    6    8 1
    14    8    9 1
    15    8   32 1
    16    8   33 1
    17    9   10 1
    18    9   34 1
    19    9   35 1
    20   10   11 1
    21   10   36 1
    22   10   37 1
    23   11   12 1
    24   11   13 am
    25   12   38 1
    26   12   39 1
    27   13   14 2
    28   13   15 1
    29   15   16 2
    30   15   17 1
    31   17   22 1
    32   17   18 2
    33   18   19 1
    34   18   40 1
    35   19   20 1
    36   19   21 1
    37   21   26 ar
    38   21   22 ar
    39   22   23 ar
    40   23   24 ar
    41   23   41 1
    42   24   25 ar
    43   24   42 1
    44   25   26 ar
    45   25   43 1
    46   26   44 1
@<TRIPOS>MOLECULE
ZINC04163035
   44    46     0     0     0
SMALL
USER_CHARGES
ethyl 1-[2-(1H-indol-3-yl)-2-oxo-acetyl]piperidine-3-carboxylate
@<TRIPOS>ATOM
      1 C1         -3.3392   -0.0651   -0.6486 C.3       1 <0>        -0.1542
      2 C2         -2.4328    0.4526    0.4700 C.3       1 <0>         0.0614
      3 O1         -2.1899    1.8713    0.2786 O.3       1 <0>        -0.3559
      4 C3         -1.4072    2.4828    1.1815 C.2       1 <0>         0.4691
      5 O2         -0.9404    1.8534    2.1012 O.2       1 <0>        -0.4991
      6 C4         -1.1106    3.9543    1.0480 C.3       1 <0>        -0.0945
      7 H1         -2.0429    4.5179    1.0822 H         1 <0>         0.1147
      8 C5         -0.2026    4.3986    2.1970 C.3       1 <0>        -0.1071
      9 C6          0.0726    5.8996    2.0808 C.3       1 <0>        -0.1344
     10 C7          0.7928    6.1818    0.7585 C.3       1 <0>         0.0962
     11 N1         -0.0064    5.6278   -0.3429 N.am      1 <0>        -0.5974
     12 C8         -0.4038    4.2144   -0.2860 C.3       1 <0>         0.1214
     13 C9         -0.3685    6.4014   -1.3854 C.2       1 <0>         0.4975
     14 O3         -0.8461    5.8952   -2.3799 O.2       1 <0>        -0.5077
     15 C10        -0.1822    7.8799   -1.3171 C.2       1 <0>         0.4284
     16 O4          0.9373    8.3493   -1.2564 O.2       1 <0>        -0.4336
     17 C11        -1.3464    8.7644   -1.3232 C.2       1 <0>        -0.2703
     18 C12        -2.6749    8.3882   -1.3873 C.2       1 <0>         0.1544
     19 N2         -3.4552    9.4839   -1.3706 N.pl3     1 <0>        -0.5635
     20 H2         -4.4244    9.4709   -1.4061 H         1 <0>         0.4246
     21 C13        -2.6879   10.6297   -1.2954 C.ar      1 <0>         0.0739
     22 C14        -1.3402   10.2387   -1.2558 C.ar      1 <0>        -0.0539
     23 C15        -0.3354   11.1986   -1.1856 C.ar      1 <0>        -0.0745
     24 C16        -0.6703   12.5354   -1.1419 C.ar      1 <0>        -0.1283
     25 C17        -2.0009   12.9237   -1.1750 C.ar      1 <0>        -0.1010
     26 C18        -3.0057   11.9828   -1.2509 C.ar      1 <0>        -0.1182
     27 H3         -3.5215   -1.1301   -0.5049 H         1 <0>         0.0815
     28 H4         -4.2874    0.4721   -0.6259 H         1 <0>         0.0672
     29 H5         -2.8545    0.0938   -1.6119 H         1 <0>         0.0685
     30 H6         -1.4846   -0.0846    0.4473 H         1 <0>         0.0718
     31 H7         -2.9174    0.2936    1.4333 H         1 <0>         0.0711
     32 H8         -0.6930    4.1919    3.1482 H         1 <0>         0.0808
     33 H9          0.7392    3.8519    2.1478 H         1 <0>         0.0786
     34 H10        -0.8707    6.4453    2.1049 H         1 <0>         0.0725
     35 H11         0.7001    6.2199    2.9124 H         1 <0>         0.0897
     36 H12         0.9028    7.2579    0.6248 H         1 <0>         0.0951
     37 H13         1.7766    5.7126    0.7709 H         1 <0>         0.0827
     38 H14         0.4814    3.5827   -0.3598 H         1 <0>         0.0802
     39 H15        -1.0832    3.9924   -1.1089 H         1 <0>         0.1093
     40 H16        -3.0319    7.3704   -1.4426 H         1 <0>         0.1859
     41 H17         0.7016   10.8979   -1.1597 H         1 <0>         0.1330
     42 H18         0.1068   13.2830   -1.0820 H         1 <0>         0.1288
     43 H19        -2.2527   13.9734   -1.1406 H         1 <0>         0.1303
     44 H20        -4.0389   12.2964   -1.2761 H         1 <0>         0.1248
@<TRIPOS>BOND
     1    1    2 1
     2    1   27 1
     3    1   28 1
     4    1   29 1
     5    2    3 1
     6    2   30 1
     7    2   31 1
     8    3    4 1
     9    4    5 2
    10    4    6 1
    11    6    7 1
    12    6   12 1
    13    6    8 1
    14    8    9 1
    15    8   32 1
    16    8   33 1
    17    9   10 1
    18    9   34 1
    19    9   35 1
    20   10   11 1
    21   10   36 1
    22   10   37 1
    23   11   12 1
    24   11   13 am
    25   12   38 1
    26   12   39 1
    27   13   14 2
    28   13   15 1
    29   15   16 2
    30   15   17 1
    31   17   22 1
    32   17   18 2
    33   18   19 1
    34   18   40 1
    35   19   20 1
    36   19   21 1
    37   21   26 ar
    38   21   22 ar
    39   22   23 ar
    40   23   24 ar
    41   23   41 1
    42   24   25 ar
    43   24   42 1
    44   25   26 ar
    45   25   43 1
    46   26   44 1
@<TRIPOS>MOLECULE
ZINC04163071
   39    42     0     0     0
SMALL
USER_CHARGES

@<TRIPOS>ATOM
      1 C1         -0.4796    0.9618    1.1999 C.ar      1 <0>        -0.1178
      2 C2          0.6295    1.7863    1.2432 C.ar      1 <0>        -0.1186
      3 C3          1.8812    1.2623    0.9946 C.ar      1 <0>        -0.1112
      4 C4          2.0357   -0.0867    0.7050 C.ar      1 <0>        -0.0976
      5 C5          0.9335   -0.9109    0.6710 C.ar      1 <0>        -0.0754
      6 C6         -0.3271   -0.3787    0.9143 C.ar      1 <0>        -0.1187
      7 C7          1.0262   -2.3883    0.3944 C.3       1 <0>        -0.0962
      8 C8          2.3385   -2.7286   -0.3102 C.3       1 <0>         0.1067
      9 N1          3.4299   -2.0586    0.4161 N.am      1 <0>        -0.5862
     10 C9          3.4296   -0.5919    0.4289 C.3       1 <0>         0.1266
     11 C10         4.3907   -2.7648    1.0443 C.2       1 <0>         0.4956
     12 O1          4.3007   -3.9725    1.1266 O.2       1 <0>        -0.5192
     13 C11         5.5649   -2.0622    1.6383 C.2       1 <0>         0.4224
     14 O2          5.7290   -0.8749    1.4360 O.2       1 <0>        -0.4349
     15 C12         6.5184   -2.8016    2.4639 C.2       1 <0>        -0.2766
     16 C13         6.4751   -4.1466    2.7801 C.2       1 <0>         0.1684
     17 N2          7.5251   -4.4605    3.5602 N.pl3     1 <0>        -0.5672
     18 H1          7.7073   -5.3472    3.9086 H         1 <0>         0.4240
     19 C14         8.3085   -3.3481    3.7969 C.ar      1 <0>         0.0703
     20 C15         7.7248   -2.2640    3.1225 C.ar      1 <0>        -0.0538
     21 C16         8.3126   -1.0043    3.1829 C.ar      1 <0>        -0.0761
     22 C17         9.4732   -0.8266    3.9058 C.ar      1 <0>        -0.1292
     23 C18        10.0534   -1.8965    4.5700 C.ar      1 <0>        -0.1038
     24 C19         9.4767   -3.1480    4.5244 C.ar      1 <0>        -0.1175
     25 H2         -1.4623    1.3658    1.3936 H         1 <0>         0.1233
     26 H3          0.5164    2.8360    1.4704 H         1 <0>         0.1249
     27 H4          2.7475    1.9065    1.0250 H         1 <0>         0.1261
     28 H5         -1.1949   -1.0207    0.8798 H         1 <0>         0.1221
     29 H6          0.9735   -2.9335    1.3368 H         1 <0>         0.0822
     30 H7          0.1912   -2.6875   -0.2391 H         1 <0>         0.0897
     31 H8          2.4949   -3.8073   -0.2975 H         1 <0>         0.1020
     32 H9          2.3075   -2.3720   -1.3397 H         1 <0>         0.0809
     33 H10         3.7647   -0.2206   -0.5396 H         1 <0>         0.0865
     34 H11         4.1052   -0.2358    1.2067 H         1 <0>         0.1326
     35 H12         5.7145   -4.8393    2.4514 H         1 <0>         0.2022
     36 H13         7.8622   -0.1699    2.6659 H         1 <0>         0.1323
     37 H14         9.9323    0.1497    3.9546 H         1 <0>         0.1278
     38 H15        10.9625   -1.7468    5.1334 H         1 <0>         0.1294
     39 H16         9.9378   -3.9747    5.0443 H         1 <0>         0.1241
@<TRIPOS>BOND
     1    1    6 ar
     2    1    2 ar
     3    1   25 1
     4    2    3 ar
     5    2   26 1
     6    3    4 ar
     7    3   27 1
     8    4   10 1
     9    4    5 ar
    10    5    6 ar
    11    5    7 1
    12    6   28 1
    13    7    8 1
    14    7   29 1
    15    7   30 1
    16    8    9 1
    17    8   31 1
    18    8   32 1
    19    9   10 1
    20    9   11 am
    21   10   33 1
    22   10   34 1
    23   11   12 2
    24   11   13 1
    25   13   14 2
    26   13   15 1
    27   15   20 1
    28   15   16 2
    29   16   17 1
    30   16   35 1
    31   17   18 1
    32   17   19 1
    33   19   24 ar
    34   19   20 ar
    35   20   21 ar
    36   21   22 ar
    37   21   36 1
    38   22   23 ar
    39   22   37 1
    40   23   24 ar
    41   23   38 1
    42   24   39 1
@<TRIPOS>MOLECULE
ZINC29205511
   17    16     0     0     0
SMALL
USER_CHARGES
(E,4S)-4-aminopent-2-enoic acid
@<TRIPOS>ATOM
      1 C1         -2.6675    5.0921    1.2240 C.3       1 <0>        -0.1763
      2 C2         -2.6319    4.1275    0.0370 C.3       1 <0>         0.0805
      3 H1         -2.7631    4.6669   -0.9127 H         1 <0>         0.1379
      4 C3         -1.3167    3.3918    0.0267 C.2       1 <0>        -0.1942
      5 C4         -1.2987    2.0612    0.0194 C.2       1 <0>        -0.1467
      6 C5         -0.0162    1.3438    0.0094 C.2       1 <0>         0.4657
      7 O1          1.0279    1.9657    0.0028 O.co2     1 <0>        -0.6168
      8 O2          0.0021   -0.0041    0.0020 O.co2     1 <0>        -0.7430
      9 N1         -3.7323    3.1618    0.1576 N.4       1 <0>        -0.6887
     10 H2         -3.6275    5.6290    1.2314 H         1 <0>         0.0769
     11 H3         -1.8436    5.8153    1.1336 H         1 <0>         0.1044
     12 H4         -2.5570    4.5255    2.1603 H         1 <0>         0.0811
     13 H5         -0.3716    3.9547    0.0252 H         1 <0>         0.1597
     14 H6         -2.2438    1.4983    0.0209 H         1 <0>         0.0982
     15 H7         -3.7067    2.4683   -0.6958 H         1 <0>         0.4583
     16 H8         -4.6923    3.6988    0.1650 H         1 <0>         0.4488
     17 H9         -3.6219    2.5952    1.0940 H         1 <0>         0.4542
@<TRIPOS>BOND
     1    1    2 1
     2    1   10 1
     3    1   11 1
     4    1   12 1
     5    2    3 1
     6    2    4 1
     7    2    9 1
     8    4    5 2
     9    4   13 1
    10    5    6 1
    11    5   14 1
    12    6    7 2
    13    6    8 1
    14    9   15 1
    15    9   16 1
    16    9   17 1
@<TRIPOS>MOLECULE
ZINC02602006
   29    32     0     0     0
SMALL
USER_CHARGES

@<TRIPOS>ATOM
      1 C1         -0.0167    1.3790    0.0096 C.ar      1 <0>        -0.1143
      2 C2          1.1687    2.0918    0.0021 C.ar      1 <0>        -0.1254
      3 C3          2.3774    1.4257   -0.0134 C.ar      1 <0>        -0.0863
      4 C4          2.4021    0.0327   -0.0211 C.ar      1 <0>         0.0028
      5 C5          1.2051   -0.6804   -0.0130 C.ar      1 <0>        -0.0794
      6 C6          0.0021   -0.0041    0.0020 C.ar      1 <0>        -0.1276
      7 C7          3.6988   -0.6891   -0.0383 C.2       1 <0>         0.2496
      8 N1          3.8445   -2.0182   -0.0522 N.2       1 <0>        -0.5379
      9 C8          5.1235   -2.3227   -0.0660 C.2       1 <0>         0.3317
     10 C9          5.8793   -3.5805   -0.0845 C.ar      1 <0>        -0.1633
     11 C10         5.2479   -4.8223   -0.0916 C.ar      1 <0>        -0.0298
     12 C11         6.0073   -5.9715   -0.1095 C.ar      1 <0>        -0.1946
     13 C12         7.3943   -5.9009   -0.1201 C.ar      1 <0>        -0.0686
     14 C13         8.0381   -4.6847   -0.1134 C.ar      1 <0>        -0.1518
     15 C14         7.2905   -3.5042   -0.0958 C.ar      1 <0>         0.2208
     16 N2          7.8889   -2.2882   -0.0887 N.2       1 <0>        -0.5963
     17 C15         7.2017   -1.1787   -0.0719 C.2       1 <0>         0.6162
     18 N3          5.8358   -1.1528   -0.0609 N.pl3     1 <0>        -0.3463
     19 N4          4.8877   -0.1209   -0.0479 N.2       1 <0>        -0.2856
     20 O1          7.8702   -0.0045   -0.0654 O.3       1 <0>        -0.6417
     21 H1         -0.9602    1.9042    0.0260 H         1 <0>         0.1213
     22 H2          1.1483    3.1716    0.0081 H         1 <0>         0.1251
     23 H3          3.3023    1.9833   -0.0199 H         1 <0>         0.1324
     24 H4          1.2187   -1.7603   -0.0189 H         1 <0>         0.1350
     25 H5         -0.9264   -0.5558    0.0079 H         1 <0>         0.1248
     26 H6          4.1697   -4.8837   -0.0827 H         1 <0>         0.1241
     27 H7          5.5200   -6.9354   -0.1149 H         1 <0>         0.1175
     28 H8          7.9747   -6.8116   -0.1333 H         1 <0>         0.1191
     29 H9          9.1172   -4.6426   -0.1214 H         1 <0>         0.1283
@<TRIPOS>BOND
     1    1    6 ar
     2    1    2 ar
     3    1   21 1
     4    2    3 ar
     5    2   22 1
     6    3    4 ar
     7    3   23 1
     8    4    5 ar
     9    4    7 1
    10    5    6 ar
    11    5   24 1
    12    6   25 1
    13    7   19 2
    14    7    8 1
    15    8    9 2
    16    9   18 1
    17    9   10 1
    18   10   15 ar
    19   10   11 ar
    20   11   12 ar
    21   11   26 1
    22   12   13 ar
    23   12   27 1
    24   13   14 ar
    25   13   28 1
    26   14   15 ar
    27   14   29 1
    28   15   16 1
    29   16   17 2
    30   17   18 1
    31   17   20 1
    32   18   19 1
@<TRIPOS>MOLECULE
ZINC00001464
   36    38     0     0     0
SMALL
USER_CHARGES

@<TRIPOS>ATOM
      1 C1         -0.0187    1.5258    0.0104 C.3       1 <0>        -0.1527
      2 C2          0.0021   -0.0041    0.0020 C.3       1 <0>         0.0595
      3 O1         -1.3386   -0.4987    0.0122 O.3       1 <0>        -0.3295
      4 C3         -1.4970   -1.8373    0.0065 C.2       1 <0>         0.5595
      5 O2         -0.5232   -2.5645   -0.0067 O.2       1 <0>        -0.5059
      6 C4         -2.8491   -2.4182    0.0163 C.2       1 <0>        -0.0204
      7 C5         -3.1574   -3.7441    0.0176 C.2       1 <0>         0.0514
      8 N1         -4.5094   -3.8420    0.0002 N.pl3     1 <0>        -0.4034
      9 C6         -5.0118   -2.5765    0.0278 C.2       1 <0>         0.2113
     10 N2         -4.0219   -1.7299    0.0316 N.2       1 <0>        -0.4291
     11 C7         -5.2437   -5.0283   -0.0696 C.ar      1 <0>         0.1361
     12 C8         -6.4178   -5.0243   -0.8179 C.ar      1 <0>        -0.0943
     13 C9         -7.1677   -6.1733   -0.9504 C.ar      1 <0>        -0.1054
     14 C10        -6.7527   -7.3466   -0.3378 C.ar      1 <0>         0.1093
     15 C11        -5.6005   -7.3636    0.4163 C.ar      1 <0>        -0.0832
     16 C12        -4.8343   -6.1965    0.5748 C.ar      1 <0>        -0.0860
     17 C13        -3.6619   -6.2637    1.4502 C.2       1 <0>         0.5507
     18 O3         -3.7840   -6.9146    2.4698 O.2       1 <0>        -0.5260
     19 N3         -2.4758   -5.6895    1.2509 N.am      1 <0>        -0.5964
     20 C14        -2.1949   -4.9033    0.0447 C.3       1 <0>         0.1632
     21 C15        -1.4269   -5.8469    2.2614 C.3       1 <0>         0.0754
     22 F1         -7.4809   -8.4755   -0.4809 F         1 <0>        -0.1229
     23 H1          1.0039    1.9031    0.0027 H         1 <0>         0.0814
     24 H2         -0.5459    1.8868   -0.8726 H         1 <0>         0.0681
     25 H3         -0.5289    1.8773    0.9072 H         1 <0>         0.0679
     26 H4          0.5123   -0.3556   -0.8948 H         1 <0>         0.0706
     27 H5          0.5293   -0.3651    0.8851 H         1 <0>         0.0701
     28 H6         -6.0600   -2.3172    0.0476 H         1 <0>         0.2269
     29 H7         -6.7439   -4.1135   -1.2980 H         1 <0>         0.1544
     30 H8         -8.0784   -6.1600   -1.5308 H         1 <0>         0.1586
     31 H9         -5.2835   -8.2812    0.8896 H         1 <0>         0.1586
     32 H10        -2.3373   -5.5225   -0.8409 H         1 <0>         0.0971
     33 H11        -1.1705   -4.5322    0.0760 H         1 <0>         0.1471
     34 H12        -1.8034   -6.4548    3.0841 H         1 <0>         0.0976
     35 H13        -0.5619   -6.3366    1.8141 H         1 <0>         0.0726
     36 H14        -1.1351   -4.8666    2.6380 H         1 <0>         0.0680
@<TRIPOS>BOND
     1    1    2 1
     2    1   23 1
     3    1   24 1
     4    1   25 1
     5    2    3 1
     6    2   26 1
     7    2   27 1
     8    3    4 1
     9    4    5 2
    10    4    6 1
    11    6   10 1
    12    6    7 2
    13    7   20 1
    14    7    8 1
    15    8    9 1
    16    8   11 1
    17    9   10 2
    18    9   28 1
    19   11   16 ar
    20   11   12 ar
    21   12   13 ar
    22   12   29 1
    23   13   14 ar
    24   13   30 1
    25   14   15 ar
    26   14   22 1
    27   15   16 ar
    28   15   31 1
    29   16   17 1
    30   17   18 2
    31   17   19 am
    32   19   20 1
    33   19   21 1
    34   20   32 1
    35   20   33 1
    36   21   34 1
    37   21   35 1
    38   21   36 1
@<TRIPOS>MOLECULE
ZINC29046739
   41    43     0     0     0
SMALL
USER_CHARGES

@<TRIPOS>ATOM
      1 C1         -0.0316    1.4895    0.0447 C.3       1 <0>        -0.0895
      2 C2         -0.0096   -0.0173    0.0271 C.2       1 <0>         0.1063
      3 C3          0.0012   -0.8236   -1.1177 C.2       1 <0>        -0.2717
      4 C4          0.0211   -2.1265   -0.7148 C.2       1 <0>         0.1200
      5 O1          0.0227   -2.1378    0.6317 O.3       1 <0>        -0.0783
      6 N1          0.0083   -0.7934    1.0761 N.2       1 <0>        -0.3165
      7 C5          0.0371   -3.3092   -1.5949 C.2       1 <0>        -0.2761
      8 C6          1.1211   -4.1393   -1.6032 C.2       1 <0>         0.2631
      9 N2          2.1878   -3.8747   -0.7985 N.pl3     1 <0>        -0.6330
     10 C7          3.2976   -4.7245   -0.8070 C.ar      1 <0>         0.1572
     11 C8          3.3165   -5.8361   -1.6399 C.ar      1 <0>        -0.1515
     12 C9          4.4142   -6.6740   -1.6463 C.ar      1 <0>        -0.0691
     13 C10         5.4946   -6.4074   -0.8236 C.ar      1 <0>        -0.0595
     14 C11         5.4786   -5.3006    0.0072 C.ar      1 <0>        -0.0709
     15 C12         4.3862   -4.4559    0.0132 C.ar      1 <0>        -0.1421
     16 Cl1         6.8724   -7.4635   -0.8334 Cl        1 <0>        -0.0617
     17 C13        -1.1116   -3.5942   -2.4615 C.2       1 <0>         0.5949
     18 O2         -1.0983   -4.5706   -3.1881 O.2       1 <0>        -0.5279
     19 N3         -2.1816   -2.7748   -2.4533 N.am      1 <0>        -0.6701
     20 C14        -3.2349   -2.9906   -3.3484 C.ar      1 <0>         0.1521
     21 C15        -3.9193   -1.9107   -3.8907 C.ar      1 <0>        -0.1329
     22 C16        -4.9584   -2.1266   -4.7745 C.ar      1 <0>        -0.0905
     23 C17        -5.3177   -3.4176   -5.1198 C.ar      1 <0>        -0.0498
     24 C18        -4.6377   -4.4955   -4.5806 C.ar      1 <0>        -0.0907
     25 C19        -3.5941   -4.2851   -3.7008 C.ar      1 <0>        -0.1078
     26 Cl2        -6.6243   -3.6854   -6.2310 Cl        1 <0>        -0.0692
     27 H1          0.9906    1.8678    0.0430 H         1 <0>         0.0913
     28 H2         -0.5560    1.8555   -0.8379 H         1 <0>         0.0898
     29 H3         -0.5454    1.8348    0.9419 H         1 <0>         0.0839
     30 H4         -0.0056   -0.4752   -2.1399 H         1 <0>         0.1628
     31 H5          1.1329   -5.0057   -2.2479 H         1 <0>         0.1833
     32 H6          2.1773   -3.0965   -0.2194 H         1 <0>         0.4165
     33 H7          2.4733   -6.0451   -2.2816 H         1 <0>         0.1417
     34 H8          4.4293   -7.5384   -2.2936 H         1 <0>         0.1436
     35 H9          6.3231   -5.0950    0.6481 H         1 <0>         0.1425
     36 H10         4.3762   -3.5897    0.6581 H         1 <0>         0.1381
     37 H11        -2.2214   -2.0354   -1.8267 H         1 <0>         0.4114
     38 H12        -3.6395   -0.9030   -3.6212 H         1 <0>         0.1347
     39 H13        -5.4912   -1.2872   -5.1962 H         1 <0>         0.1380
     40 H14        -4.9204   -5.5020   -4.8515 H         1 <0>         0.1378
     41 H15        -3.0609   -5.1265   -3.2836 H         1 <0>         0.1501
@<TRIPOS>BOND
     1    1    2 1
     2    1   27 1
     3    1   28 1
     4    1   29 1
     5    2    6 2
     6    2    3 1
     7    3    4 2
     8    3   30 1
     9    4    5 1
    10    4    7 1
    11    5    6 1
    12    7    8 2
    13    7   17 1
    14    8    9 1
    15    8   31 1
    16    9   10 1
    17    9   32 1
    18   10   15 ar
    19   10   11 ar
    20   11   12 ar
    21   11   33 1
    22   12   13 ar
    23   12   34 1
    24   13   14 ar
    25   13   16 1
    26   14   15 ar
    27   14   35 1
    28   15   36 1
    29   17   18 2
    30   17   19 am
    31   19   20 1
    32   19   37 1
    33   20   25 ar
    34   20   21 ar
    35   21   22 ar
    36   21   38 1
    37   22   23 ar
    38   22   39 1
    39   23   24 ar
    40   23   26 1
    41   24   25 ar
    42   24   40 1
    43   25   41 1
@<TRIPOS>MOLECULE
ZINC29046739
   41    43     0     0     0
SMALL
USER_CHARGES

@<TRIPOS>ATOM
      1 C1          0.0315    1.4010    0.2079 C.3       1 <0>        -0.0890
      2 C2          0.0850   -0.1046    0.1711 C.2       1 <0>         0.1055
      3 C3          0.1394   -0.8950   -0.9836 C.2       1 <0>        -0.2796
      4 C4          0.1767   -2.2025   -0.5975 C.2       1 <0>         0.1434
      5 O1          0.1467   -2.2320    0.7485 O.3       1 <0>        -0.0728
      6 N1          0.0941   -0.8944    1.2099 N.2       1 <0>        -0.3176
      7 C5          0.2378   -3.3726   -1.4923 C.2       1 <0>        -0.2924
      8 C6          1.3385   -4.1803   -1.4856 C.2       1 <0>         0.2700
      9 N2          1.3513   -5.3203   -2.2310 N.pl3     1 <0>        -0.6193
     10 C7          2.4291   -6.2053   -2.1363 C.ar      1 <0>         0.1540
     11 C8          3.4853   -5.9263   -1.2782 C.ar      1 <0>        -0.1569
     12 C9          4.5489   -6.8023   -1.1867 C.ar      1 <0>        -0.0707
     13 C10         4.5634   -7.9572   -1.9492 C.ar      1 <0>        -0.0609
     14 C11         3.5125   -8.2377   -2.8049 C.ar      1 <0>        -0.0715
     15 C12         2.4435   -7.3683   -2.8959 C.ar      1 <0>        -0.1385
     16 Cl1         5.9026   -9.0557   -1.8324 Cl        1 <0>        -0.0635
     17 C13        -0.8840   -3.6690   -2.3897 C.2       1 <0>         0.5935
     18 O2         -0.8780   -4.6880   -3.0554 O.2       1 <0>        -0.5423
     19 N3         -1.9214   -2.8130   -2.4772 N.am      1 <0>        -0.6653
     20 C14        -2.9467   -3.0485   -3.3995 C.ar      1 <0>         0.1481
     21 C15        -3.5668   -1.9821   -4.0376 C.ar      1 <0>        -0.1310
     22 C16        -4.5784   -2.2174   -4.9479 C.ar      1 <0>        -0.0902
     23 C17        -4.9743   -3.5142   -5.2244 C.ar      1 <0>        -0.0485
     24 C18        -4.3584   -4.5786   -4.5897 C.ar      1 <0>        -0.0911
     25 C19        -3.3424   -4.3492   -3.6828 C.ar      1 <0>        -0.1075
     26 Cl2        -6.2462   -3.8064   -6.3692 Cl        1 <0>        -0.0677
     27 H1          1.0454    1.8000    0.2355 H         1 <0>         0.0910
     28 H2         -0.4794    1.7683   -0.6822 H         1 <0>         0.0887
     29 H3         -0.5103    1.7237    1.0970 H         1 <0>         0.0831
     30 H4          0.1495   -0.5328   -2.0010 H         1 <0>         0.1613
     31 H5          2.1992   -3.9154   -0.8893 H         1 <0>         0.1671
     32 H6          0.6124   -5.5181   -2.8276 H         1 <0>         0.4329
     33 H7          3.4748   -5.0249   -0.6834 H         1 <0>         0.1373
     34 H8          5.3703   -6.5859   -0.5197 H         1 <0>         0.1416
     35 H9          3.5265   -9.1397   -3.3988 H         1 <0>         0.1422
     36 H10         1.6214   -7.5902   -3.5603 H         1 <0>         0.1403
     37 H11        -1.9571   -2.0337   -1.9008 H         1 <0>         0.4148
     38 H12        -3.2585   -0.9698   -3.8219 H         1 <0>         0.1359
     39 H13        -5.0612   -1.3885   -5.4441 H         1 <0>         0.1389
     40 H14        -4.6695   -5.5897   -4.8070 H         1 <0>         0.1379
     41 H15        -2.8591   -5.1804   -3.1909 H         1 <0>         0.1489
@<TRIPOS>BOND
     1    1    2 1
     2    1   27 1
     3    1   28 1
     4    1   29 1
     5    2    6 2
     6    2    3 1
     7    3    4 2
     8    3   30 1
     9    4    5 1
    10    4    7 1
    11    5    6 1
    12    7    8 2
    13    7   17 1
    14    8    9 1
    15    8   31 1
    16    9   10 1
    17    9   32 1
    18   10   15 ar
    19   10   11 ar
    20   11   12 ar
    21   11   33 1
    22   12   13 ar
    23   12   34 1
    24   13   14 ar
    25   13   16 1
    26   14   15 ar
    27   14   35 1
    28   15   36 1
    29   17   18 2
    30   17   19 am
    31   19   20 1
    32   19   37 1
    33   20   25 ar
    34   20   21 ar
    35   21   22 ar
    36   21   38 1
    37   22   23 ar
    38   22   39 1
    39   23   24 ar
    40   23   26 1
    41   24   25 ar
    42   24   40 1
    43   25   41 1
@<TRIPOS>MOLECULE
ZINC03813003
   32    34     0     0     0
SMALL
USER_CHARGES
6-(2-chlorophenyl)-9-nitro-2,5-diazabicyclo[5.4.0]undeca-5,7,9,11-tetraen-3-one
@<TRIPOS>ATOM
      1 C1         -0.9263    2.6093    1.0664 C.ar      1 <0>        -0.1113
      2 C2         -1.2194    1.7464    0.0248 C.ar      1 <0>        -0.0882
      3 C3         -0.3364    1.6002   -1.0293 C.ar      1 <0>        -0.1087
      4 C4          0.8504    2.3075   -1.0426 C.ar      1 <0>        -0.0117
      5 C5          1.1536    3.1748    0.0081 C.ar      1 <0>        -0.0589
      6 C6          0.2552    3.3212    1.0652 C.ar      1 <0>        -0.0703
      7 C7          2.4236    3.9367    0.0005 C.2       1 <0>         0.2679
      8 N1          2.3488    5.2171   -0.0965 N.2       1 <0>        -0.4640
      9 C8          3.5433    6.0613   -0.1155 C.3       1 <0>         0.0173
     10 C9          4.3425    5.7386   -1.3485 C.2       1 <0>         0.5139
     11 O1          4.5038    6.5976   -2.1894 O.2       1 <0>        -0.4972
     12 N2          4.8775    4.5351   -1.5405 N.am      1 <0>        -0.6621
     13 C10         4.8170    3.4830   -0.6398 C.ar      1 <0>         0.2310
     14 C11         3.6768    3.1720    0.0986 C.ar      1 <0>        -0.1270
     15 C12         3.7066    2.0828    0.9824 C.ar      1 <0>         0.0090
     16 C13         4.8482    1.3279    1.1230 C.ar      1 <0>        -0.0573
     17 C14         5.9805    1.6403    0.3896 C.ar      1 <0>        -0.0148
     18 C15         5.9663    2.7060   -0.4835 C.ar      1 <0>        -0.1418
     19 N3          4.8662    0.1814    2.0592 N.pl3     1 <0>         0.0285
     20 O2          3.8706   -0.0934    2.7047 O.2       1 <0>        -0.1516
     21 O3          5.8767   -0.4871    2.1840 O.3       1 <0>        -0.1507
     22 Cl1         1.9618    2.1175   -2.3626 Cl        1 <0>        -0.0619
     23 H1         -1.6223    2.7222    1.8844 H         1 <0>         0.1389
     24 H2         -2.1437    1.1878    0.0333 H         1 <0>         0.1393
     25 H3         -0.5727    0.9284   -1.8412 H         1 <0>         0.1406
     26 H4          0.4843    3.9905    1.8812 H         1 <0>         0.1385
     27 H5          4.1458    5.8660    0.7715 H         1 <0>         0.1004
     28 H6          3.2510    7.1112   -0.1344 H         1 <0>         0.1410
     29 H7          5.3466    4.3823   -2.3756 H         1 <0>         0.4193
     30 H8          2.8264    1.8351    1.5571 H         1 <0>         0.1644
     31 H9          6.8762    1.0474    0.5020 H         1 <0>         0.1668
     32 H10         6.8534    2.9432   -1.0520 H         1 <0>         0.1605
@<TRIPOS>BOND
     1    1    6 ar
     2    1    2 ar
     3    1   23 1
     4    2    3 ar
     5    2   24 1
     6    3    4 ar
     7    3   25 1
     8    4    5 ar
     9    4   22 1
    10    5    6 ar
    11    5    7 1
    12    6   26 1
    13    7   14 1
    14    7    8 2
    15    8    9 1
    16    9   10 1
    17    9   27 1
    18    9   28 1
    19   10   11 2
    20   10   12 am
    21   12   13 1
    22   12   29 1
    23   13   18 ar
    24   13   14 ar
    25   14   15 ar
    26   15   16 ar
    27   15   30 1
    28   16   17 ar
    29   16   19 1
    30   17   18 ar
    31   17   31 1
    32   18   32 1
    33   19   20 2
    34   19   21 1
@<TRIPOS>MOLECULE
ZINC03984030
   58    63     0     0     0
SMALL
USER_CHARGES
8-[5-(5,7-dihydroxy-4-oxo-chromen-2-yl)-2-hydroxy-phenyl]-5,7-dihydroxy-2-(4-hydroxyphenyl)chromen-4-one
@<TRIPOS>ATOM
      1 C1         -6.6020    1.8042    6.0990 C.ar      1 <0>        -0.0607
      2 C2         -5.9382    1.4440    7.2507 C.ar      1 <0>        -0.1468
      3 C3         -4.7115    0.7954    7.1742 C.ar      1 <0>         0.1378
      4 C4         -4.1521    0.5021    5.9364 C.ar      1 <0>        -0.1491
      5 C5         -4.8118    0.8534    4.7796 C.ar      1 <0>        -0.0601
      6 C6         -6.0457    1.5059    4.8519 C.ar      1 <0>        -0.0854
      7 C7         -6.7560    1.8841    3.6156 C.2       1 <0>         0.2075
      8 C8         -7.9553    2.5182    3.7175 C.2       1 <0>        -0.3096
      9 C9         -8.6505    2.8878    2.5419 C.2       1 <0>         0.4236
     10 O1         -9.7281    3.4581    2.5954 O.2       1 <0>        -0.4510
     11 C10        -8.0226    2.5578    1.2508 C.ar      1 <0>        -0.2639
     12 C11        -8.6408    2.8871    0.0370 C.ar      1 <0>         0.2260
     13 C12        -8.0238    2.5633   -1.1580 C.ar      1 <0>        -0.2031
     14 C13        -6.7962    1.9146   -1.1593 C.ar      1 <0>         0.2147
     15 C14        -6.1693    1.5806    0.0441 C.ar      1 <0>        -0.1114
     16 C15        -6.7847    1.8965    1.2584 C.ar      1 <0>         0.1942
     17 O2         -6.1949    1.5893    2.4322 O.3       1 <0>        -0.2149
     18 C16        -4.8586    0.8881    0.0326 C.ar      1 <0>        -0.0643
     19 C17        -3.6811    1.6258    0.0345 C.ar      1 <0>        -0.0359
     20 C18        -2.4507    0.9671    0.0193 C.ar      1 <0>        -0.0795
     21 C19        -2.4076   -0.4306    0.0120 C.ar      1 <0>        -0.0561
     22 C20        -3.5773   -1.1593    0.0145 C.ar      1 <0>        -0.1433
     23 C21        -4.8042   -0.5114    0.0247 C.ar      1 <0>         0.1513
     24 O3         -5.9530   -1.2346    0.0276 O.3       1 <0>        -0.4914
     25 C22        -1.1969    1.7446    0.0172 C.2       1 <0>         0.2090
     26 C23        -0.0126    1.0758    0.0080 C.2       1 <0>        -0.3096
     27 C24         1.2002    1.8049    0.0003 C.2       1 <0>         0.4229
     28 O4          2.2808    1.2378   -0.0122 O.2       1 <0>        -0.4531
     29 C25         1.1075    3.2746    0.0085 C.ar      1 <0>        -0.2660
     30 C26         2.2563    4.0758    0.0013 C.ar      1 <0>         0.2193
     31 C27         2.1265    5.4522    0.0089 C.ar      1 <0>        -0.2047
     32 C28         0.8637    6.0348    0.0232 C.ar      1 <0>         0.1929
     33 C29        -0.2774    5.2478    0.0309 C.ar      1 <0>        -0.1830
     34 C30        -0.1673    3.8660    0.0234 C.ar      1 <0>         0.1835
     35 O5         -1.2685    3.0851    0.0294 O.3       1 <0>        -0.2179
     36 O6          0.7475    7.3873    0.0302 O.3       1 <0>        -0.4872
     37 O7          3.4876    3.5054   -0.0136 O.3       1 <0>        -0.4723
     38 O8         -6.2009    1.6021   -2.3382 O.3       1 <0>        -0.4809
     39 O9         -9.8401    3.5219    0.0339 O.3       1 <0>        -0.4713
     40 O10        -4.0576    0.4477    8.3120 O.3       1 <0>        -0.4966
     41 H1         -7.5530    2.3125    6.1593 H         1 <0>         0.1416
     42 H2         -6.3694    1.6701    8.2147 H         1 <0>         0.1417
     43 H3         -3.1984   -0.0018    5.8814 H         1 <0>         0.1389
     44 H4         -4.3761    0.6254    3.8180 H         1 <0>         0.1375
     45 H5         -8.3735    2.7383    4.6886 H         1 <0>         0.1643
     46 H6         -8.4990    2.8165   -2.0942 H         1 <0>         0.1534
     47 H7         -3.7179    2.7051    0.0447 H         1 <0>         0.1398
     48 H8         -1.4554   -0.9401    0.0047 H         1 <0>         0.1436
     49 H9         -3.5389   -2.2386    0.0088 H         1 <0>         0.1450
     50 H10        -6.2808   -1.4486    0.9118 H         1 <0>         0.3974
     51 H11         0.0021   -0.0041    0.0020 H         1 <0>         0.1641
     52 H12         3.0078    6.0765    0.0034 H         1 <0>         0.1502
     53 H13        -1.2527    5.7115    0.0424 H         1 <0>         0.1530
     54 H14         0.7056    7.7831   -0.8511 H         1 <0>         0.4041
     55 H15         3.8358    3.3444   -0.9013 H         1 <0>         0.4032
     56 H16        -6.4413    0.7307   -2.6814 H         1 <0>         0.4051
     57 H17       -10.6010    2.9252    0.0313 H         1 <0>         0.4046
     58 H18        -3.4554    1.1280    8.6431 H         1 <0>         0.3992
@<TRIPOS>BOND
     1    1    6 ar
     2    1    2 ar
     3    1   41 1
     4    2    3 ar
     5    2   42 1
     6    3    4 ar
     7    3   40 1
     8    4    5 ar
     9    4   43 1
    10    5    6 ar
    11    5   44 1
    12    6    7 1
    13    7   17 1
    14    7    8 2
    15    8    9 1
    16    8   45 1
    17    9   10 2
    18    9   11 1
    19   11   16 ar
    20   11   12 ar
    21   12   13 ar
    22   12   39 1
    23   13   14 ar
    24   13   46 1
    25   14   15 ar
    26   14   38 1
    27   15   16 ar
    28   15   18 1
    29   16   17 1
    30   18   23 ar
    31   18   19 ar
    32   19   20 ar
    33   19   47 1
    34   20   21 ar
    35   20   25 1
    36   21   22 ar
    37   21   48 1
    38   22   23 ar
    39   22   49 1
    40   23   24 1
    41   24   50 1
    42   25   35 1
    43   25   26 2
    44   26   27 1
    45   26   51 1
    46   27   28 2
    47   27   29 1
    48   29   34 ar
    49   29   30 ar
    50   30   31 ar
    51   30   37 1
    52   31   32 ar
    53   31   52 1
    54   32   33 ar
    55   32   36 1
    56   33   34 ar
    57   33   53 1
    58   34   35 1
    59   36   54 1
    60   37   55 1
    61   38   56 1
    62   39   57 1
    63   40   58 1
@<TRIPOS>MOLECULE
ZINC08022464
   38    40     0     0     0
SMALL
USER_CHARGES

@<TRIPOS>ATOM
      1 C1         -0.0187    1.5258    0.0104 C.3       1 <0>        -0.1527
      2 C2          0.0021   -0.0041    0.0020 C.3       1 <0>         0.0595
      3 O1         -1.3386   -0.4987    0.0122 O.3       1 <0>        -0.3297
      4 C3         -1.4970   -1.8372    0.0065 C.2       1 <0>         0.5595
      5 O2         -0.5232   -2.5645   -0.0067 O.2       1 <0>        -0.5061
      6 C4         -2.8493   -2.4183    0.0163 C.2       1 <0>        -0.0223
      7 C5         -3.1572   -3.7440    0.0176 C.2       1 <0>         0.0529
      8 N1         -4.5098   -3.8422   -0.0019 N.pl3     1 <0>        -0.4007
      9 C6         -5.0125   -2.5749    0.0269 C.2       1 <0>         0.2090
     10 N2         -4.0223   -1.7294    0.0316 N.2       1 <0>        -0.4292
     11 C7         -5.2470   -5.0194   -0.0763 C.ar      1 <0>         0.1269
     12 C8         -6.4275   -4.9909   -0.8316 C.ar      1 <0>        -0.0818
     13 C9         -7.1865   -6.1051   -0.9933 C.ar      1 <0>        -0.1435
     14 C10        -6.7542   -7.3589   -0.3739 C.ar      1 <0>         0.1203
     15 C11        -5.5756   -7.3656    0.4064 C.ar      1 <0>        -0.0319
     16 C12        -4.8343   -6.1951    0.5695 C.ar      1 <0>        -0.0792
     17 C13        -3.6625   -6.2605    1.4492 C.2       1 <0>         0.5508
     18 O3         -3.7869   -6.9116    2.4683 O.2       1 <0>        -0.5250
     19 N3         -2.4776   -5.6856    1.2545 N.am      1 <0>        -0.5961
     20 C14        -2.1928   -4.9017    0.0473 C.3       1 <0>         0.1632
     21 C15        -1.4330   -5.8389    2.2702 C.3       1 <0>         0.0755
     22 N4         -7.4567   -8.4695   -0.5416 N.2       1 <0>        -0.3371
     23 N5         -8.3928   -8.4539   -1.1636 N.1       1 <0>         0.2975
     24 N6         -9.3089   -8.4387   -1.7723 N.1       1 <0>        -0.0989
     25 H1          1.0039    1.9031    0.0027 H         1 <0>         0.0813
     26 H2         -0.5459    1.8868   -0.8726 H         1 <0>         0.0680
     27 H3         -0.5289    1.8773    0.9072 H         1 <0>         0.0679
     28 H4          0.5123   -0.3556   -0.8948 H         1 <0>         0.0705
     29 H5          0.5293   -0.3651    0.8851 H         1 <0>         0.0701
     30 H6         -6.0606   -2.3150    0.0466 H         1 <0>         0.2257
     31 H7         -6.7392   -4.0656   -1.2931 H         1 <0>         0.1496
     32 H8         -8.0979   -6.0666   -1.5715 H         1 <0>         0.1411
     33 H9         -5.2477   -8.2802    0.8780 H         1 <0>         0.1627
     34 H10        -2.3324   -5.5221   -0.8379 H         1 <0>         0.0975
     35 H11        -1.1689   -4.5293    0.0812 H         1 <0>         0.1469
     36 H12        -1.8122   -6.4455    3.0926 H         1 <0>         0.0979
     37 H13        -0.5652   -6.3282    1.8279 H         1 <0>         0.0724
     38 H14        -1.1445   -4.8572    2.6457 H         1 <0>         0.0675
@<TRIPOS>BOND
     1    1    2 1
     2    1   25 1
     3    1   26 1
     4    1   27 1
     5    2    3 1
     6    2   28 1
     7    2   29 1
     8    3    4 1
     9    4    5 2
    10    4    6 1
    11    6   10 1
    12    6    7 2
    13    7   20 1
    14    7    8 1
    15    8    9 1
    16    8   11 1
    17    9   10 2
    18    9   30 1
    19   11   16 ar
    20   11   12 ar
    21   12   13 ar
    22   12   31 1
    23   13   14 ar
    24   13   32 1
    25   14   15 ar
    26   14   22 1
    27   15   16 ar
    28   15   33 1
    29   16   17 1
    30   17   18 2
    31   17   19 am
    32   19   20 1
    33   19   21 1
    34   20   34 1
    35   20   35 1
    36   21   36 1
    37   21   37 1
    38   21   38 1
    39   22   23 2
    40   23   24 2
@<TRIPOS>MOLECULE
ZINC00004507
   44    46     0     0     0
SMALL
USER_CHARGES
N-[[8-(4-chlorophenyl)-6,9-diazabicyclo[4.3.0]nona-2,4,7,9-tetraen-7-yl]methyl]-N-methyl-butanamide
@<TRIPOS>ATOM
      1 C1         -0.6800    2.0236   -6.0871 C.3       1 <0>        -0.1535
      2 C2         -0.1406    2.3962   -4.7046 C.3       1 <0>        -0.1084
      3 C3          1.3542    2.0773   -4.6374 C.3       1 <0>        -0.1377
      4 C4          1.8855    2.4443   -3.2757 C.2       1 <0>         0.5103
      5 O1          1.1416    2.9146   -2.4412 O.2       1 <0>        -0.5108
      6 N1          3.1871    2.2498   -2.9853 N.am      1 <0>        -0.6201
      7 C5          4.0856    1.6817   -3.9934 C.3       1 <0>         0.0746
      8 C6          3.7035    2.6066   -1.6616 C.3       1 <0>         0.1904
      9 C7          3.5807    1.4219   -0.7384 C.2       1 <0>        -0.0750
     10 C8          2.5776    1.1916    0.1540 C.2       1 <0>         0.1234
     11 N2          2.8284    0.0308    0.7799 N.2       1 <0>        -0.4798
     12 C9          3.9606   -0.4765    0.3154 C.2       1 <0>         0.2311
     13 N3          4.4565    0.3775   -0.6362 N.pl3     1 <0>        -0.3515
     14 C10         5.6249    0.0901   -1.2813 C.2       1 <0>         0.0517
     15 C11         6.3103   -1.0362   -0.9934 C.2       1 <0>        -0.1370
     16 C12         5.8282   -1.9309   -0.0236 C.2       1 <0>        -0.1000
     17 C13         4.6653   -1.6575    0.6267 C.2       1 <0>        -0.0772
     18 C14         1.4051    2.0703    0.3895 C.ar      1 <0>         0.0078
     19 C15         1.5733    3.4504    0.4826 C.ar      1 <0>        -0.0763
     20 C16         0.4807    4.2628    0.7073 C.ar      1 <0>        -0.1032
     21 C17        -0.7824    3.7097    0.8297 C.ar      1 <0>        -0.0244
     22 C18        -0.9548    2.3391    0.7380 C.ar      1 <0>        -0.1081
     23 C19         0.1323    1.5179    0.5186 C.ar      1 <0>        -0.0720
     24 Cl1        -2.1539    4.7375    1.1063 Cl        1 <0>        -0.0740
     25 H1         -1.7450    2.2508   -6.1349 H         1 <0>         0.0589
     26 H2         -0.1517    2.5960   -6.8495 H         1 <0>         0.0540
     27 H3         -0.5275    0.9585   -6.2616 H         1 <0>         0.0533
     28 H4         -0.6689    1.8238   -3.9421 H         1 <0>         0.0689
     29 H5         -0.2931    3.4613   -4.5301 H         1 <0>         0.0700
     30 H6          1.8825    2.6497   -5.3999 H         1 <0>         0.0918
     31 H7          1.5067    1.0122   -4.8120 H         1 <0>         0.0890
     32 H8          4.0915    0.5954   -3.9040 H         1 <0>         0.0528
     33 H9          3.7395    1.9625   -4.9881 H         1 <0>         0.0791
     34 H10         5.0943    2.0645   -3.8381 H         1 <0>         0.0708
     35 H11         3.1287    3.4412   -1.2602 H         1 <0>         0.1161
     36 H12         4.7515    2.8944   -1.7459 H         1 <0>         0.0845
     37 H13         6.0047    0.7709   -2.0287 H         1 <0>         0.1590
     38 H14         7.2334   -1.2509   -1.5112 H         1 <0>         0.1527
     39 H15         6.3784   -2.8318    0.2044 H         1 <0>         0.1451
     40 H16         4.2857   -2.3381    1.3744 H         1 <0>         0.1530
     41 H17         2.5579    3.8831    0.3836 H         1 <0>         0.1260
     42 H18         0.6108    5.3322    0.7841 H         1 <0>         0.1327
     43 H19        -1.9416    1.9119    0.8386 H         1 <0>         0.1328
     44 H20        -0.0030    0.4488    0.4476 H         1 <0>         0.1291
@<TRIPOS>BOND
     1    1    2 1
     2    1   25 1
     3    1   26 1
     4    1   27 1
     5    2    3 1
     6    2   28 1
     7    2   29 1
     8    3    4 1
     9    3   30 1
    10    3   31 1
    11    4    5 2
    12    4    6 am
    13    6    7 1
    14    6    8 1
    15    7   32 1
    16    7   33 1
    17    7   34 1
    18    8    9 1
    19    8   35 1
    20    8   36 1
    21    9   13 1
    22    9   10 2
    23   10   11 1
    24   10   18 1
    25   11   12 2
    26   12   17 1
    27   12   13 1
    28   13   14 1
    29   14   15 2
    30   14   37 1
    31   15   16 1
    32   15   38 1
    33   16   17 2
    34   16   39 1
    35   17   40 1
    36   18   23 ar
    37   18   19 ar
    38   19   20 ar
    39   19   41 1
    40   20   21 ar
    41   20   42 1
    42   21   22 ar
    43   21   24 1
    44   22   23 ar
    45   22   43 1
    46   23   44 1
@<TRIPOS>MOLECULE
ZINC00004507
   45    47     0     0     0
SMALL
USER_CHARGES
N-[[8-(4-chlorophenyl)-6,9-diazabicyclo[4.3.0]nona-2,4,7,9-tetraen-7-yl]methyl]-N-methyl-butanamide
@<TRIPOS>ATOM
      1 C1         -0.6800    2.0236   -6.0871 C.3       1 <0>        -0.1563
      2 C2         -0.1406    2.3962   -4.7046 C.3       1 <0>        -0.1083
      3 C3          1.3542    2.0773   -4.6374 C.3       1 <0>        -0.1391
      4 C4          1.8855    2.4443   -3.2757 C.2       1 <0>         0.5143
      5 O1          1.1416    2.9146   -2.4412 O.2       1 <0>        -0.5090
      6 N1          3.1871    2.2498   -2.9853 N.am      1 <0>        -0.6239
      7 C5          4.0856    1.6817   -3.9934 C.3       1 <0>         0.0674
      8 C6          3.7035    2.6066   -1.6616 C.3       1 <0>         0.1782
      9 C7          3.5807    1.4219   -0.7384 C.2       1 <0>        -0.0159
     10 C8          2.5776    1.1916    0.1540 C.2       1 <0>         0.1750
     11 C9          3.9606   -0.4765    0.3154 C.cat     1 <0>         0.3079
     12 N2          4.4565    0.3775   -0.6362 N.pl3     1 <0>        -0.3168
     13 C10         5.6249    0.0901   -1.2813 C.2       1 <0>         0.0785
     14 C11         6.3103   -1.0362   -0.9934 C.2       1 <0>        -0.1087
     15 C12         5.8282   -1.9309   -0.0236 C.2       1 <0>        -0.0206
     16 C13         4.6653   -1.6575    0.6267 C.2       1 <0>        -0.1203
     17 C14         1.4051    2.0703    0.3895 C.ar      1 <0>        -0.0604
     18 C15         1.5733    3.4504    0.4826 C.ar      1 <0>        -0.0515
     19 C16         0.4807    4.2628    0.7073 C.ar      1 <0>        -0.0974
     20 C17        -0.7824    3.7097    0.8297 C.ar      1 <0>         0.0001
     21 C18        -0.9548    2.3391    0.7380 C.ar      1 <0>        -0.1019
     22 C19         0.1323    1.5179    0.5186 C.ar      1 <0>        -0.0724
     23 Cl1        -2.1539    4.7375    1.1063 Cl        1 <0>        -0.0433
     24 H1         -1.7450    2.2508   -6.1349 H         1 <0>         0.0624
     25 H2         -0.1517    2.5960   -6.8495 H         1 <0>         0.0572
     26 H3         -0.5275    0.9585   -6.2616 H         1 <0>         0.0544
     27 H4         -0.6689    1.8238   -3.9421 H         1 <0>         0.0672
     28 H5         -0.2931    3.4613   -4.5301 H         1 <0>         0.0718
     29 H6          1.8825    2.6497   -5.3999 H         1 <0>         0.0986
     30 H7          1.5067    1.0122   -4.8120 H         1 <0>         0.0924
     31 H8          4.0915    0.5954   -3.9040 H         1 <0>         0.0553
     32 H9          3.7395    1.9625   -4.9881 H         1 <0>         0.0893
     33 H10         5.0943    2.0645   -3.8381 H         1 <0>         0.0773
     34 H11         3.1287    3.4412   -1.2602 H         1 <0>         0.1310
     35 H12         4.7515    2.8944   -1.7459 H         1 <0>         0.1080
     36 H13         6.0047    0.7709   -2.0287 H         1 <0>         0.1939
     37 H14         7.2334   -1.2509   -1.5112 H         1 <0>         0.1838
     38 H15         6.3784   -2.8318    0.2044 H         1 <0>         0.1760
     39 H16         4.2857   -2.3381    1.3744 H         1 <0>         0.1800
     40 H17         2.5579    3.8831    0.3836 H         1 <0>         0.1364
     41 H18         0.6108    5.3322    0.7841 H         1 <0>         0.1468
     42 H19        -1.9416    1.9119    0.8386 H         1 <0>         0.1456
     43 H20        -0.0030    0.4488    0.4476 H         1 <0>         0.1309
     44 N3          2.8297    0.0318    0.7783 N.pl3     1 <0>        -0.5111
     45 H21         2.2386   -0.3947    1.5014 H         1 <0>         0.4770
@<TRIPOS>BOND
     1    1    2 1
     2    1   24 1
     3    1   25 1
     4    1   26 1
     5    2    3 1
     6    2   27 1
     7    2   28 1
     8    3    4 1
     9    3   29 1
    10    3   30 1
    11    4    5 2
    12    4    6 am
    13    6    7 1
    14    6    8 1
    15    7   31 1
    16    7   32 1
    17    7   33 1
    18    8    9 1
    19    8   34 1
    20    8   35 1
    21    9   12 1
    22    9   10 2
    23   10   17 1
    24   10   44 1
    25   11   16 1
    26   11   12 1
    27   11   44 2
    28   12   13 1
    29   13   14 2
    30   13   36 1
    31   14   15 1
    32   14   37 1
    33   15   16 2
    34   15   38 1
    35   16   39 1
    36   17   22 ar
    37   17   18 ar
    38   18   19 ar
    39   18   40 1
    40   19   20 ar
    41   19   41 1
    42   20   21 ar
    43   20   23 1
    44   21   22 ar
    45   21   42 1
    46   22   43 1
    47   44   45 1
@<TRIPOS>MOLECULE
ZINC03793347
   48    51     0     0     0
SMALL
USER_CHARGES
3-[(1-methylpyrrolidin-2-yl)methyl]-N-(3-nitro-2-pyridyl)-1H-indol-5-amine
@<TRIPOS>ATOM
      1 C1          4.3520    6.6178   -3.8708 C.3       1 <0>        -0.0469
      2 C2          6.4587    5.5578   -4.4389 C.3       1 <0>        -0.0148
      3 C3          7.7401    6.3607   -4.7466 C.3       1 <0>        -0.1406
      4 C4          7.9269    7.2233   -3.4707 C.3       1 <0>        -0.1409
      5 C5          6.4592    7.5390   -3.0889 C.3       1 <0>         0.0313
      6 H1          6.0833    8.3750   -3.6787 H         1 <0>         0.1406
      7 C6          6.3530    7.8521   -1.5950 C.3       1 <0>        -0.0545
      8 C7          4.9267    8.1996   -1.2547 C.2       1 <0>        -0.2290
      9 C8          4.3999    9.4325   -1.1868 C.2       1 <0>         0.0999
     10 N1          3.0760    9.3565   -0.8506 N.pl3     1 <0>        -0.5851
     11 H2          2.4841   10.1172   -0.7414 H         1 <0>         0.4259
     12 C9          2.7086    8.0368   -0.6897 C.ar      1 <0>         0.0869
     13 C10         3.8523    7.2559   -0.9361 C.ar      1 <0>        -0.0893
     14 C11         3.7817    5.8648   -0.8409 C.ar      1 <0>        -0.1398
     15 C12         2.5807    5.2631   -0.5137 C.ar      1 <0>         0.1573
     16 C13         1.4498    6.0405   -0.2700 C.ar      1 <0>        -0.0874
     17 C14         1.5109    7.4133   -0.3568 C.ar      1 <0>        -0.0913
     18 N2          2.5016    3.8681   -0.4213 N.pl3     1 <0>        -0.6429
     19 C15         1.3342    3.2116   -0.7951 C.ar      1 <0>         0.4532
     20 C16         1.2182    1.8402   -0.5896 C.ar      1 <0>        -0.1587
     21 C17         0.0516    1.2001   -0.9662 C.ar      1 <0>         0.0340
     22 C18        -0.9620    1.9545   -1.5428 C.ar      1 <0>        -0.2160
     23 C19        -0.7815    3.3125   -1.7120 C.ar      1 <0>         0.2016
     24 N3          0.3426    3.8970   -1.3432 N.ar      1 <0>        -0.5214
     25 N4          2.3282    1.0771    0.0241 N.pl3     1 <0>         0.0480
     26 O1          2.2658   -0.1372    0.0959 O.2       1 <0>        -0.1292
     27 O2          3.3039    1.6634    0.4573 O.3       1 <0>        -0.1990
     28 H3          4.4051    7.2375   -4.7659 H         1 <0>         0.1176
     29 H4          3.8241    5.6922   -4.1005 H         1 <0>         0.1148
     30 H5          3.8181    7.1558   -3.0875 H         1 <0>         0.1324
     31 H6          6.7219    4.5697   -4.0616 H         1 <0>         0.1267
     32 H7          5.8533    5.4612   -5.3402 H         1 <0>         0.1307
     33 H8          8.5894    5.6921   -4.8875 H         1 <0>         0.1120
     34 H9          7.5973    6.9939   -5.6223 H         1 <0>         0.0982
     35 H10         8.4774    8.1371   -3.6943 H         1 <0>         0.1171
     36 H11         8.4213    6.6541   -2.6835 H         1 <0>         0.0999
     37 H12         7.0000    8.6955   -1.3536 H         1 <0>         0.1178
     38 H13         6.6621    6.9804   -1.0182 H         1 <0>         0.0919
     39 H14         4.9413   10.3489   -1.3700 H         1 <0>         0.1782
     40 H15         4.6588    5.2623   -1.0257 H         1 <0>         0.1143
     41 H16         0.5170    5.5618   -0.0110 H         1 <0>         0.1430
     42 H17         0.6285    8.0060   -0.1659 H         1 <0>         0.1330
     43 H18         3.2612    3.3597   -0.0964 H         1 <0>         0.4334
     44 H19        -0.0668    0.1367   -0.8194 H         1 <0>         0.1700
     45 H20        -1.8839    1.4841   -1.8516 H         1 <0>         0.1637
     46 H21        -1.5688    3.9036   -2.1562 H         1 <0>         0.1838
     47 N5          5.7242    6.2966   -3.3990 N.4       1 <0>        -0.3920
     48 H22         5.6610    5.7189   -2.5525 H         1 <0>         0.4214
@<TRIPOS>BOND
     1    1   28 1
     2    1   29 1
     3    1   30 1
     4    1   47 1
     5    2    3 1
     6    2   31 1
     7    2   32 1
     8    2   47 1
     9    3    4 1
    10    3   33 1
    11    3   34 1
    12    4    5 1
    13    4   35 1
    14    4   36 1
    15    5    6 1
    16    5    7 1
    17    5   47 1
    18    7    8 1
    19    7   37 1
    20    7   38 1
    21    8   13 1
    22    8    9 2
    23    9   10 1
    24    9   39 1
    25   10   11 1
    26   10   12 1
    27   12   17 ar
    28   12   13 ar
    29   13   14 ar
    30   14   15 ar
    31   14   40 1
    32   15   16 ar
    33   15   18 1
    34   16   17 ar
    35   16   41 1
    36   17   42 1
    37   18   19 1
    38   18   43 1
    39   19   24 ar
    40   19   20 ar
    41   20   21 ar
    42   20   25 1
    43   21   22 ar
    44   21   44 1
    45   22   23 ar
    46   22   45 1
    47   23   24 ar
    48   23   46 1
    49   25   26 2
    50   25   27 1
    51   47   48 1
@<TRIPOS>MOLECULE
ZINC00003876
   44    46     0     0     0
SMALL
USER_CHARGES

@<TRIPOS>ATOM
      1 C1         -0.9117    1.3819    0.8050 C.3       1 <0>        -0.1169
      2 C2         -0.6965   -0.0986    0.6235 C.ar      1 <0>        -0.0790
      3 C3          0.5861   -0.6161    0.6437 C.ar      1 <0>        -0.1207
      4 C4          0.7890   -1.9712    0.4780 C.ar      1 <0>        -0.0987
      5 C5         -0.3012   -2.8184    0.2904 C.ar      1 <0>        -0.0178
      6 C6         -1.5911   -2.2918    0.2714 C.ar      1 <0>        -0.0819
      7 C7         -1.7827   -0.9357    0.4429 C.ar      1 <0>        -0.1210
      8 C8         -0.0893   -4.2762    0.1112 C.2       1 <0>         0.1167
      9 C9          0.7803   -5.0491    0.8198 C.2       1 <0>        -0.0371
     10 N1          0.6641   -6.3246    0.3429 N.pl3     1 <0>        -0.3454
     11 C10         1.2856   -7.4928    0.6792 C.2       1 <0>         0.0517
     12 C11         0.9826   -8.6418    0.0396 C.2       1 <0>        -0.1050
     13 C12         0.0205   -8.6507   -0.9840 C.2       1 <0>        -0.0971
     14 C13        -0.6066   -7.4944   -1.3295 C.2       1 <0>        -0.0747
     15 C14        -0.2794   -6.3016   -0.6521 C.2       1 <0>         0.2302
     16 N2         -0.7258   -5.0604   -0.7732 N.2       1 <0>        -0.4775
     17 C15         1.6798   -9.9210    0.4248 C.3       1 <0>        -0.1052
     18 C16         1.6977   -4.5850    1.9216 C.3       1 <0>        -0.0616
     19 C17         3.0613   -4.2930    1.3502 C.2       1 <0>         0.5079
     20 O1          3.2678   -4.4466    0.1650 O.2       1 <0>        -0.5213
     21 N3          4.0514   -3.8612    2.1563 N.am      1 <0>        -0.6226
     22 C18         5.3769   -3.5773    1.6009 C.3       1 <0>         0.0837
     23 C19         3.8020   -3.6756    3.5880 C.3       1 <0>         0.0707
     24 H1         -1.0291    1.6046    1.8655 H         1 <0>         0.0717
     25 H2         -0.0517    1.9248    0.4128 H         1 <0>         0.0669
     26 H3         -1.8098    1.6870    0.2680 H         1 <0>         0.0678
     27 H4          1.4304    0.0415    0.7891 H         1 <0>         0.1238
     28 H5          1.7909   -2.3741    0.4932 H         1 <0>         0.1195
     29 H6         -2.4397   -2.9440    0.1264 H         1 <0>         0.1276
     30 H7         -2.7824   -0.5270    0.4324 H         1 <0>         0.1260
     31 H8          2.0271   -7.4974    1.4645 H         1 <0>         0.1559
     32 H9         -0.2198   -9.5716   -1.4945 H         1 <0>         0.1447
     33 H10        -1.3475   -7.4896   -2.1152 H         1 <0>         0.1539
     34 H11         1.1134  -10.4213    1.2103 H         1 <0>         0.0768
     35 H12         1.7486  -10.5737   -0.4455 H         1 <0>         0.0766
     36 H13         2.6819   -9.6934    0.7883 H         1 <0>         0.0691
     37 H14         1.2925   -3.6804    2.3750 H         1 <0>         0.1217
     38 H15         1.7804   -5.3652    2.6783 H         1 <0>         0.1017
     39 H16         5.4240   -2.5342    1.2880 H         1 <0>         0.0572
     40 H17         6.1365   -3.7635    2.3601 H         1 <0>         0.0719
     41 H18         5.5565   -4.2229    0.7412 H         1 <0>         0.0766
     42 H19         2.7674   -3.9347    3.8131 H         1 <0>         0.0792
     43 H20         4.4704   -4.3194    4.1596 H         1 <0>         0.0662
     44 H21         3.9825   -2.6347    3.8563 H         1 <0>         0.0678
@<TRIPOS>BOND
     1    1    2 1
     2    1   24 1
     3    1   25 1
     4    1   26 1
     5    2    7 ar
     6    2    3 ar
     7    3    4 ar
     8    3   27 1
     9    4    5 ar
    10    4   28 1
    11    5    6 ar
    12    5    8 1
    13    6    7 ar
    14    6   29 1
    15    7   30 1
    16    8   16 1
    17    8    9 2
    18    9   10 1
    19    9   18 1
    20   10   15 1
    21   10   11 1
    22   11   12 2
    23   11   31 1
    24   12   13 1
    25   12   17 1
    26   13   14 2
    27   13   32 1
    28   14   15 1
    29   14   33 1
    30   15   16 2
    31   17   34 1
    32   17   35 1
    33   17   36 1
    34   18   19 1
    35   18   37 1
    36   18   38 1
    37   19   20 2
    38   19   21 am
    39   21   22 1
    40   21   23 1
    41   22   39 1
    42   22   40 1
    43   22   41 1
    44   23   42 1
    45   23   43 1
    46   23   44 1
@<TRIPOS>MOLECULE
ZINC00003876
   45    47     0     0     0
SMALL
USER_CHARGES

@<TRIPOS>ATOM
      1 C1         -0.0184    1.5028    0.0103 C.3       1 <0>        -0.1298
      2 C2          0.0021   -0.0041    0.0020 C.ar      1 <0>        -0.0415
      3 C3          0.0057   -0.6865   -1.2011 C.ar      1 <0>        -0.1156
      4 C4          0.0244   -2.0665   -1.2146 C.ar      1 <0>        -0.0824
      5 C5          0.0401   -2.7722   -0.0132 C.ar      1 <0>        -0.0858
      6 C6          0.0368   -2.0796    1.1958 C.ar      1 <0>        -0.0737
      7 C7          0.0229   -0.6995    1.1975 C.ar      1 <0>        -0.1157
      8 C8          0.0597   -4.2561   -0.0214 C.2       1 <0>         0.1702
      9 C9         -0.7101   -5.0684    0.7552 C.2       1 <0>         0.0252
     10 N1         -0.3822   -6.3565    0.4370 N.pl3     1 <0>        -0.3091
     11 C10        -0.8325   -7.5609    0.8964 C.2       1 <0>         0.0725
     12 C11        -0.3332   -8.7143    0.4052 C.2       1 <0>        -0.0702
     13 C12         0.6596   -8.6908   -0.5884 C.2       1 <0>        -0.0204
     14 C13         1.1176   -7.4983   -1.0553 C.2       1 <0>        -0.1164
     15 C14         0.5863   -6.3013   -0.5324 C.cat     1 <0>         0.3049
     16 N2          0.8350   -5.0279   -0.7995 N.pl3     1 <0>        -0.5016
     17 C15        -0.8427  -10.0338    0.9253 C.3       1 <0>        -0.1221
     18 C16        -1.7306   -4.6296    1.7735 C.3       1 <0>        -0.0775
     19 C17        -1.0655   -4.4753    3.1170 C.2       1 <0>         0.5078
     20 O1          0.1204   -4.6997    3.2358 O.2       1 <0>        -0.5296
     21 N3         -1.7885   -4.0881    4.1864 N.am      1 <0>        -0.6101
     22 C18        -1.1420   -3.9381    5.4924 C.3       1 <0>         0.0789
     23 C19        -3.2211   -3.8170    4.0429 C.3       1 <0>         0.0651
     24 H1          1.0042    1.8801    0.0026 H         1 <0>         0.0833
     25 H2         -0.5455    1.8639   -0.8728 H         1 <0>         0.0766
     26 H3         -0.5286    1.8543    0.9071 H         1 <0>         0.0762
     27 H4         -0.0064   -0.1385   -2.1317 H         1 <0>         0.1390
     28 H5          0.0266   -2.5984   -2.1545 H         1 <0>         0.1289
     29 H6          0.0488   -2.6217    2.1299 H         1 <0>         0.1324
     30 H7          0.0244   -0.1616    2.1340 H         1 <0>         0.1378
     31 H8         -1.5953   -7.5907    1.6603 H         1 <0>         0.1924
     32 H9          1.0577   -9.6154   -0.9795 H         1 <0>         0.1759
     33 H10         1.8809   -7.4684   -1.8188 H         1 <0>         0.1817
     34 H11        -1.6926  -10.3574    0.3245 H         1 <0>         0.0964
     35 H12        -0.0496  -10.7791    0.8641 H         1 <0>         0.0930
     36 H13        -1.1542   -9.9192    1.9635 H         1 <0>         0.0856
     37 H14        -2.1604   -3.6752    1.4692 H         1 <0>         0.1397
     38 H15        -2.5200   -5.3780    1.8427 H         1 <0>         0.1237
     39 H16        -0.7740   -2.9178    5.6007 H         1 <0>         0.0640
     40 H17        -1.8635   -4.1498    6.2815 H         1 <0>         0.0798
     41 H18        -0.3073   -4.6352    5.5668 H         1 <0>         0.0805
     42 H19        -3.7840   -4.7329    4.2229 H         1 <0>         0.0675
     43 H20        -3.5214   -3.0581    4.7652 H         1 <0>         0.0860
     44 H21        -3.4237   -3.4585    3.0337 H         1 <0>         0.0751
     45 H22         1.4768   -4.7047   -1.4511 H         1 <0>         0.4614
@<TRIPOS>BOND
     1    1    2 1
     2    1   24 1
     3    1   25 1
     4    1   26 1
     5    2    7 ar
     6    2    3 ar
     7    3    4 ar
     8    3   27 1
     9    4    5 ar
    10    4   28 1
    11    5    6 ar
    12    5    8 1
    13    6    7 ar
    14    6   29 1
    15    7   30 1
    16    8   16 1
    17    8    9 2
    18    9   10 1
    19    9   18 1
    20   10   15 1
    21   10   11 1
    22   11   12 2
    23   11   31 1
    24   12   13 1
    25   12   17 1
    26   13   14 2
    27   13   32 1
    28   14   15 1
    29   14   33 1
    30   15   16 2
    31   16   45 1
    32   17   34 1
    33   17   35 1
    34   17   36 1
    35   18   19 1
    36   18   37 1
    37   18   38 1
    38   19   20 2
    39   19   21 am
    40   21   22 1
    41   21   23 1
    42   22   39 1
    43   22   40 1
    44   22   41 1
    45   23   42 1
    46   23   43 1
    47   23   44 1
@<TRIPOS>MOLECULE
ZINC01532620
   16    15     0     0     0
SMALL
USER_CHARGES

@<TRIPOS>ATOM
      1 C1         -0.0187    1.5258    0.0104 C.3       1 <0>        -0.1250
      2 C2          0.0021   -0.0041    0.0020 C.3       1 <0>        -0.1856
      3 C3         -1.4117   -0.5257    0.0127 C.2       1 <0>         0.4870
      4 O1         -2.3491    0.2539    0.0259 O.co2     1 <0>        -0.6970
      5 O2         -1.6182   -1.7273    0.0082 O.co2     1 <0>        -0.6862
      6 C4          1.4167    2.0553   -0.0004 C.3       1 <0>        -0.0130
      7 N1          1.3968    3.5242    0.0076 N.4       1 <0>        -0.6362
      8 H1         -0.5459    1.8868   -0.8726 H         1 <0>         0.0846
      9 H2         -0.5289    1.8773    0.9072 H         1 <0>         0.0846
     10 H3          0.5123   -0.3556   -0.8948 H         1 <0>         0.0679
     11 H4          0.5293   -0.3651    0.8851 H         1 <0>         0.0679
     12 H5          1.9439    1.6943    0.8826 H         1 <0>         0.1275
     13 H6          1.9269    1.7038   -0.8972 H         1 <0>         0.1275
     14 H7          2.3434    3.8734    0.0005 H         1 <0>         0.4293
     15 H8          0.9088    3.8584   -0.8098 H         1 <0>         0.4334
     16 H9          0.9245    3.8496    0.8378 H         1 <0>         0.4334
@<TRIPOS>BOND
     1    1    2 1
     2    1    6 1
     3    1    8 1
     4    1    9 1
     5    2    3 1
     6    2   10 1
     7    2   11 1
     8    3    4 2
     9    3    5 1
    10    6    7 1
    11    6   12 1
    12    6   13 1
    13    7   14 1
    14    7   15 1
    15    7   16 1
