@<TRIPOS>MOLECULE
ZINC01532157
   30    31     0     0     0
SMALL
USER_CHARGES

@<TRIPOS>ATOM
      1 C1          0.6241    1.3582    1.1570 C.ar      1 <0>        -0.0402
      2 C2          1.1796    2.0855    0.1204 C.ar      1 <0>        -0.1470
      3 C3          1.7557    1.4341   -0.9546 C.ar      1 <0>        -0.0419
      4 C4          1.7778    0.0526   -0.9968 C.ar      1 <0>        -0.0140
      5 C5          1.2206   -0.6815    0.0429 C.ar      1 <0>         0.1822
      6 C6          0.6429   -0.0236    1.1218 C.ar      1 <0>        -0.0370
      7 Cl1        -0.0548   -0.9357    2.4237 Cl        1 <0>        -0.0099
      8 N1          1.2407   -2.0822    0.0033 N.pl3     1 <0>        -0.3493
      9 C7          0.1537   -2.9004    0.0743 C.2       1 <0>         0.5034
     10 C8          0.5952   -4.1828    0.0019 C.2       1 <0>        -0.6460
     11 C9          2.0005   -4.1488   -0.1175 C.2       1 <0>         0.2619
     12 N2          2.3813   -2.8853   -0.1222 N.2       1 <0>        -0.2092
     13 C10         2.8631   -5.2871   -0.2217 C.1       1 <0>         0.2680
     14 N3          3.5474   -6.1901   -0.3044 N.1       1 <0>        -0.3345
     15 S1         -0.4082   -5.6305    0.0487 S.o       1 <0>         1.4312
     16 O1          0.4701   -6.6422    0.5223 O.2       1 <0>        -0.7564
     17 C11        -0.8082   -5.9437   -1.6927 C.3       1 <0>         0.0980
     18 F1          0.3737   -6.1446   -2.4138 F         1 <0>        -0.1891
     19 F2         -1.6126   -7.0843   -1.7885 F         1 <0>        -0.1738
     20 F3         -1.4942   -4.8437   -2.2187 F         1 <0>        -0.1709
     21 N4         -1.1722   -2.4947    0.1993 N.pl3     1 <0>        -0.8236
     22 Cl2         2.5003   -0.7642   -2.3476 Cl        1 <0>        -0.0017
     23 C12         1.1566    3.5917    0.1623 C.3       1 <0>         0.5153
     24 F4          2.3120    4.0583    0.7985 F         1 <0>        -0.1653
     25 F5          1.1077    4.0938   -1.1426 F         1 <0>        -0.1671
     26 F6          0.0288    4.0214    0.8698 F         1 <0>        -0.1674
     27 H1          0.1790    1.8703    1.9972 H         1 <0>         0.1698
     28 H2          2.1886    2.0054   -1.7625 H         1 <0>         0.1687
     29 H3         -1.3977   -1.5525    0.1513 H         1 <0>         0.4162
     30 H4         -1.8706   -3.1542    0.3343 H         1 <0>         0.4295
@<TRIPOS>BOND
     1    1    6 ar
     2    1    2 ar
     3    1   27 1
     4    2    3 ar
     5    2   23 1
     6    3    4 ar
     7    3   28 1
     8    4    5 ar
     9    4   22 1
    10    5    6 ar
    11    5    8 1
    12    6    7 1
    13    8   12 1
    14    8    9 1
    15    9   10 2
    16    9   21 1
    17   10   11 1
    18   10   15 1
    19   11   12 2
    20   11   13 1
    21   13   14 3
    22   15   16 2
    23   15   17 1
    24   17   18 1
    25   17   19 1
    26   17   20 1
    27   21   29 1
    28   21   30 1
    29   23   24 1
    30   23   25 1
    31   23   26 1
@<TRIPOS>MOLECULE
ZINC03872568
   30    31     0     0     0
SMALL
USER_CHARGES

@<TRIPOS>ATOM
      1 C1          0.6247    1.3688    1.1156 C.ar      1 <0>        -0.0407
      2 C2          1.1752    2.0866    0.0698 C.ar      1 <0>        -0.1473
      3 C3          1.7474    1.4255   -1.0014 C.ar      1 <0>        -0.0423
      4 C4          1.7706    0.0437   -1.0304 C.ar      1 <0>        -0.0141
      5 C5          1.2185   -0.6810    0.0186 C.ar      1 <0>         0.1815
      6 C6          0.6447   -0.0133    1.0935 C.ar      1 <0>        -0.0389
      7 Cl1        -0.0467   -0.9135    2.4070 Cl        1 <0>        -0.0085
      8 N1          1.2398   -2.0820   -0.0076 N.pl3     1 <0>        -0.3518
      9 C7          0.1537   -2.9004    0.0743 C.2       1 <0>         0.4982
     10 C8          0.5961   -4.1830    0.0128 C.2       1 <0>        -0.6484
     11 C9          2.0011   -4.1489   -0.1110 C.2       1 <0>         0.2681
     12 N2          2.3807   -2.8852   -0.1288 N.2       1 <0>        -0.2063
     13 C10         2.8644   -5.2874   -0.2069 C.1       1 <0>         0.2726
     14 N3          3.5493   -6.1905   -0.2829 N.1       1 <0>        -0.3349
     15 S1         -0.4057   -5.6311    0.0764 S.o       1 <0>         1.4432
     16 O1         -1.5759   -5.2096    0.7636 O.2       1 <0>        -0.7799
     17 C11        -0.8106   -5.9613   -1.6607 C.3       1 <0>         0.1002
     18 F1          0.3694   -6.1680   -2.3834 F         1 <0>        -0.1662
     19 F2         -1.6142   -7.1035   -1.7433 F         1 <0>        -0.1725
     20 F3         -1.4991   -4.8670   -2.1952 F         1 <0>        -0.1934
     21 N4         -1.1722   -2.4947    0.1993 N.pl3     1 <0>        -0.8201
     22 Cl2         2.4882   -0.7853   -2.3764 Cl        1 <0>        -0.0015
     23 C12         1.1509    3.5932    0.0974 C.3       1 <0>         0.5156
     24 F4          2.3085    4.0668    0.7242 F         1 <0>        -0.1650
     25 F5          1.0961    4.0827   -1.2121 F         1 <0>        -0.1671
     26 F6          0.0257    4.0286    0.8055 F         1 <0>        -0.1675
     27 H1          0.1827    1.8885    1.9528 H         1 <0>         0.1695
     28 H2          2.1763    1.9894   -1.8165 H         1 <0>         0.1692
     29 H3         -1.3977   -1.5525    0.1513 H         1 <0>         0.4110
     30 H4         -1.8706   -3.1542    0.3343 H         1 <0>         0.4369
@<TRIPOS>BOND
     1    1    6 ar
     2    1    2 ar
     3    1   27 1
     4    2    3 ar
     5    2   23 1
     6    3    4 ar
     7    3   28 1
     8    4    5 ar
     9    4   22 1
    10    5    6 ar
    11    5    8 1
    12    6    7 1
    13    8   12 1
    14    8    9 1
    15    9   10 2
    16    9   21 1
    17   10   11 1
    18   10   15 1
    19   11   12 2
    20   11   13 1
    21   13   14 3
    22   15   16 2
    23   15   17 1
    24   17   18 1
    25   17   19 1
    26   17   20 1
    27   21   29 1
    28   21   30 1
    29   23   24 1
    30   23   25 1
    31   23   26 1
@<TRIPOS>MOLECULE
ZINC05857871
   51    54     0     0     0
SMALL
USER_CHARGES

@<TRIPOS>ATOM
      1 C1         -0.0194    1.3416    1.3011 C.3       1 <0>        -0.1516
      2 C2         -0.0104   -0.1671    1.0466 C.3       1 <0>         0.0590
      3 O1         -1.3434   -0.6153    0.7932 O.3       1 <0>        -0.3305
      4 C3         -1.5106   -1.9295    0.5482 C.2       1 <0>         0.5284
      5 O2         -0.5511   -2.6745    0.5495 O.2       1 <0>        -0.4881
      6 C4         -2.8609   -2.4646    0.2778 C.ar      1 <0>         0.0552
      7 C5         -3.0115   -3.7994   -0.0894 C.ar      1 <0>        -0.0003
      8 C6         -4.2926   -4.2821   -0.3393 C.ar      1 <0>        -0.0737
      9 C7         -4.8448   -5.5869   -0.7364 C.ar      1 <0>        -0.0585
     10 C8         -4.2745   -6.8286   -1.0099 C.ar      1 <0>        -0.0940
     11 C9         -5.0827   -7.8912   -1.3675 C.ar      1 <0>         0.1103
     12 C10        -6.4607   -7.7221   -1.4543 C.ar      1 <0>        -0.1600
     13 C11        -7.0334   -6.4984   -1.1862 C.ar      1 <0>        -0.0931
     14 C12        -6.2351   -5.4173   -0.8242 C.ar      1 <0>         0.1079
     15 N1         -6.5360   -4.1034   -0.5059 N.pl3     1 <0>        -0.5927
     16 H1         -7.4304   -3.7282   -0.4913 H         1 <0>         0.4253
     17 C13        -5.3862   -3.4057   -0.2121 C.ar      1 <0>         0.1238
     18 C14        -5.1428   -2.0831    0.1600 C.ar      1 <0>         0.0992
     19 N2         -3.9203   -1.6665    0.3933 N.ar      1 <0>        -0.4015
     20 O3         -4.5296   -9.1042   -1.6356 O.3       1 <0>        -0.3057
     21 C15        -5.4231  -10.1585   -1.9991 C.3       1 <0>         0.1020
     22 C16        -4.6361  -11.4175   -2.2571 C.ar      1 <0>        -0.0996
     23 C17        -4.1607  -11.6875   -3.5267 C.ar      1 <0>        -0.0949
     24 C18        -3.4388  -12.8424   -3.7633 C.ar      1 <0>        -0.1232
     25 C19        -3.1917  -13.7269   -2.7302 C.ar      1 <0>        -0.1081
     26 C20        -3.6662  -13.4565   -1.4603 C.ar      1 <0>        -0.1230
     27 C21        -4.3846  -12.2995   -1.2228 C.ar      1 <0>        -0.0946
     28 C22        -1.8116   -4.7026   -0.2141 C.3       1 <0>         0.0950
     29 O4         -1.4463   -5.1905    1.0784 O.3       1 <0>        -0.3717
     30 C23        -0.3132   -6.0613    1.0720 C.3       1 <0>         0.0351
     31 H2          0.9974    1.6835    1.4944 H         1 <0>         0.0796
     32 H3         -0.4153    1.8555    0.4252 H         1 <0>         0.0671
     33 H4         -0.6467    1.5605    2.1652 H         1 <0>         0.0677
     34 H5          0.6169   -0.3860    0.1825 H         1 <0>         0.0678
     35 H6          0.3854   -0.6810    1.9225 H         1 <0>         0.0689
     36 H7         -3.2046   -6.9600   -0.9430 H         1 <0>         0.1371
     37 H8         -7.0863   -8.5567   -1.7343 H         1 <0>         0.1397
     38 H9         -8.1043   -6.3775   -1.2571 H         1 <0>         0.1346
     39 H10        -5.9698   -1.3961    0.2622 H         1 <0>         0.1720
     40 H11        -6.1300  -10.3318   -1.1876 H         1 <0>         0.0727
     41 H12        -5.9672   -9.8789   -2.9013 H         1 <0>         0.0726
     42 H13        -4.3537  -10.9964   -4.3339 H         1 <0>         0.1244
     43 H14        -3.0680  -13.0537   -4.7555 H         1 <0>         0.1259
     44 H15        -2.6282  -14.6295   -2.9152 H         1 <0>         0.1250
     45 H16        -3.4735  -14.1477   -0.6532 H         1 <0>         0.1260
     46 H17        -4.7521  -12.0864   -0.2299 H         1 <0>         0.1246
     47 H18        -2.0554   -5.5429   -0.8641 H         1 <0>         0.0574
     48 H19        -0.9786   -4.1434   -0.6402 H         1 <0>         0.0889
     49 H20        -0.5259   -6.9298    0.4487 H         1 <0>         0.0397
     50 H21         0.5508   -5.5303    0.6727 H         1 <0>         0.0459
     51 H22        -0.1004   -6.3879    2.0899 H         1 <0>         0.0860
@<TRIPOS>BOND
     1    1    2 1
     2    1   31 1
     3    1   32 1
     4    1   33 1
     5    2    3 1
     6    2   34 1
     7    2   35 1
     8    3    4 1
     9    4    5 2
    10    4    6 1
    11    6   19 ar
    12    6    7 ar
    13    7    8 ar
    14    7   28 1
    15    8   17 ar
    16    8    9 1
    17    9   14 ar
    18    9   10 ar
    19   10   11 ar
    20   10   36 1
    21   11   12 ar
    22   11   20 1
    23   12   13 ar
    24   12   37 1
    25   13   14 ar
    26   13   38 1
    27   14   15 1
    28   15   16 1
    29   15   17 1
    30   17   18 ar
    31   18   19 ar
    32   18   39 1
    33   20   21 1
    34   21   22 1
    35   21   40 1
    36   21   41 1
    37   22   27 ar
    38   22   23 ar
    39   23   24 ar
    40   23   42 1
    41   24   25 ar
    42   24   43 1
    43   25   26 ar
    44   25   44 1
    45   26   27 ar
    46   26   45 1
    47   27   46 1
    48   28   29 1
    49   28   47 1
    50   28   48 1
    51   29   30 1
    52   30   49 1
    53   30   50 1
    54   30   51 1
@<TRIPOS>MOLECULE
ZINC06507046
   30    32     0     0     0
SMALL
USER_CHARGES

@<TRIPOS>ATOM
      1 C1         -0.0187    1.5258    0.0104 C.3       1 <0>        -0.1516
      2 C2          0.0021   -0.0041    0.0020 C.3       1 <0>         0.0576
      3 O1          0.6932   -0.4774    1.1597 O.3       1 <0>        -0.3290
      4 C3          0.8010   -1.8125    1.3044 C.2       1 <0>         0.5310
      5 O2          0.3215   -2.5545    0.4707 O.2       1 <0>        -0.5021
      6 C4          1.5026   -2.3743    2.4772 C.ar      1 <0>         0.0402
      7 C5          1.6143   -3.7553    2.6160 C.ar      1 <0>        -0.0333
      8 C6          2.2792   -4.2624    3.7284 C.ar      1 <0>        -0.0831
      9 C7          2.5953   -5.6144    4.2150 C.ar      1 <0>        -0.1038
     10 C8          2.3393   -6.8954    3.7304 C.ar      1 <0>        -0.0556
     11 C9          2.7783   -7.9949    4.4350 C.ar      1 <0>        -0.1428
     12 C10         3.4736   -7.8308    5.6237 C.ar      1 <0>        -0.0754
     13 C11         3.7339   -6.5702    6.1150 C.ar      1 <0>        -0.1379
     14 C12         3.2989   -5.4466    5.4180 C.ar      1 <0>         0.1403
     15 N1          3.4169   -4.0919    5.6699 N.pl3     1 <0>        -0.5953
     16 C13         2.8128   -3.3630    4.6699 C.ar      1 <0>         0.1173
     17 C14         2.6538   -1.9943    4.4511 C.ar      1 <0>         0.0980
     18 N2          2.0253   -1.5542    3.3864 N.ar      1 <0>        -0.4039
     19 H1          1.0039    1.9031    0.0027 H         1 <0>         0.0677
     20 H2         -0.5459    1.8868   -0.8726 H         1 <0>         0.0803
     21 H3         -0.5289    1.8773    0.9072 H         1 <0>         0.0677
     22 H4         -1.0205   -0.3814    0.0098 H         1 <0>         0.0690
     23 H5          0.5123   -0.3556   -0.8948 H         1 <0>         0.0690
     24 H6          1.1933   -4.4194    1.8756 H         1 <0>         0.1539
     25 H7          1.7978   -7.0261    2.8052 H         1 <0>         0.1310
     26 H8          2.5801   -8.9882    4.0604 H         1 <0>         0.1325
     27 H9          3.8135   -8.6987    6.1693 H         1 <0>         0.1343
     28 H10         4.2762   -6.4537    7.0417 H         1 <0>         0.1294
     29 H11         3.0568   -1.2892    5.1630 H         1 <0>         0.1699
     30 H12         3.8619   -3.7092    6.4422 H         1 <0>         0.4248
@<TRIPOS>BOND
     1    1    2 1
     2    1   19 1
     3    1   20 1
     4    1   21 1
     5    2    3 1
     6    2   22 1
     7    2   23 1
     8    3    4 1
     9    4    5 2
    10    4    6 1
    11    6   18 ar
    12    6    7 ar
    13    7    8 ar
    14    7   24 1
    15    8   16 ar
    16    8    9 1
    17    9   14 ar
    18    9   10 ar
    19   10   11 ar
    20   10   25 1
    21   11   12 ar
    22   11   26 1
    23   12   13 ar
    24   12   27 1
    25   13   14 ar
    26   13   28 1
    27   14   15 1
    28   15   16 1
    29   15   30 1
    30   16   17 ar
    31   17   18 ar
    32   17   29 1
@<TRIPOS>MOLECULE
ZINC06507046
   31    33     0     0     0
SMALL
USER_CHARGES

@<TRIPOS>ATOM
      1 C1         -0.0187    1.5258    0.0104 C.3       1 <0>        -0.1574
      2 C2          0.0021   -0.0041    0.0020 C.3       1 <0>         0.0635
      3 O1          0.6709   -0.4649   -1.1737 O.3       1 <0>        -0.3539
      4 C3          0.7758   -1.7984   -1.3347 C.2       1 <0>         0.5063
      5 O2          0.3122   -2.5493   -0.5000 O.2       1 <0>        -0.4447
      6 C4          1.4548   -2.3474   -2.5266 C.ar      1 <0>         0.0584
      7 C5          1.5538   -3.7270   -2.6880 C.ar      1 <0>         0.0150
      8 C6          2.1974   -4.2220   -3.8182 C.ar      1 <0>        -0.0128
      9 C7          2.4947   -5.5688   -4.3305 C.ar      1 <0>        -0.1156
     10 C8          2.2352   -6.8550   -3.8620 C.ar      1 <0>        -0.0440
     11 C9          2.6535   -7.9469   -4.5907 C.ar      1 <0>        -0.1219
     12 C10         3.3312   -7.7700   -5.7877 C.ar      1 <0>        -0.0454
     13 C11         3.5947   -6.5040   -6.2632 C.ar      1 <0>        -0.1296
     14 C12         3.1805   -5.3879   -5.5419 C.ar      1 <0>         0.1539
     15 N1          3.3056   -4.0304   -5.7748 N.pl3     1 <0>        -0.5653
     16 C13         2.7234   -3.3124   -4.7542 C.ar      1 <0>         0.1319
     17 C14         2.5790   -1.9460   -4.5119 C.ar      1 <0>         0.1494
     18 N2          1.9602   -1.5175   -3.4368 N.ar      1 <0>        -0.3940
     19 H1          1.0039    1.9031    0.0027 H         1 <0>         0.0711
     20 H2         -0.5459    1.8868   -0.8726 H         1 <0>         0.0710
     21 H3         -0.5289    1.8773    0.9072 H         1 <0>         0.0933
     22 H4          0.5293   -0.3651    0.8851 H         1 <0>         0.0826
     23 H5         -1.0205   -0.3814    0.0098 H         1 <0>         0.0826
     24 H6          1.1398   -4.3991   -1.9509 H         1 <0>         0.1968
     25 H7          1.7080   -6.9958   -2.9300 H         1 <0>         0.1443
     26 H8          2.4532   -8.9444   -4.2283 H         1 <0>         0.1478
     27 H9          3.6554   -8.6320   -6.3518 H         1 <0>         0.1500
     28 H10         4.1232   -6.3775   -7.1965 H         1 <0>         0.1440
     29 H11         2.9763   -1.2332   -5.2193 H         1 <0>         0.2207
     30 H12         3.7422   -3.6394   -6.5476 H         1 <0>         0.4401
     31 H13         1.8718   -0.5616   -3.2980 H         1 <0>         0.4618
@<TRIPOS>BOND
     1    1    2 1
     2    1   19 1
     3    1   20 1
     4    1   21 1
     5    2    3 1
     6    2   22 1
     7    2   23 1
     8    3    4 1
     9    4    5 2
    10    4    6 1
    11    6   18 ar
    12    6    7 ar
    13    7    8 ar
    14    7   24 1
    15    8   16 ar
    16    8    9 1
    17    9   14 ar
    18    9   10 ar
    19   10   11 ar
    20   10   25 1
    21   11   12 ar
    22   11   26 1
    23   12   13 ar
    24   12   27 1
    25   13   14 ar
    26   13   28 1
    27   14   15 1
    28   15   16 1
    29   15   30 1
    30   16   17 ar
    31   17   18 ar
    32   17   29 1
    33   18   31 1
@<TRIPOS>MOLECULE
ZINC00006427
   33    35     0     0     0
SMALL
USER_CHARGES

@<TRIPOS>ATOM
      1 C1          0.5645    1.4220    0.1928 C.3       1 <0>         0.0583
      2 N1          0.3235   -0.0204    0.1049 N.am      1 <0>        -0.5555
      3 C2         -0.9927   -0.4531    0.1626 C.ar      1 <0>         0.1844
      4 C3         -1.9457    0.2992   -0.5272 C.ar      1 <0>        -0.1319
      5 C4         -3.2733   -0.0670   -0.5149 C.ar      1 <0>        -0.0651
      6 C5         -3.6777   -1.1917    0.1872 C.ar      1 <0>        -0.0514
      7 C6         -2.7519   -1.9453    0.8726 C.ar      1 <0>        -0.0516
      8 C7         -1.3954   -1.5853    0.8674 C.ar      1 <0>        -0.1200
      9 C8         -0.4607   -2.4388    1.6175 C.2       1 <0>         0.2679
     10 N2          0.7150   -2.7715    1.2168 N.2       1 <0>        -0.4888
     11 C9          1.2537   -2.3110   -0.0624 C.3       1 <0>         0.0242
     12 C10         1.3847   -0.8126   -0.0296 C.2       1 <0>         0.5094
     13 O1          2.4861   -0.3137   -0.1239 O.2       1 <0>        -0.5107
     14 C11        -0.9076   -2.9538    2.9327 C.ar      1 <0>        -0.0709
     15 C12        -0.3330   -4.1079    3.4647 C.ar      1 <0>        -0.0682
     16 C13        -0.7535   -4.5827    4.6901 C.ar      1 <0>        -0.1263
     17 C14        -1.7429   -3.9163    5.3909 C.ar      1 <0>        -0.0986
     18 C15        -2.3166   -2.7710    4.8684 C.ar      1 <0>        -0.1241
     19 C16        -1.9005   -2.2832    3.6466 C.ar      1 <0>        -0.0904
     20 Cl1        -5.3522   -1.6496    0.2025 Cl        1 <0>        -0.0531
     21 H1          1.6353    1.6160    0.1296 H         1 <0>         0.1025
     22 H2          0.0549    1.9262   -0.6283 H         1 <0>         0.0740
     23 H3          0.1827    1.7970    1.1424 H         1 <0>         0.0729
     24 H4         -1.6385    1.1774   -1.0758 H         1 <0>         0.1452
     25 H5         -4.0004    0.5233   -1.0528 H         1 <0>         0.1468
     26 H6         -3.0719   -2.8206    1.4183 H         1 <0>         0.1484
     27 H7          2.2331   -2.7595   -0.2287 H         1 <0>         0.1343
     28 H8          0.5774   -2.5976   -0.8678 H         1 <0>         0.0942
     29 H9          0.4392   -4.6292    2.9184 H         1 <0>         0.1347
     30 H10        -0.3096   -5.4765    5.1029 H         1 <0>         0.1285
     31 H11        -2.0690   -4.2920    6.3495 H         1 <0>         0.1264
     32 H12        -3.0889   -2.2553    5.4199 H         1 <0>         0.1284
     33 H13        -2.3460   -1.3865    3.2417 H         1 <0>         0.1261
@<TRIPOS>BOND
     1    1    2 1
     2    1   21 1
     3    1   22 1
     4    1   23 1
     5    2   12 am
     6    2    3 1
     7    3    8 ar
     8    3    4 ar
     9    4    5 ar
    10    4   24 1
    11    5    6 ar
    12    5   25 1
    13    6    7 ar
    14    6   20 1
    15    7    8 ar
    16    7   26 1
    17    8    9 1
    18    9   10 2
    19    9   14 1
    20   10   11 1
    21   11   12 1
    22   11   27 1
    23   11   28 1
    24   12   13 2
    25   14   19 ar
    26   14   15 ar
    27   15   16 ar
    28   15   29 1
    29   16   17 ar
    30   16   30 1
    31   17   18 ar
    32   17   31 1
    33   18   19 ar
    34   18   32 1
    35   19   33 1
@<TRIPOS>MOLECULE
ZINC02516023
   41    43     0     0     0
SMALL
USER_CHARGES

@<TRIPOS>ATOM
      1 C1          0.3544    1.0573    0.0432 C.3       1 <0>        -0.1356
      2 C2          0.1262   -0.4518   -0.0637 C.3       1 <0>        -0.0959
      3 C3         -1.3521   -0.7408   -0.0189 C.ar      1 <0>         0.0079
      4 C4         -1.9734   -1.0811    1.1796 C.ar      1 <0>        -0.0805
      5 C5         -1.5151   -1.2514    2.5671 C.ar      1 <0>        -0.0926
      6 C6         -0.2727   -1.1314    3.1898 C.ar      1 <0>        -0.1203
      7 C7         -0.1591   -1.3612    4.5457 C.ar      1 <0>         0.0870
      8 C8         -1.2845   -1.7130    5.2926 C.ar      1 <0>         0.1512
      9 C9         -2.5186   -1.8339    4.6833 C.ar      1 <0>        -0.1996
     10 C10        -2.6475   -1.6050    3.3168 C.ar      1 <0>         0.1475
     11 N1         -3.7381   -1.6537    2.4646 N.pl3     1 <0>        -0.5913
     12 H1         -4.6429   -1.8753    2.7352 H         1 <0>         0.4245
     13 C11        -3.3559   -1.3428    1.1785 C.ar      1 <0>         0.1199
     14 C12        -4.0521   -1.2516   -0.0271 C.ar      1 <0>         0.0920
     15 N2         -3.4310   -0.9286   -1.1371 N.ar      1 <0>        -0.4017
     16 C13        -2.1257   -0.6673   -1.1740 C.ar      1 <0>         0.0333
     17 C14        -1.4898   -0.3026   -2.4568 C.2       1 <0>         0.5268
     18 O1         -0.3222    0.0313   -2.4826 O.2       1 <0>        -0.4929
     19 O2         -2.2050   -0.3405   -3.5979 O.3       1 <0>        -0.3316
     20 C15        -1.5264    0.0248   -4.8013 C.3       1 <0>         0.0320
     21 O3         -1.1655   -1.9385    6.6281 O.3       1 <0>        -0.2971
     22 C16        -2.3554   -2.2950    7.3344 C.3       1 <0>         0.0223
     23 O4          1.0518   -1.2452    5.1553 O.3       1 <0>        -0.3021
     24 C17         2.1612   -0.8825    4.3308 C.3       1 <0>         0.0230
     25 H2          1.4237    1.2663    0.0107 H         1 <0>         0.0635
     26 H3         -0.1393    1.5592   -0.7889 H         1 <0>         0.0613
     27 H4         -0.0586    1.4215    0.9839 H         1 <0>         0.0495
     28 H5          0.5392   -0.8160   -1.0044 H         1 <0>         0.1068
     29 H6          0.6199   -0.9538    0.7684 H         1 <0>         0.0696
     30 H7          0.5983   -0.8595    2.6120 H         1 <0>         0.1452
     31 H8         -3.3843   -2.1069    5.2684 H         1 <0>         0.1431
     32 H9         -5.1137   -1.4494   -0.0472 H         1 <0>         0.1691
     33 H10        -1.1633    1.0491   -4.7170 H         1 <0>         0.0617
     34 H11        -0.6835   -0.6474   -4.9615 H         1 <0>         0.0616
     35 H12        -2.2148   -0.0485   -5.6432 H         1 <0>         0.1041
     36 H13        -3.0894   -1.4950    7.2367 H         1 <0>         0.0578
     37 H14        -2.7637   -3.2155    6.9172 H         1 <0>         0.0578
     38 H15        -2.1210   -2.4463    8.3881 H         1 <0>         0.1052
     39 H16         1.9705    0.0873    3.8711 H         1 <0>         0.0569
     40 H17         3.0632   -0.8249    4.9400 H         1 <0>         0.1040
     41 H18         2.2960   -1.6334    3.5522 H         1 <0>         0.0564
@<TRIPOS>BOND
     1    1    2 1
     2    1   25 1
     3    1   26 1
     4    1   27 1
     5    2    3 1
     6    2   28 1
     7    2   29 1
     8    3   16 ar
     9    3    4 ar
    10    4   13 ar
    11    4    5 1
    12    5   10 ar
    13    5    6 ar
    14    6    7 ar
    15    6   30 1
    16    7    8 ar
    17    7   23 1
    18    8    9 ar
    19    8   21 1
    20    9   10 ar
    21    9   31 1
    22   10   11 1
    23   11   12 1
    24   11   13 1
    25   13   14 ar
    26   14   15 ar
    27   14   32 1
    28   15   16 ar
    29   16   17 1
    30   17   18 2
    31   17   19 1
    32   19   20 1
    33   20   33 1
    34   20   34 1
    35   20   35 1
    36   21   22 1
    37   22   36 1
    38   22   37 1
    39   22   38 1
    40   23   24 1
    41   24   39 1
    42   24   40 1
    43   24   41 1
@<TRIPOS>MOLECULE
ZINC02516023
   42    44     0     0     0
SMALL
USER_CHARGES

@<TRIPOS>ATOM
      1 C1         -0.2286    1.0401    0.3120 C.3       1 <0>        -0.1436
      2 C2          0.0046   -0.4617    0.1351 C.3       1 <0>        -0.1054
      3 C3          0.7087   -0.7099   -1.1740 C.ar      1 <0>         0.0584
      4 C4         -0.0135   -1.0386   -2.3179 C.ar      1 <0>        -0.0146
      5 C5         -1.4413   -1.2281   -2.6175 C.ar      1 <0>        -0.1026
      6 C6         -2.6029   -1.1454   -1.8497 C.ar      1 <0>        -0.1227
      7 C7         -3.8303   -1.3848   -2.4333 C.ar      1 <0>         0.1126
      8 C8         -3.9095   -1.7089   -3.7887 C.ar      1 <0>         0.1856
      9 C9         -2.7635   -1.7928   -4.5559 C.ar      1 <0>        -0.2026
     10 C10        -1.5193   -1.5539   -3.9803 C.ar      1 <0>         0.1677
     11 N1         -0.2358   -1.5684   -4.5004 N.pl3     1 <0>        -0.5600
     12 H1         -0.0147   -1.7662   -5.4239 H         1 <0>         0.4396
     13 C11         0.6821   -1.2621   -3.5204 C.ar      1 <0>         0.1268
     14 C12         2.0724   -1.1459   -3.5194 C.ar      1 <0>         0.1491
     15 N2          2.7184   -0.8348   -2.4202 N.ar      1 <0>        -0.3933
     16 C13         2.0942   -0.6095   -1.2655 C.ar      1 <0>         0.0415
     17 C14         2.8817   -0.2565   -0.0664 C.2       1 <0>         0.5030
     18 O1          2.3153    0.0481    0.9642 O.2       1 <0>        -0.4388
     19 O2          4.2279   -0.2724   -0.1159 O.3       1 <0>        -0.3540
     20 C15         4.9253    0.0800    1.0806 C.3       1 <0>         0.0342
     21 O3         -5.1218   -1.9440   -4.3573 O.3       1 <0>        -0.2849
     22 C16        -5.1335   -2.2708   -5.7484 C.3       1 <0>         0.0164
     23 O4         -4.9648   -1.3052   -1.6865 O.3       1 <0>        -0.2915
     24 C17        -4.8106   -0.9694   -0.3061 C.3       1 <0>         0.0183
     25 H2          0.7298    1.5592    0.3109 H         1 <0>         0.0645
     26 H3         -0.8439    1.4113   -0.5076 H         1 <0>         0.0586
     27 H4         -0.7379    1.2196    1.2589 H         1 <0>         0.0811
     28 H5          0.6198   -0.8329    0.9547 H         1 <0>         0.1214
     29 H6         -0.9539   -0.9808    0.1363 H         1 <0>         0.0922
     30 H7         -2.5419   -0.8950   -0.8009 H         1 <0>         0.1552
     31 H8         -2.8334   -2.0445   -5.6038 H         1 <0>         0.1566
     32 H9          2.6231   -1.3142   -4.4331 H         1 <0>         0.2199
     33 H10         5.9996    0.0269    0.9041 H         1 <0>         0.1192
     34 H11         4.6549    1.0945    1.3734 H         1 <0>         0.0752
     35 H12         4.6533   -0.6127    1.8771 H         1 <0>         0.0753
     36 H13        -6.1607   -2.4336   -6.0747 H         1 <0>         0.1152
     37 H14        -4.6969   -1.4504   -6.3180 H         1 <0>         0.0645
     38 H15        -4.5518   -3.1777   -5.9134 H         1 <0>         0.0645
     39 H16        -5.7896   -0.9395    0.1722 H         1 <0>         0.1133
     40 H17        -4.1899   -1.7199    0.1833 H         1 <0>         0.0614
     41 H18        -4.3346    0.0075   -0.2208 H         1 <0>         0.0618
     42 H19         3.6851   -0.7618   -2.4509 H         1 <0>         0.4608
@<TRIPOS>BOND
     1    1    2 1
     2    1   25 1
     3    1   26 1
     4    1   27 1
     5    2    3 1
     6    2   28 1
     7    2   29 1
     8    3   16 ar
     9    3    4 ar
    10    4   13 ar
    11    4    5 1
    12    5   10 ar
    13    5    6 ar
    14    6    7 ar
    15    6   30 1
    16    7    8 ar
    17    7   23 1
    18    8    9 ar
    19    8   21 1
    20    9   10 ar
    21    9   31 1
    22   10   11 1
    23   11   12 1
    24   11   13 1
    25   13   14 ar
    26   14   15 ar
    27   14   32 1
    28   15   16 ar
    29   15   42 1
    30   16   17 1
    31   17   18 2
    32   17   19 1
    33   19   20 1
    34   20   33 1
    35   20   34 1
    36   20   35 1
    37   21   22 1
    38   22   36 1
    39   22   37 1
    40   22   38 1
    41   23   24 1
    42   24   39 1
    43   24   40 1
    44   24   41 1
@<TRIPOS>MOLECULE
ZINC01043853
   29    30     0     0     0
SMALL
USER_CHARGES
5-amino-1-[2,6-dichloro-4-(trifluoromethyl)phenyl]-3-methylsulfanyl-pyrazole-4-carbonitrile
@<TRIPOS>ATOM
      1 C1         -5.3298    0.3270   -0.2026 C.3       1 <0>        -0.1510
      2 S1         -5.1546    2.0874    0.1984 S.3       1 <0>         0.0058
      3 C2         -3.4203    2.3789    0.0893 C.2       1 <0>         0.1446
      4 C3         -2.7375    3.6536    0.3220 C.2       1 <0>        -0.2296
      5 C4         -1.3795    3.4092    0.1286 C.2       1 <0>         0.4582
      6 N1         -1.2450    2.1068   -0.2005 N.pl3     1 <0>        -0.3533
      7 N2         -2.5016    1.4958   -0.2160 N.2       1 <0>        -0.2717
      8 C5         -0.0309    1.4648   -0.4782 C.ar      1 <0>         0.1933
      9 C6          0.7962    1.9450   -1.4861 C.ar      1 <0>        -0.0430
     10 C7          1.9907    1.3059   -1.7607 C.ar      1 <0>        -0.0411
     11 C8          2.3625    0.1895   -1.0344 C.ar      1 <0>        -0.1529
     12 C9          1.5419   -0.2912   -0.0306 C.ar      1 <0>        -0.0431
     13 C10         0.3461    0.3430    0.2499 C.ar      1 <0>        -0.0173
     14 Cl1        -0.6836   -0.2617    1.5099 Cl        1 <0>        -0.0051
     15 C11         3.6654   -0.5046   -1.3372 C.3       1 <0>         0.5157
     16 F1          3.4534   -1.4931   -2.3043 F         1 <0>        -0.1663
     17 F2          4.5899    0.4283   -1.8188 F         1 <0>        -0.1683
     18 F3          4.1623   -1.0936   -0.1696 F         1 <0>        -0.1680
     19 Cl2         0.3300    3.3458   -2.3993 Cl        1 <0>        -0.0114
     20 N3         -0.3578    4.3314    0.2493 N.pl3     1 <0>        -0.8266
     21 C12        -3.3436    4.9002    0.6815 C.1       1 <0>         0.2939
     22 N4         -3.8245    5.8891    0.9666 N.1       1 <0>        -0.4267
     23 H1         -4.7674   -0.2674    0.5174 H         1 <0>         0.0899
     24 H2         -6.3826    0.0478   -0.1607 H         1 <0>         0.1142
     25 H3         -4.9447    0.1427   -1.2056 H         1 <0>         0.0904
     26 H4          2.6342    1.6786   -2.5440 H         1 <0>         0.1669
     27 H5          1.8354   -1.1634    0.5346 H         1 <0>         0.1665
     28 H6          0.5661    4.0424    0.1883 H         1 <0>         0.4086
     29 H7         -0.5644    5.2678    0.3951 H         1 <0>         0.4271
@<TRIPOS>BOND
     1    1    2 1
     2    1   23 1
     3    1   24 1
     4    1   25 1
     5    2    3 1
     6    3    7 2
     7    3    4 1
     8    4    5 2
     9    4   21 1
    10    5    6 1
    11    5   20 1
    12    6    7 1
    13    6    8 1
    14    8   13 ar
    15    8    9 ar
    16    9   10 ar
    17    9   19 1
    18   10   11 ar
    19   10   26 1
    20   11   12 ar
    21   11   15 1
    22   12   13 ar
    23   12   27 1
    24   13   14 1
    25   15   16 1
    26   15   17 1
    27   15   18 1
    28   20   28 1
    29   20   29 1
    30   21   22 3
@<TRIPOS>MOLECULE
ZINC03812994
   35    37     0     0     0
SMALL
USER_CHARGES
6-(2-fluorophenyl)-2-methyl-9-nitro-2,5-diazabicyclo[5.4.0]undeca-5,8,10,12-tetraen-3-one
@<TRIPOS>ATOM
      1 C1          4.6526   -1.0855    2.9178 C.3       1 <0>         0.0547
      2 N1          4.3753   -0.5355    1.5886 N.am      1 <0>        -0.5569
      3 C2          3.3560   -1.1220    0.8546 C.ar      1 <0>         0.2353
      4 C3          3.2539   -2.5141    0.8975 C.ar      1 <0>        -0.1412
      5 C4          2.2648   -3.1677    0.1963 C.ar      1 <0>        -0.0152
      6 C5          1.3577   -2.4459   -0.5619 C.ar      1 <0>        -0.0590
      7 C6          1.4438   -1.0742   -0.6171 C.ar      1 <0>         0.0096
      8 C7          2.4465   -0.3938    0.0970 C.ar      1 <0>        -0.1324
      9 C8          2.4800    1.0729   -0.0154 C.2       1 <0>         0.2690
     10 N2          3.5505    1.7781   -0.1213 N.2       1 <0>        -0.4654
     11 C9          4.8789    1.1670   -0.1400 C.3       1 <0>         0.0183
     12 C10         5.1216    0.4885    1.1806 C.2       1 <0>         0.5105
     13 O1          6.0207    0.8844    1.8917 O.2       1 <0>        -0.4969
     14 C11         1.1854    1.7909    0.0004 C.ar      1 <0>        -0.1015
     15 C12         0.7583    2.4907   -1.1286 C.ar      1 <0>        -0.0536
     16 C13        -0.4462    3.1620   -1.1061 C.ar      1 <0>        -0.1264
     17 C14        -1.2376    3.1345    0.0292 C.ar      1 <0>        -0.0715
     18 C15        -0.8227    2.4435    1.1521 C.ar      1 <0>        -0.1523
     19 C16         0.3856    1.7705    1.1456 C.ar      1 <0>         0.1246
     20 F1          0.7913    1.0959    2.2435 F         1 <0>        -0.1336
     21 N3          0.2953   -3.1511   -1.3136 N.pl3     1 <0>         0.0287
     22 O2          0.2189   -4.3658   -1.2653 O.2       1 <0>        -0.1505
     23 O3         -0.5025   -2.5168   -1.9804 O.3       1 <0>        -0.1519
     24 H1          5.4716   -0.5315    3.3766 H         1 <0>         0.1071
     25 H2          3.7618   -0.9989    3.5400 H         1 <0>         0.0776
     26 H3          4.9308   -2.1354    2.8258 H         1 <0>         0.0785
     27 H4          3.9577   -3.0840    1.4860 H         1 <0>         0.1607
     28 H5          2.1965   -4.2447    0.2375 H         1 <0>         0.1670
     29 H6          0.7340   -0.5164   -1.2099 H         1 <0>         0.1654
     30 H7          4.9313    0.4320   -0.9432 H         1 <0>         0.0996
     31 H8          5.6330    1.9375   -0.3005 H         1 <0>         0.1412
     32 H9          1.3720    2.5103   -2.0171 H         1 <0>         0.1390
     33 H10        -0.7748    3.7075   -1.9784 H         1 <0>         0.1393
     34 H11        -2.1817    3.6588    0.0391 H         1 <0>         0.1399
     35 H12        -1.4429    2.4293    2.0362 H         1 <0>         0.1425
@<TRIPOS>BOND
     1    1    2 1
     2    1   24 1
     3    1   25 1
     4    1   26 1
     5    2   12 am
     6    2    3 1
     7    3    8 ar
     8    3    4 ar
     9    4    5 ar
    10    4   27 1
    11    5    6 ar
    12    5   28 1
    13    6    7 ar
    14    6   21 1
    15    7    8 ar
    16    7   29 1
    17    8    9 1
    18    9   10 2
    19    9   14 1
    20   10   11 1
    21   11   12 1
    22   11   30 1
    23   11   31 1
    24   12   13 2
    25   14   19 ar
    26   14   15 ar
    27   15   16 ar
    28   15   32 1
    29   16   17 ar
    30   16   33 1
    31   17   18 ar
    32   17   34 1
    33   18   19 ar
    34   18   35 1
    35   19   20 1
    36   21   22 2
    37   21   23 1
@<TRIPOS>MOLECULE
ZINC13781494
   36    38     0     0     0
SMALL
USER_CHARGES
ethyl 8-bromo-5-methyl-6-oxo-4H-imidazo[1,5-a][1,4]benzodiazepine-3-carboxylate
@<TRIPOS>ATOM
      1 C1         -5.8495    3.4610    0.1011 C.3       1 <0>        -0.1537
      2 C2         -4.8710    2.2847    0.1016 C.3       1 <0>         0.0616
      3 O1         -3.5095    2.7877    0.0626 O.3       1 <0>        -0.3347
      4 C3         -2.5192    1.8733    0.0580 C.2       1 <0>         0.5602
      5 O2         -2.7864    0.6879    0.0858 O.2       1 <0>        -0.5072
      6 C4         -1.1144    2.3102    0.0192 C.2       1 <0>        -0.0200
      7 C5         -0.0184    1.5026    0.0103 C.2       1 <0>         0.0520
      8 N1          1.0725    2.3073    0.0042 N.pl3     1 <0>        -0.4068
      9 C6          0.6315    3.5952   -0.0357 C.2       1 <0>         0.2124
     10 N2         -0.6708    3.5953   -0.0151 N.2       1 <0>        -0.4287
     11 C7          2.4022    1.8833    0.0598 C.ar      1 <0>         0.1622
     12 C8          3.2946    2.6360    0.8182 C.ar      1 <0>        -0.1173
     13 C9          4.6033    2.2287    0.9672 C.ar      1 <0>        -0.0445
     14 C10         5.0393    1.0621    0.3589 C.ar      1 <0>        -0.0945
     15 C11         4.1740    0.3151   -0.4064 C.ar      1 <0>        -0.0179
     16 C12         2.8400    0.7219   -0.5789 C.ar      1 <0>        -0.1091
     17 C13         1.9800   -0.1009   -1.4319 C.2       1 <0>         0.5503
     18 O3          2.4804   -0.5271   -2.4547 O.2       1 <0>        -0.5247
     19 N3          0.7085   -0.4340   -1.2096 N.am      1 <0>        -0.5969
     20 C14         0.0021   -0.0041    0.0020 C.3       1 <0>         0.1626
     21 C15        -0.0006   -1.2488   -2.1993 C.3       1 <0>         0.0832
     22 Br1         6.8296    0.4954    0.5818 Br        1 <0>        -0.0192
     23 H1         -5.6676    4.0853    0.9759 H         1 <0>         0.0683
     24 H2         -5.7064    4.0522   -0.8033 H         1 <0>         0.0682
     25 H3         -6.8716    3.0834    0.1304 H         1 <0>         0.0822
     26 H4         -5.0529    1.6604   -0.7732 H         1 <0>         0.0728
     27 H5         -5.0141    1.6935    1.0061 H         1 <0>         0.0733
     28 H6          1.2592    4.4731   -0.0777 H         1 <0>         0.2270
     29 H7          2.9593    3.5461    1.2932 H         1 <0>         0.1531
     30 H8          5.2887    2.8187    1.5575 H         1 <0>         0.1553
     31 H9          4.5227   -0.5915   -0.8785 H         1 <0>         0.1554
     32 H10         0.5255   -0.3713    0.8848 H         1 <0>         0.0965
     33 H11        -1.0183   -0.3873   -0.0085 H         1 <0>         0.1474
     34 H12        -0.4841   -0.5972   -2.9271 H         1 <0>         0.0613
     35 H13         0.7092   -1.8999   -2.7096 H         1 <0>         0.0881
     36 H14        -0.7544   -1.8556   -1.6976 H         1 <0>         0.0819
@<TRIPOS>BOND
     1    1    2 1
     2    1   23 1
     3    1   24 1
     4    1   25 1
     5    2    3 1
     6    2   26 1
     7    2   27 1
     8    3    4 1
     9    4    5 2
    10    4    6 1
    11    6   10 1
    12    6    7 2
    13    7   20 1
    14    7    8 1
    15    8    9 1
    16    8   11 1
    17    9   10 2
    18    9   28 1
    19   11   16 ar
    20   11   12 ar
    21   12   13 ar
    22   12   29 1
    23   13   14 ar
    24   13   30 1
    25   14   15 ar
    26   14   22 1
    27   15   16 ar
    28   15   31 1
    29   16   17 1
    30   17   18 2
    31   17   19 am
    32   19   20 1
    33   19   21 1
    34   20   32 1
    35   20   33 1
    36   21   34 1
    37   21   35 1
    38   21   36 1
@<TRIPOS>MOLECULE
ZINC00086336
   30    32     0     0     0
SMALL
USER_CHARGES

@<TRIPOS>ATOM
      1 C1         -0.0169    1.3789    0.0123 C.ar      1 <0>        -0.1002
      2 C2          0.0291    0.0538   -0.3827 C.ar      1 <0>        -0.1256
      3 C3          1.2319   -0.6222   -0.4012 C.ar      1 <0>        -0.0899
      4 C4          2.4028    0.0333   -0.0212 C.ar      1 <0>        -0.0688
      5 C5          2.3501    1.3693    0.3755 C.ar      1 <0>        -0.0697
      6 C6          1.1413    2.0344    0.3904 C.ar      1 <0>        -0.1269
      7 C7          3.6974   -0.6869   -0.0384 C.2       1 <0>         0.2665
      8 N1          4.7685    0.0173   -0.1399 N.2       1 <0>        -0.4949
      9 C8          6.0956   -0.5961   -0.1727 C.3       1 <0>         0.0247
     10 C9          6.2068   -1.4515   -1.4051 C.2       1 <0>         0.5116
     11 O1          7.0263   -1.1641   -2.2518 O.2       1 <0>        -0.5160
     12 N2          5.4292   -2.5160   -1.5903 N.am      1 <0>        -0.6632
     13 C10         4.4935   -2.9877   -0.6828 C.ar      1 <0>         0.1735
     14 C11         3.6617   -2.1539    0.0677 C.ar      1 <0>        -0.1330
     15 C12         2.7421   -2.7190    0.9641 C.ar      1 <0>        -0.0594
     16 C13         2.6604   -4.0843    1.1134 C.ar      1 <0>        -0.1326
     17 C14         3.4891   -4.9132    0.3761 C.ar      1 <0>        -0.0735
     18 C15         4.3961   -4.3712   -0.5229 C.ar      1 <0>        -0.1465
     19 H1         -0.9600    1.9049    0.0213 H         1 <0>         0.1258
     20 H2         -0.8783   -0.4527   -0.6767 H         1 <0>         0.1278
     21 H3          1.2665   -1.6568   -0.7091 H         1 <0>         0.1275
     22 H4          3.2535    1.8820    0.6712 H         1 <0>         0.1341
     23 H5          1.0991    3.0690    0.6974 H         1 <0>         0.1279
     24 H6          6.8574    0.1832   -0.1992 H         1 <0>         0.1321
     25 H7          6.2341   -1.2142    0.7144 H         1 <0>         0.0936
     26 H8          5.5247   -2.9993   -2.4259 H         1 <0>         0.4121
     27 H9          2.0935   -2.0772    1.5418 H         1 <0>         0.1373
     28 H10         1.9496   -4.5098    1.8064 H         1 <0>         0.1354
     29 H11         3.4246   -5.9846    0.4955 H         1 <0>         0.1355
     30 H12         5.0398   -5.0222   -1.0958 H         1 <0>         0.1350
@<TRIPOS>BOND
     1    1    6 ar
     2    1    2 ar
     3    1   19 1
     4    2    3 ar
     5    2   20 1
     6    3    4 ar
     7    3   21 1
     8    4    5 ar
     9    4    7 1
    10    5    6 ar
    11    5   22 1
    12    6   23 1
    13    7   14 1
    14    7    8 2
    15    8    9 1
    16    9   10 1
    17    9   24 1
    18    9   25 1
    19   10   11 2
    20   10   12 am
    21   12   13 1
    22   12   26 1
    23   13   18 ar
    24   13   14 ar
    25   14   15 ar
    26   15   16 ar
    27   15   27 1
    28   16   17 ar
    29   16   28 1
    30   17   18 ar
    31   17   29 1
    32   18   30 1
@<TRIPOS>MOLECULE
ZINC00086336
   31    33     0     0     0
SMALL
USER_CHARGES

@<TRIPOS>ATOM
      1 C1         -0.0169    1.3788    0.0123 C.ar      1 <0>        -0.0446
      2 C2          0.0348    0.0648   -0.4175 C.ar      1 <0>        -0.1189
      3 C3          1.2376   -0.6110   -0.4363 C.ar      1 <0>        -0.0391
      4 C4          2.4028    0.0333   -0.0212 C.ar      1 <0>        -0.1700
      5 C5          2.3444    1.3582    0.4106 C.ar      1 <0>        -0.0695
      6 C6          1.1355    2.0233    0.4252 C.ar      1 <0>        -0.1150
      7 C7          3.6974   -0.6869   -0.0384 C.2       1 <0>         0.4420
      8 N1          4.7685    0.0173   -0.1399 N.pl3     1 <0>        -0.5451
      9 C8          6.0956   -0.5961   -0.1731 C.3       1 <0>         0.0446
     10 C9          6.2063   -1.4515   -1.4056 C.2       1 <0>         0.5032
     11 O1          7.0255   -1.1642   -2.2526 O.2       1 <0>        -0.4690
     12 N2          5.4286   -2.5160   -1.5905 N.am      1 <0>        -0.6595
     13 C10         4.4932   -2.9877   -0.6827 C.ar      1 <0>         0.2073
     14 C11         3.6617   -2.1539    0.0677 C.ar      1 <0>        -0.1756
     15 C12         2.7421   -2.7190    0.9641 C.ar      1 <0>        -0.0297
     16 C13         2.6597   -4.0843    1.1128 C.ar      1 <0>        -0.1247
     17 C14         3.4885   -4.9132    0.3754 C.ar      1 <0>        -0.0236
     18 C15         4.3958   -4.3712   -0.5227 C.ar      1 <0>        -0.1431
     19 H1         -0.9600    1.9050    0.0213 H         1 <0>         0.1476
     20 H2         -0.8682   -0.4330   -0.7387 H         1 <0>         0.1496
     21 H3          1.2766   -1.6370   -0.7714 H         1 <0>         0.1456
     22 H4          3.2433    1.8622    0.7335 H         1 <0>         0.1344
     23 H5          1.0890    3.0493    0.7594 H         1 <0>         0.1485
     24 H6          6.8573    0.1831   -0.2000 H         1 <0>         0.1699
     25 H7          6.2344   -1.2142    0.7139 H         1 <0>         0.1468
     26 H8          5.5237   -2.9993   -2.4261 H         1 <0>         0.4301
     27 H9          2.0935   -2.0772    1.5418 H         1 <0>         0.1510
     28 H10         1.9485   -4.5099    1.8052 H         1 <0>         0.1546
     29 H11         3.4234   -5.9847    0.4943 H         1 <0>         0.1546
     30 H12         5.0393   -5.0223   -1.0957 H         1 <0>         0.1538
     31 H13         4.6941    0.9828   -0.1964 H         1 <0>         0.4438
@<TRIPOS>BOND
     1    1    6 ar
     2    1    2 ar
     3    1   19 1
     4    2    3 ar
     5    2   20 1
     6    3    4 ar
     7    3   21 1
     8    4    5 ar
     9    4    7 1
    10    5    6 ar
    11    5   22 1
    12    6   23 1
    13    7   14 1
    14    7    8 2
    15    8    9 1
    16    8   31 1
    17    9   10 1
    18    9   24 1
    19    9   25 1
    20   10   11 2
    21   10   12 am
    22   12   13 1
    23   12   26 1
    24   13   18 ar
    25   13   14 ar
    26   14   15 ar
    27   15   16 ar
    28   15   27 1
    29   16   17 ar
    30   16   28 1
    31   17   18 ar
    32   17   29 1
    33   18   30 1
@<TRIPOS>MOLECULE
ZINC02568376
   29    31     0     0     0
SMALL
USER_CHARGES

@<TRIPOS>ATOM
      1 C1         -0.0184    1.5028    0.0103 C.3       1 <0>        -0.0680
      2 C2          0.0021   -0.0041    0.0020 C.2       1 <0>         0.2116
      3 N1          0.0082   -0.7712   -1.0596 N.2       1 <0>        -0.2559
      4 N2          0.0264   -2.0109   -0.7129 N.2       1 <0>        -0.2444
      5 C3          0.0329   -2.0951    0.6074 C.2       1 <0>         0.1283
      6 N3          0.0233   -0.8071    1.0882 N.pl3     1 <0>        -0.2969
      7 N4          0.0332   -0.5736    2.4648 N.2       1 <0>        -0.2511
      8 C4          0.0550   -1.5791    3.3114 C.2       1 <0>         0.2153
      9 C5          0.0688   -2.9122    2.8491 C.2       1 <0>        -0.1624
     10 C6          0.0512   -3.1712    1.5149 C.2       1 <0>         0.0100
     11 C7          0.0657   -1.3091    4.7702 C.ar      1 <0>        -0.0577
     12 C8          0.0946   -2.3669    5.6772 C.ar      1 <0>        -0.0512
     13 C9          0.1049   -2.1099    7.0329 C.ar      1 <0>        -0.1182
     14 C10         0.0861   -0.8051    7.4924 C.ar      1 <0>        -0.0466
     15 C11         0.0575    0.2485    6.5969 C.ar      1 <0>        -0.1854
     16 C12         0.0527    0.0032    5.2385 C.ar      1 <0>        -0.0242
     17 C13         0.0372    1.6671    7.1050 C.3       1 <0>         0.5096
     18 F1          0.0523    1.6616    8.5039 F         1 <0>        -0.1740
     19 F2          1.1623    2.3490    6.6292 F         1 <0>        -0.1732
     20 F3         -1.1218    2.3076    6.6537 F         1 <0>        -0.1732
     21 H1          1.0042    1.8801    0.0026 H         1 <0>         0.0920
     22 H2         -0.5455    1.8639   -0.8728 H         1 <0>         0.1014
     23 H3         -0.5286    1.8543    0.9071 H         1 <0>         0.0862
     24 H4          0.0870   -3.7281    3.5565 H         1 <0>         0.1658
     25 H5          0.0633   -4.1895    1.1554 H         1 <0>         0.1743
     26 H6          0.1085   -3.3859    5.3196 H         1 <0>         0.1453
     27 H7          0.1273   -2.9288    7.7366 H         1 <0>         0.1484
     28 H8          0.0936   -0.6085    8.5543 H         1 <0>         0.1475
     29 H9          0.0344    0.8267    4.5400 H         1 <0>         0.1467
@<TRIPOS>BOND
     1    1    2 1
     2    1   21 1
     3    1   22 1
     4    1   23 1
     5    2    6 1
     6    2    3 2
     7    3    4 1
     8    4    5 2
     9    5   10 1
    10    5    6 1
    11    6    7 1
    12    7    8 2
    13    8    9 1
    14    8   11 1
    15    9   10 2
    16    9   24 1
    17   10   25 1
    18   11   16 ar
    19   11   12 ar
    20   12   13 ar
    21   12   26 1
    22   13   14 ar
    23   13   27 1
    24   14   15 ar
    25   14   28 1
    26   15   16 ar
    27   15   17 1
    28   16   29 1
    29   17   18 1
    30   17   19 1
    31   17   20 1
@<TRIPOS>MOLECULE
ZINC12428918
   38    39     0     0     0
SMALL
USER_CHARGES

@<TRIPOS>ATOM
      1 C1          0.9243   -0.1082    1.1034 C.ar      1 <0>        -0.0388
      2 C2          2.0615    0.6722    1.0951 C.ar      1 <0>        -0.1140
      3 C3          2.2376    1.6334    0.1138 C.ar      1 <0>         0.0170
      4 C4          1.2741    1.8167   -0.8640 C.ar      1 <0>        -0.1063
      5 C5          0.1330    1.0417   -0.8652 C.ar      1 <0>        -0.0504
      6 C6         -0.0495    0.0721    0.1209 C.ar      1 <0>        -0.1601
      7 C7         -1.2725   -0.7634    0.1245 C.2       1 <0>         0.4481
      8 N1         -2.4426   -0.2066   -0.0187 N.pl3     1 <0>        -0.5077
      9 C8         -2.5640    1.2533   -0.0194 C.3       1 <0>         0.0268
     10 C9         -3.0780    1.7216   -1.3823 C.3       1 <0>        -0.1126
     11 C10        -3.2048    3.2464   -1.3831 C.3       1 <0>        -0.1843
     12 C11        -3.7109    3.7076   -2.7256 C.2       1 <0>         0.4891
     13 O1         -3.9483    2.8924   -3.6005 O.co2     1 <0>        -0.6949
     14 O2         -3.8831    4.8960   -2.9366 O.co2     1 <0>        -0.6872
     15 C12        -1.1662   -2.2294    0.2904 C.ar      1 <0>        -0.1603
     16 C13        -1.6810   -2.8450    1.4322 C.ar      1 <0>        -0.0992
     17 C14        -1.5788   -4.2137    1.5813 C.ar      1 <0>         0.1031
     18 C15        -0.9658   -4.9789    0.6005 C.ar      1 <0>        -0.0878
     19 C16        -0.4532   -4.3794   -0.5331 C.ar      1 <0>        -0.1093
     20 C17        -0.5540   -3.0068   -0.6998 C.ar      1 <0>         0.1677
     21 O3         -0.0556   -2.4178   -1.8170 O.3       1 <0>        -0.4836
     22 F1         -2.0771   -4.8095    2.6867 F         1 <0>        -0.1203
     23 Cl1         3.6710    2.6127    0.1096 Cl        1 <0>        -0.0300
     24 H1          0.7900   -0.8606    1.8665 H         1 <0>         0.1493
     25 H2          2.8159    0.5337    1.8555 H         1 <0>         0.1549
     26 H3          1.4162    2.5679   -1.6267 H         1 <0>         0.1594
     27 H4         -0.6179    1.1857   -1.6279 H         1 <0>         0.1558
     28 H5         -3.2640    1.5601    0.7578 H         1 <0>         0.1302
     29 H6         -1.5883    1.6992    0.1737 H         1 <0>         0.1224
     30 H7         -2.3780    1.4148   -2.1596 H         1 <0>         0.0795
     31 H8         -4.0537    1.2758   -1.5755 H         1 <0>         0.0853
     32 H9         -3.9047    3.5532   -0.6059 H         1 <0>         0.0685
     33 H10        -2.2290    3.6922   -1.1900 H         1 <0>         0.0662
     34 H11        -2.1582   -2.2516    2.1980 H         1 <0>         0.1539
     35 H12        -0.8887   -6.0491    0.7240 H         1 <0>         0.1590
     36 H13         0.0228   -4.9813   -1.2930 H         1 <0>         0.1616
     37 H14         0.8688   -2.1449   -1.7387 H         1 <0>         0.4077
     38 H15        -3.2329   -0.7591   -0.1246 H         1 <0>         0.4414
@<TRIPOS>BOND
     1    1    6 ar
     2    1    2 ar
     3    1   24 1
     4    2    3 ar
     5    2   25 1
     6    3    4 ar
     7    3   23 1
     8    4    5 ar
     9    4   26 1
    10    5    6 ar
    11    5   27 1
    12    6    7 1
    13    7    8 2
    14    7   15 1
    15    8    9 1
    16    8   38 1
    17    9   10 1
    18    9   28 1
    19    9   29 1
    20   10   11 1
    21   10   30 1
    22   10   31 1
    23   11   12 1
    24   11   32 1
    25   11   33 1
    26   12   13 2
    27   12   14 1
    28   15   20 ar
    29   15   16 ar
    30   16   17 ar
    31   16   34 1
    32   17   18 ar
    33   17   22 1
    34   18   19 ar
    35   18   35 1
    36   19   20 ar
    37   19   36 1
    38   20   21 1
    39   21   37 1
@<TRIPOS>MOLECULE
ZINC04375654
   36    38     0     0     0
SMALL
USER_CHARGES
4-amino-2-methyl-6-phenyl-2,5-diazabicyclo[5.4.0]undeca-5,8,10,12-tetraen-3-one
@<TRIPOS>ATOM
      1 C1         -1.5479    1.4412   -0.1691 C.3       1 <0>         0.0533
      2 N1         -0.1437    1.0299   -0.0964 N.am      1 <0>        -0.5458
      3 C2          0.8176    2.0270   -0.1542 C.ar      1 <0>         0.1451
      4 C3          0.5638    3.2048    0.5519 C.ar      1 <0>        -0.1366
      5 C4          1.4709    4.2411    0.5385 C.ar      1 <0>        -0.0504
      6 C5          2.6500    4.1233   -0.1789 C.ar      1 <0>        -0.1155
      7 C6          2.9175    2.9703   -0.8796 C.ar      1 <0>        -0.0495
      8 C7          2.0035    1.9053   -0.8754 C.ar      1 <0>        -0.1884
      9 C8          2.3556    0.7015   -1.6444 C.2       1 <0>         0.3357
     10 N2          2.1481   -0.5065   -1.2558 N.2       1 <0>        -0.5217
     11 C9          1.5153   -0.8065    0.0280 C.3       1 <0>         0.1971
     12 H1          1.4947   -1.8851    0.1836 H         1 <0>         0.2010
     13 C10         0.1091   -0.2724    0.0146 C.2       1 <0>         0.4790
     14 O1         -0.8184   -1.0482    0.1077 O.2       1 <0>        -0.4601
     15 H2          3.2223   -0.5109    1.1403 H         1 <0>         0.4485
     16 H3          2.2557    0.8372    1.0221 H         1 <0>         0.4269
     17 C11         2.9978    0.8956   -2.9653 C.ar      1 <0>        -0.1060
     18 C12         2.8146    2.0885   -3.6644 C.ar      1 <0>        -0.0749
     19 C13         3.4188    2.2651   -4.8922 C.ar      1 <0>        -0.1237
     20 C14         4.1969    1.2580   -5.4347 C.ar      1 <0>        -0.0740
     21 C15         4.3784    0.0706   -4.7482 C.ar      1 <0>        -0.1259
     22 C16         3.7833   -0.1160   -3.5174 C.ar      1 <0>        -0.0555
     23 H4         -2.1876    0.5602   -0.1171 H         1 <0>         0.1095
     24 H5         -1.7756    2.1053    0.6646 H         1 <0>         0.0864
     25 H6         -1.7252    1.9639   -1.1090 H         1 <0>         0.0848
     26 H7         -0.3532    3.3042    1.1138 H         1 <0>         0.1490
     27 H8          1.2627    5.1469    1.0885 H         1 <0>         0.1507
     28 H9          3.3597    4.9374   -0.1881 H         1 <0>         0.1505
     29 H10         3.8382    2.8839   -1.4375 H         1 <0>         0.1511
     30 H11         2.2037    2.8737   -3.2439 H         1 <0>         0.1301
     31 H12         3.2807    3.1898   -5.4328 H         1 <0>         0.1366
     32 H13         4.6641    1.3991   -6.3981 H         1 <0>         0.1357
     33 H14         4.9869   -0.7120   -5.1768 H         1 <0>         0.1367
     34 H15         3.9252   -1.0436   -2.9828 H         1 <0>         0.1371
     35 N3          2.2605   -0.1755    1.1316 N.4       1 <0>        -0.6650
     36 H16         1.8130   -0.4182    2.0232 H         1 <0>         0.4481
@<TRIPOS>BOND
     1    1    2 1
     2    1   23 1
     3    1   24 1
     4    1   25 1
     5    2   13 am
     6    2    3 1
     7    3    8 ar
     8    3    4 ar
     9    4    5 ar
    10    4   26 1
    11    5    6 ar
    12    5   27 1
    13    6    7 ar
    14    6   28 1
    15    7    8 ar
    16    7   29 1
    17    8    9 1
    18    9   10 2
    19    9   17 1
    20   10   11 1
    21   11   12 1
    22   11   13 1
    23   11   35 1
    24   13   14 2
    25   15   35 1
    26   16   35 1
    27   17   22 ar
    28   17   18 ar
    29   18   19 ar
    30   18   30 1
    31   19   20 ar
    32   19   31 1
    33   20   21 ar
    34   20   32 1
    35   21   22 ar
    36   21   33 1
    37   22   34 1
    38   35   36 1
@<TRIPOS>MOLECULE
ZINC00017712
   31    34     0     0     0
SMALL
USER_CHARGES

@<TRIPOS>ATOM
      1 C1         -0.0167    1.3786    0.0096 C.ar      1 <0>        -0.1092
      2 C2          1.1696    2.0892    0.0021 C.ar      1 <0>        -0.1001
      3 C3          2.3774    1.4193   -0.0130 C.ar      1 <0>        -0.0981
      4 C4          2.3995    0.0309   -0.0207 C.ar      1 <0>         0.1282
      5 C5          1.2065   -0.6797   -0.0132 C.ar      1 <0>        -0.1157
      6 C6          0.0021   -0.0041    0.0020 C.ar      1 <0>        -0.0981
      7 N1          3.6229   -0.6515   -0.0366 N.pl3     1 <0>        -0.2956
      8 C7          3.8643   -1.8237    0.5828 C.2       1 <0>         0.3388
      9 C8          5.1844   -2.1680    0.3306 C.ar      1 <0>        -0.2862
     10 C9          6.0269   -3.2415    0.6822 C.ar      1 <0>         0.2605
     11 N2          7.2663   -3.2976    0.2854 N.ar      1 <0>        -0.5063
     12 C10         7.8590   -2.3572   -0.4849 C.ar      1 <0>         0.1523
     13 C11         9.1999   -2.4973   -0.8668 C.ar      1 <0>        -0.0868
     14 C12         9.7937   -1.5459   -1.6444 C.ar      1 <0>        -0.0684
     15 C13         9.0871   -0.4283   -2.0700 C.ar      1 <0>        -0.0998
     16 C14         7.7663   -0.2613   -1.7113 C.ar      1 <0>        -0.0438
     17 C15         7.1423   -1.2208   -0.9184 C.ar      1 <0>        -0.0631
     18 C16         5.7364   -1.0888   -0.5088 C.ar      1 <0>         0.1487
     19 N3          4.7763   -0.2208   -0.7032 N.2       1 <0>        -0.2534
     20 Br1         9.9411    0.8710   -3.1462 Br        1 <0>        -0.0397
     21 O1          2.9785   -2.5366    1.3188 O.3       1 <0>        -0.4489
     22 H1         -0.9598    1.9047    0.0260 H         1 <0>         0.1345
     23 H2          1.1517    3.1690    0.0077 H         1 <0>         0.1376
     24 H3          3.3035    1.9748   -0.0193 H         1 <0>         0.1372
     25 H4          1.2205   -1.7596   -0.0195 H         1 <0>         0.1267
     26 H5         -0.9261   -0.5562    0.0083 H         1 <0>         0.1380
     27 H6          5.6349   -4.0382    1.2970 H         1 <0>         0.1678
     28 H7          9.7647   -3.3597   -0.5448 H         1 <0>         0.1487
     29 H8         10.8278   -1.6635   -1.9328 H         1 <0>         0.1428
     30 H9          7.2190    0.6087   -2.0431 H         1 <0>         0.1418
     31 H10         2.4689   -3.1794    0.8068 H         1 <0>         0.4098
@<TRIPOS>BOND
     1    1    6 ar
     2    1    2 ar
     3    1   22 1
     4    2    3 ar
     5    2   23 1
     6    3    4 ar
     7    3   24 1
     8    4    5 ar
     9    4    7 1
    10    5    6 ar
    11    5   25 1
    12    6   26 1
    13    7   19 1
    14    7    8 1
    15    8    9 2
    16    8   21 1
    17    9   18 ar
    18    9   10 ar
    19   10   11 ar
    20   10   27 1
    21   11   12 ar
    22   12   17 ar
    23   12   13 ar
    24   13   14 ar
    25   13   28 1
    26   14   15 ar
    27   14   29 1
    28   15   16 ar
    29   15   20 1
    30   16   17 ar
    31   16   30 1
    32   17   18 ar
    33   18   19 2
    34   21   31 1
@<TRIPOS>MOLECULE
ZINC04555661
   35    37     0     0     0
SMALL
USER_CHARGES

@<TRIPOS>ATOM
      1 C1         -0.0187    1.5258    0.0104 C.3       1 <0>        -0.1480
      2 C2          0.0021   -0.0041    0.0020 C.3       1 <0>        -0.0576
      3 C3          0.6993   -0.4945   -1.2708 C.3       1 <0>        -0.0529
      4 C4          2.1373    0.0064   -1.2330 C.2       1 <0>        -0.0218
      5 C5          2.8137    0.2716    0.0389 C.2       1 <0>        -0.2140
      6 C6          4.1281    0.7365   -0.0555 C.2       1 <0>        -0.1810
      7 S1          4.4392    0.8061   -1.7003 S.3       1 <0>         0.2377
      8 C7          2.8819    0.2404   -2.3430 C.2       1 <0>        -0.1365
      9 C8          2.4890    0.0654   -3.7580 C.2       1 <0>         0.1603
     10 C9          3.3019    0.3171   -4.8826 C.2       1 <0>        -0.2634
     11 C10         2.5785    0.0349   -5.9874 C.2       1 <0>         0.0688
     12 N1          1.3555   -0.3796   -5.5916 N.pl3     1 <0>        -0.4712
     13 H1          0.6294   -0.6487   -6.1758 H         1 <0>         0.4435
     14 N2          1.3190   -0.3589   -4.1916 N.2       1 <0>        -0.2734
     15 S2          5.2176    1.1572    1.2638 S.3       1 <0>         0.0653
     16 C11         6.7404    1.6774    0.4266 C.3       1 <0>        -0.1918
     17 C12         2.1429    0.0491    1.2810 C.2       1 <0>         0.4142
     18 O1          2.6856    0.3000    2.3386 O.2       1 <0>        -0.4528
     19 C13         0.7412   -0.5061    1.2403 C.3       1 <0>        -0.1531
     20 C14        -1.4346   -0.5298    0.0223 C.3       1 <0>        -0.1416
     21 H2          1.0039    1.9031    0.0027 H         1 <0>         0.0565
     22 H3         -0.5459    1.8868   -0.8726 H         1 <0>         0.0601
     23 H4         -0.5289    1.8773    0.9072 H         1 <0>         0.0586
     24 H5          0.6882   -1.5840   -1.3019 H         1 <0>         0.0868
     25 H6          0.1915   -0.0938   -2.1481 H         1 <0>         0.0995
     26 H7          4.3215    0.6726   -4.8636 H         1 <0>         0.1503
     27 H8          2.9183    0.1252   -7.0086 H         1 <0>         0.1821
     28 H9          6.5275    2.5302   -0.2180 H         1 <0>         0.0899
     29 H10         7.4852    1.9609    1.1702 H         1 <0>         0.1212
     30 H11         7.1236    0.8535   -0.1756 H         1 <0>         0.0898
     31 H12         0.2029   -0.1893    2.1335 H         1 <0>         0.0948
     32 H13         0.7863   -1.5949    1.2154 H         1 <0>         0.0994
     33 H14        -1.9666   -0.1675   -0.8574 H         1 <0>         0.0612
     34 H15        -1.4227   -1.6198    0.0163 H         1 <0>         0.0589
     35 H16        -1.9380   -0.1769    0.9223 H         1 <0>         0.0599
@<TRIPOS>BOND
     1    1    2 1
     2    1   21 1
     3    1   22 1
     4    1   23 1
     5    2   19 1
     6    2    3 1
     7    2   20 1
     8    3    4 1
     9    3   24 1
    10    3   25 1
    11    4    8 2
    12    4    5 1
    13    5    6 2
    14    5   17 1
    15    6    7 1
    16    6   15 1
    17    7    8 1
    18    8    9 1
    19    9   14 2
    20    9   10 1
    21   10   11 2
    22   10   26 1
    23   11   12 1
    24   11   27 1
    25   12   13 1
    26   12   14 1
    27   15   16 1
    28   16   28 1
    29   16   29 1
    30   16   30 1
    31   17   18 2
    32   17   19 1
    33   19   31 1
    34   19   32 1
    35   20   33 1
    36   20   34 1
    37   20   35 1
@<TRIPOS>MOLECULE
ZINC01553345
   38    40     0     0     0
SMALL
USER_CHARGES

@<TRIPOS>ATOM
      1 C1         -1.4885    7.5122    2.1847 C.3       1 <0>        -0.1499
      2 C2         -2.0018    7.4760    0.7438 C.3       1 <0>        -0.0596
      3 C3         -1.5033    6.1996    0.0601 C.3       1 <0>        -0.0584
      4 C4          0.0208    6.2519    0.0274 C.2       1 <0>         0.0098
      5 C5          0.7285    7.5308    0.0254 C.2       1 <0>        -0.2084
      6 C6          2.1283    7.4623    0.0163 C.2       1 <0>        -0.1426
      7 S1          2.4602    5.7656    0.0077 S.3       1 <0>         0.1995
      8 C7          0.7984    5.1332    0.0204 C.2       1 <0>        -0.1381
      9 C8          0.3639    3.7281    0.0175 C.2       1 <0>         0.1931
     10 N1         -0.8658    3.2257    0.0263 N.2       1 <0>        -0.4891
     11 C9         -1.0700    1.9284    0.0166 C.2       1 <0>         0.0310
     12 C10        -0.0126    1.0758    0.0080 C.2       1 <0>        -0.1956
     13 S2          1.3486    2.2358    0.0012 S.3       1 <0>         0.0174
     14 S3          3.2811    8.7948    0.0141 S.3       1 <0>         0.1094
     15 C11         4.8347    7.8662    0.0015 C.3       1 <0>        -0.1721
     16 C12         6.0125    8.8428   -0.0021 C.3       1 <0>         0.0961
     17 O1          7.2391    8.1097   -0.0121 O.3       1 <0>        -0.5674
     18 C13         0.0077    8.7662    0.0295 C.2       1 <0>         0.4141
     19 O2          0.5925    9.8306    0.0586 O.2       1 <0>        -0.4497
     20 C14        -1.4988    8.7095   -0.0030 C.3       1 <0>        -0.1440
     21 C15        -3.5318    7.4799    0.7550 C.3       1 <0>        -0.1417
     22 H1         -1.8551    8.4121    2.6785 H         1 <0>         0.0603
     23 H2         -1.8463    6.6327    2.7200 H         1 <0>         0.0623
     24 H3         -0.3985    7.5175    2.1820 H         1 <0>         0.0555
     25 H4         -1.8328    5.3263    0.6230 H         1 <0>         0.1062
     26 H5         -1.8904    6.1505   -0.9576 H         1 <0>         0.0918
     27 H6         -2.0777    1.5398    0.0189 H         1 <0>         0.1741
     28 H7          0.0021   -0.0041    0.0020 H         1 <0>         0.2026
     29 H8          4.8883    7.2356    0.8889 H         1 <0>         0.1043
     30 H9          4.8776    7.2419   -0.8910 H         1 <0>         0.1042
     31 H10         5.9589    9.4734   -0.8895 H         1 <0>         0.0607
     32 H11         5.9696    9.4671    0.8904 H         1 <0>         0.0608
     33 H12         8.0299    8.6662   -0.0149 H         1 <0>         0.3897
     34 H13        -1.8630    9.5335    0.4310 H         1 <0>         0.0877
     35 H14        -1.8356    8.6661   -1.0387 H         1 <0>         0.1022
     36 H15        -3.9027    7.4622   -0.2698 H         1 <0>         0.0600
     37 H16        -3.8934    6.6003    1.2876 H         1 <0>         0.0630
     38 H17        -3.8891    8.3800    1.2553 H         1 <0>         0.0607
@<TRIPOS>BOND
     1    1    2 1
     2    1   22 1
     3    1   23 1
     4    1   24 1
     5    2   20 1
     6    2    3 1
     7    2   21 1
     8    3    4 1
     9    3   25 1
    10    3   26 1
    11    4    8 2
    12    4    5 1
    13    5    6 2
    14    5   18 1
    15    6    7 1
    16    6   14 1
    17    7    8 1
    18    8    9 1
    19    9   13 1
    20    9   10 2
    21   10   11 1
    22   11   12 2
    23   11   27 1
    24   12   13 1
    25   12   28 1
    26   14   15 1
    27   15   16 1
    28   15   29 1
    29   15   30 1
    30   16   17 1
    31   16   31 1
    32   16   32 1
    33   17   33 1
    34   18   19 2
    35   18   20 1
    36   20   34 1
    37   20   35 1
    38   21   36 1
    39   21   37 1
    40   21   38 1
@<TRIPOS>MOLECULE
ZINC06116830
   31    34     0     0     0
SMALL
USER_CHARGES

@<TRIPOS>ATOM
      1 C1         -0.0167    1.3787    0.0096 C.ar      1 <0>        -0.1327
      2 C2          1.1696    2.0894    0.0021 C.ar      1 <0>        -0.0965
      3 C3          2.3774    1.4199   -0.0130 C.ar      1 <0>        -0.1294
      4 C4          2.3997    0.0311   -0.0207 C.ar      1 <0>         0.1617
      5 C5          1.2064   -0.6798   -0.0132 C.ar      1 <0>        -0.1479
      6 C6          0.0021   -0.0041    0.0020 C.ar      1 <0>        -0.0920
      7 N1          3.6219   -0.6505   -0.0365 N.am      1 <0>        -0.4119
      8 C7          3.7466   -1.9989   -0.0504 C.2       1 <0>         0.5203
      9 O1          2.8666   -2.8222    0.0884 O.2       1 <0>        -0.4581
     10 C8          5.2111   -2.2553   -0.2756 C.3       1 <0>        -0.1767
     11 H1          5.3894   -2.6474   -1.2769 H         1 <0>         0.1739
     12 C9          5.8444   -3.1341    0.7662 C.2       1 <0>         0.2097
     13 N2          7.0512   -2.9179    1.1732 N.2       1 <0>        -0.4777
     14 C10         7.8612   -1.9112    0.7343 C.ar      1 <0>         0.1051
     15 C11         9.2421   -1.9525    0.8942 C.ar      1 <0>        -0.0788
     16 C12        10.0161   -0.8928    0.4645 C.ar      1 <0>        -0.0921
     17 C13         9.4408    0.2208   -0.1264 C.ar      1 <0>        -0.1117
     18 C14         8.0704    0.2820   -0.3105 C.ar      1 <0>        -0.0636
     19 C15         7.2859   -0.7776    0.0996 C.ar      1 <0>        -0.0651
     20 C16         5.8307   -0.8661   -0.1086 C.2       1 <0>         0.1408
     21 N3          4.8735   -0.0286   -0.0461 N.2       1 <0>        -0.1953
     22 H2         -0.9598    1.9047    0.0260 H         1 <0>         0.1280
     23 H3          1.1515    3.1693    0.0077 H         1 <0>         0.1312
     24 H4          3.3034    1.9756   -0.0193 H         1 <0>         0.1348
     25 H5          1.2204   -1.7596   -0.0191 H         1 <0>         0.1507
     26 H6         -0.9261   -0.5562    0.0079 H         1 <0>         0.1325
     27 H7          5.2824   -3.9579    1.1807 H         1 <0>         0.1840
     28 H8          9.7082   -2.8118    1.3532 H         1 <0>         0.1424
     29 H9         11.0878   -0.9324    0.5914 H         1 <0>         0.1377
     30 H10        10.0638    1.0438   -0.4439 H         1 <0>         0.1382
     31 H11         7.6196    1.1491   -0.7700 H         1 <0>         0.1383
@<TRIPOS>BOND
     1    1    6 ar
     2    1    2 ar
     3    1   22 1
     4    2    3 ar
     5    2   23 1
     6    3    4 ar
     7    3   24 1
     8    4    5 ar
     9    4    7 1
    10    5    6 ar
    11    5   25 1
    12    6   26 1
    13    7   21 1
    14    7    8 am
    15    8    9 2
    16    8   10 1
    17   10   11 1
    18   10   20 1
    19   10   12 1
    20   12   13 2
    21   12   27 1
    22   13   14 1
    23   14   19 ar
    24   14   15 ar
    25   15   16 ar
    26   15   28 1
    27   16   17 ar
    28   16   29 1
    29   17   18 ar
    30   17   30 1
    31   18   19 ar
    32   18   31 1
    33   19   20 1
    34   20   21 2
@<TRIPOS>MOLECULE
ZINC01255325
   30    32     0     0     0
SMALL
USER_CHARGES

@<TRIPOS>ATOM
      1 C1          1.7779    1.4018    1.0412 C.ar      1 <0>        -0.1145
      2 C2          1.1699    2.0868    0.0037 C.ar      1 <0>        -0.0924
      3 C3          0.5873    1.3949   -1.0421 C.ar      1 <0>        -0.1103
      4 C4          0.6091    0.0135   -1.0569 C.ar      1 <0>        -0.0118
      5 C5          1.2209   -0.6824   -0.0132 C.ar      1 <0>        -0.0516
      6 C6          1.8065    0.0227    1.0384 C.ar      1 <0>        -0.0738
      7 C7          1.2478   -2.1633   -0.0218 C.2       1 <0>         0.2726
      8 N1          2.3938   -2.7449   -0.1304 N.2       1 <0>        -0.4796
      9 C8          2.5065   -4.2032   -0.1662 C.3       1 <0>         0.0490
     10 C9          1.7863   -4.7140   -1.3824 C.2       1 <0>         0.3924
     11 N2          0.5199   -4.5923   -1.5337 N.2       1 <0>        -0.5827
     12 C10        -0.3342   -4.0316   -0.6352 C.ar      1 <0>         0.1780
     13 C11        -0.0336   -2.8751    0.0999 C.ar      1 <0>        -0.1381
     14 C12        -0.9832   -2.3592    0.9930 C.ar      1 <0>        -0.0571
     15 C13        -2.1979   -2.9858    1.1624 C.ar      1 <0>        -0.0492
     16 C14        -2.4930   -4.1382    0.4500 C.ar      1 <0>        -0.0756
     17 C15        -1.5752   -4.6577   -0.4479 C.ar      1 <0>        -0.1035
     18 Cl1        -3.3624   -2.3314    2.2712 Cl        1 <0>        -0.0596
     19 O1          2.4997   -5.3226   -2.3508 O.3       1 <0>        -0.4545
     20 Cl2        -0.1232   -0.8543   -2.3701 Cl        1 <0>        -0.0550
     21 H1          2.2351    1.9484    1.8527 H         1 <0>         0.1365
     22 H2          1.1501    3.1666    0.0111 H         1 <0>         0.1373
     23 H3          0.1140    1.9352   -1.8486 H         1 <0>         0.1394
     24 H4          2.2817   -0.5102    1.8487 H         1 <0>         0.1363
     25 H5          3.5576   -4.4873   -0.2176 H         1 <0>         0.1285
     26 H6          2.0547   -4.6268    0.7308 H         1 <0>         0.1000
     27 H7         -0.7604   -1.4627    1.5526 H         1 <0>         0.1388
     28 H8         -3.4445   -4.6293    0.5906 H         1 <0>         0.1437
     29 H9         -1.8109   -5.5552   -1.0004 H         1 <0>         0.1439
     30 H10         1.9683   -5.6237   -3.1005 H         1 <0>         0.4125
@<TRIPOS>BOND
     1    1    6 ar
     2    1    2 ar
     3    1   21 1
     4    2    3 ar
     5    2   22 1
     6    3    4 ar
     7    3   23 1
     8    4    5 ar
     9    4   20 1
    10    5    6 ar
    11    5    7 1
    12    6   24 1
    13    7   13 1
    14    7    8 2
    15    8    9 1
    16    9   10 1
    17    9   25 1
    18    9   26 1
    19   10   11 2
    20   10   19 1
    21   11   12 1
    22   12   17 ar
    23   12   13 ar
    24   13   14 ar
    25   14   15 ar
    26   14   27 1
    27   15   16 ar
    28   15   18 1
    29   16   17 ar
    30   16   28 1
    31   17   29 1
    32   19   30 1
@<TRIPOS>MOLECULE
ZINC22064260
   14    14     0     0     0
SMALL
USER_CHARGES

@<TRIPOS>ATOM
      1 C1         -0.0171    1.4078    0.0098 C.2       1 <0>        -0.2462
      2 C2          1.2556    1.8427   -0.0000 C.2       1 <0>        -0.0707
      3 O1          2.0635    0.7709   -0.0135 O.3       1 <0>        -0.1200
      4 N1          1.2514   -0.3892   -0.0120 N.2       1 <0>        -0.4098
      5 C3          0.0021   -0.0041    0.0020 C.2       1 <0>         0.3437
      6 O2         -1.0842   -0.8174    0.0080 O.3       1 <0>        -0.6956
      7 C4          1.6978    3.2834    0.0030 C.3       1 <0>         0.0917
      8 N2          1.8546    3.7445    1.3889 N.4       1 <0>        -0.6348
      9 H1         -0.8997    2.0299    0.0256 H         1 <0>         0.1394
     10 H2          2.6504    3.3722   -0.5194 H         1 <0>         0.1450
     11 H3          0.9488    3.8944   -0.5007 H         1 <0>         0.1492
     12 H4          2.1507    4.7091    1.3910 H         1 <0>         0.4342
     13 H5          0.9728    3.6623    1.8725 H         1 <0>         0.4360
     14 H6          2.5479    3.1789    1.8552 H         1 <0>         0.4380
@<TRIPOS>BOND
     1    1    5 1
     2    1    2 2
     3    1    9 1
     4    2    3 1
     5    2    7 1
     6    3    4 1
     7    4    5 2
     8    5    6 1
     9    7    8 1
    10    7   10 1
    11    7   11 1
    12    8   12 1
    13    8   13 1
    14    8   14 1
@<TRIPOS>MOLECULE
ZINC00057674
   27    29     0     0     0
SMALL
USER_CHARGES

@<TRIPOS>ATOM
      1 C1         -0.0167    1.3795    0.0096 C.ar      1 <0>        -0.0927
      2 C2          1.1683    2.0941    0.0021 C.ar      1 <0>        -0.1234
      3 C3          2.3774    1.4305   -0.0134 C.ar      1 <0>        -0.0788
      4 C4          2.4038    0.0341   -0.0211 C.ar      1 <0>        -0.0759
      5 C5          1.2040   -0.6806   -0.0130 C.ar      1 <0>        -0.0797
      6 C6          0.0021   -0.0041    0.0020 C.ar      1 <0>        -0.1211
      7 C7          3.6944   -0.6832   -0.0382 C.2       1 <0>         0.2130
      8 C8          3.6862   -2.0434   -0.0509 C.2       1 <0>        -0.3188
      9 C9          4.9130   -2.7475   -0.0679 C.2       1 <0>         0.4216
     10 O1          4.9443   -3.9668   -0.0801 O.2       1 <0>        -0.4694
     11 C10         6.1541   -1.9476   -0.0708 C.ar      1 <0>        -0.2229
     12 C11         7.4082   -2.5556   -0.0877 C.ar      1 <0>        -0.0309
     13 C12         8.5427   -1.7738   -0.0903 C.ar      1 <0>        -0.1474
     14 C13         8.4391   -0.3905   -0.0763 C.ar      1 <0>        -0.0567
     15 C14         7.2043    0.2225   -0.0592 C.ar      1 <0>        -0.1399
     16 C15         6.0479   -0.5480   -0.0567 C.ar      1 <0>         0.1453
     17 O2          4.8296    0.0320   -0.0461 O.3       1 <0>        -0.2207
     18 H1         -0.9606    1.9042    0.0260 H         1 <0>         0.1308
     19 H2          1.1464    3.1738    0.0081 H         1 <0>         0.1325
     20 H3          3.3015    1.9894   -0.0199 H         1 <0>         0.1349
     21 H4          1.2172   -1.7605   -0.0192 H         1 <0>         0.1361
     22 H5         -0.9265   -0.5555    0.0082 H         1 <0>         0.1346
     23 H6          2.7500   -2.5817   -0.0478 H         1 <0>         0.1622
     24 H7          7.4901   -3.6324   -0.0982 H         1 <0>         0.1431
     25 H8          9.5169   -2.2399   -0.1029 H         1 <0>         0.1378
     26 H9          9.3351    0.2126   -0.0785 H         1 <0>         0.1423
     27 H10         7.1359    1.3003   -0.0477 H         1 <0>         0.1443
@<TRIPOS>BOND
     1    1    6 ar
     2    1    2 ar
     3    1   18 1
     4    2    3 ar
     5    2   19 1
     6    3    4 ar
     7    3   20 1
     8    4    5 ar
     9    4    7 1
    10    5    6 ar
    11    5   21 1
    12    6   22 1
    13    7   17 1
    14    7    8 2
    15    8    9 1
    16    8   23 1
    17    9   10 2
    18    9   11 1
    19   11   16 ar
    20   11   12 ar
    21   12   13 ar
    22   12   24 1
    23   13   14 ar
    24   13   25 1
    25   14   15 ar
    26   14   26 1
    27   15   16 ar
    28   15   27 1
    29   16   17 1
@<TRIPOS>MOLECULE
ZINC01706201
   19    18     0     0     0
SMALL
USER_CHARGES
(4R)-4-aminopentanoic acid
@<TRIPOS>ATOM
      1 C1         -0.0638    0.9713    2.5033 C.3       1 <0>        -0.1808
      2 C2         -0.7288    1.5792    1.2668 C.3       1 <0>         0.0285
      3 H1         -1.7755    1.2768    1.2315 H         1 <0>         0.1358
      4 C3         -0.0127    1.0858    0.0080 C.3       1 <0>        -0.1252
      5 C4         -0.7527    1.5927   -1.2315 C.3       1 <0>        -0.1748
      6 C5         -0.0473    1.1067   -2.4714 C.2       1 <0>         0.4538
      7 O1          0.9454    0.4249   -2.3737 O.co2     1 <0>        -0.6319
      8 H2          0.9829    1.2737    2.5386 H         1 <0>         0.0799
      9 H3         -0.5739    1.3228    3.4001 H         1 <0>         0.0752
     10 H4         -0.1264   -0.1157    2.4522 H         1 <0>         0.1041
     11 H5          0.0021   -0.0041    0.0020 H         1 <0>         0.1106
     12 H6          1.0099    1.4631    0.0003 H         1 <0>         0.0872
     13 H7         -1.7753    1.2154   -1.2238 H         1 <0>         0.0778
     14 H8         -0.7675    2.6825   -1.2255 H         1 <0>         0.0582
     15 H9          0.3165    3.3498    1.3694 H         1 <0>         0.4330
     16 H10        -1.1329    3.4713    0.5630 H         1 <0>         0.4375
     17 O2         -0.5219    1.4312   -3.6843 O.co2     1 <0>        -0.7560
     18 N1         -0.6564    3.0482    1.3577 N.4       1 <0>        -0.6443
     19 H11        -1.1129    3.3556    2.2245 H         1 <0>         0.4315
@<TRIPOS>BOND
     1    1    2 1
     2    1    8 1
     3    1    9 1
     4    1   10 1
     5    2    3 1
     6    2    4 1
     7    2   18 1
     8    4    5 1
     9    4   11 1
    10    4   12 1
    11    5    6 1
    12    5   13 1
    13    5   14 1
    14    6    7 2
    15    6   17 1
    16   15   18 1
    17   16   18 1
    18   18   19 1
@<TRIPOS>MOLECULE
ZINC28770773
   17    17     0     0     0
SMALL
USER_CHARGES
5-[(1R)-1-aminoethyl]isoxazol-3-ol
@<TRIPOS>ATOM
      1 C1          1.5753   -2.5003    1.3937 C.3       1 <0>        -0.1797
      2 C2          1.6638   -1.9335   -0.0247 C.3       1 <0>         0.1569
      3 H1          2.6846   -2.0278   -0.4235 H         1 <0>         0.1443
      4 C3          1.2543   -0.4832   -0.0125 C.2       1 <0>        -0.1635
      5 C4          2.0782    0.5897   -0.0146 C.2       1 <0>        -0.2531
      6 C5          1.1943    1.7001   -0.0002 C.2       1 <0>         0.3138
      7 N1         -0.0143    1.2049    0.0087 N.2       1 <0>        -0.4713
      8 O1          0.0021   -0.0041    0.0020 O.3       1 <0>         0.0610
      9 O2          1.5365    3.0134    0.0032 O.3       1 <0>        -0.7075
     10 N2          0.7671   -2.6881   -0.9104 N.4       1 <0>        -0.6850
     11 H2          1.8742   -3.5589    1.3848 H         1 <0>         0.0808
     12 H3          0.5413   -2.4143    1.7591 H         1 <0>         0.0841
     13 H4          2.2468   -1.9352    2.0569 H         1 <0>         0.1044
     14 H5          3.1581    0.5991   -0.0249 H         1 <0>         0.1485
     15 H6          0.8307   -2.2806   -1.9301 H         1 <0>         0.4590
     16 H7         -0.2669   -2.6021   -0.5450 H         1 <0>         0.4573
     17 H8          1.0660   -3.7467   -0.9192 H         1 <0>         0.4500
@<TRIPOS>BOND
     1    1    2 1
     2    1   11 1
     3    1   12 1
     4    1   13 1
     5    2    3 1
     6    2    4 1
     7    2   10 1
     8    4    8 1
     9    4    5 2
    10    5    6 1
    11    5   14 1
    12    6    7 2
    13    6    9 1
    14    7    8 1
    15   10   15 1
    16   10   16 1
    17   10   17 1
@<TRIPOS>MOLECULE
ZINC03581353
   19    18     0     0     0
SMALL
USER_CHARGES
(4S)-4-aminopentanoic acid
@<TRIPOS>ATOM
      1 C1         -0.7527    1.5927   -1.2315 C.3       1 <0>        -0.1808
      2 C2         -0.0127    1.0858    0.0080 C.3       1 <0>         0.0283
      3 H1          0.0021   -0.0041    0.0020 H         1 <0>         0.1390
      4 C3          1.4227    1.6154   -0.0028 C.3       1 <0>        -0.1284
      5 C4          2.1988    1.0094    1.1682 C.3       1 <0>        -0.1747
      6 C5          3.6126    1.5310    1.1575 C.2       1 <0>         0.4538
      7 O1          3.9634    2.3078    0.3011 O.co2     1 <0>        -0.6317
      8 H2         -0.2425    1.2411   -2.1283 H         1 <0>         0.1040
      9 H3         -1.7753    1.2154   -1.2238 H         1 <0>         0.0754
     10 H4         -0.7675    2.6825   -1.2255 H         1 <0>         0.0796
     11 H5          1.9050    1.3387   -0.9404 H         1 <0>         0.1104
     12 H6          1.4101    2.7011    0.0927 H         1 <0>         0.0873
     13 H7          1.7165    1.2860    2.1057 H         1 <0>         0.0579
     14 H8          2.2113   -0.0764    1.0727 H         1 <0>         0.0783
     15 H9         -1.6510    1.2229    1.2472 H         1 <0>         0.4294
     16 H10        -0.1952    1.2924    2.0482 H         1 <0>         0.4374
     17 O2          4.4820    1.1326    2.0993 O.co2     1 <0>        -0.7556
     18 N1         -0.6993    1.5846    1.2126 N.4       1 <0>        -0.6446
     19 H11        -0.7316    2.6104    1.1824 H         1 <0>         0.4347
@<TRIPOS>BOND
     1    1    2 1
     2    1    8 1
     3    1    9 1
     4    1   10 1
     5    2    3 1
     6    2    4 1
     7    2   18 1
     8    4    5 1
     9    4   11 1
    10    4   12 1
    11    5    6 1
    12    5   13 1
    13    5   14 1
    14    6    7 2
    15    6   17 1
    16   15   18 1
    17   16   18 1
    18   18   19 1
@<TRIPOS>MOLECULE
ZINC29205507
   17    17     0     0     0
SMALL
USER_CHARGES
5-[(1S)-1-aminoethyl]isoxazol-3-ol
@<TRIPOS>ATOM
      1 C1          3.0703    1.6540    1.4029 C.3       1 <0>        -0.1796
      2 C2          2.5006    1.5463   -0.0131 C.3       1 <0>         0.1569
      3 H1          2.6162    0.5260   -0.4076 H         1 <0>         0.1443
      4 C3          1.0417    1.9234    0.0024 C.2       1 <0>        -0.1636
      5 C4         -0.0126    1.0758    0.0080 C.2       1 <0>        -0.2530
      6 C5         -1.1424    1.9347    0.0171 C.2       1 <0>         0.3138
      7 N1         -0.6743    3.1541    0.0247 N.2       1 <0>        -0.4713
      8 O1          0.5347    3.1647    0.0135 O.3       1 <0>         0.0611
      9 O2         -2.4477    1.5634    0.0206 O.3       1 <0>        -0.7075
     10 N2          3.2319    2.4555   -0.9056 N.4       1 <0>        -0.6850
     11 H2          4.1352    1.3787    1.3916 H         1 <0>         0.0808
     12 H3          2.5227    0.9732    2.0712 H         1 <0>         0.1043
     13 H4          2.9625    2.6875    1.7638 H         1 <0>         0.0841
     14 H5          0.0021   -0.0041    0.0020 H         1 <0>         0.1485
     15 H6          2.8223    2.3781   -1.9236 H         1 <0>         0.4591
     16 H7          4.2968    2.1802   -0.9169 H         1 <0>         0.4500
     17 H8          3.1241    3.4890   -0.5446 H         1 <0>         0.4573
@<TRIPOS>BOND
     1    1    2 1
     2    1   11 1
     3    1   12 1
     4    1   13 1
     5    2    3 1
     6    2    4 1
     7    2   10 1
     8    4    8 1
     9    4    5 2
    10    5    6 1
    11    5   14 1
    12    6    7 2
    13    6    9 1
    14    7    8 1
    15   10   15 1
    16   10   16 1
    17   10   17 1
@<TRIPOS>MOLECULE
ZINC04163034
   44    46     0     0     0
SMALL
USER_CHARGES
ethyl 1-[2-(1H-indol-3-yl)-2-oxo-acetyl]piperidine-3-carboxylate
@<TRIPOS>ATOM
      1 C1          4.0097  -11.0316    1.6240 C.3       1 <0>        -0.1542
      2 C2          2.4881  -10.8873    1.5542 C.3       1 <0>         0.0614
      3 O1          2.1368   -9.4790    1.5146 O.3       1 <0>        -0.3559
      4 C3          0.8301   -9.1784    1.4516 C.2       1 <0>         0.4689
      5 O2          0.0072  -10.0628    1.4303 O.2       1 <0>        -0.4993
      6 C4          0.3896   -7.7379    1.4075 C.3       1 <0>        -0.0944
      7 H1          0.7357   -7.2236    2.3040 H         1 <0>         0.1149
      8 C5         -1.1379   -7.6728    1.3388 C.3       1 <0>        -0.1071
      9 C6         -1.5878   -6.2101    1.3271 C.3       1 <0>        -0.1341
     10 C7         -1.0179   -5.5147    0.0867 C.3       1 <0>         0.0966
     11 N1          0.4398   -5.6978    0.0698 N.am      1 <0>        -0.5975
     12 C8          0.9818   -7.0603    0.1624 C.3       1 <0>         0.1214
     13 C9          1.2640   -4.6365   -0.0345 C.2       1 <0>         0.4973
     14 O3          2.4478   -4.8056   -0.2433 O.2       1 <0>        -0.5080
     15 C10         0.7216   -3.2541    0.1066 C.2       1 <0>         0.4286
     16 O4         -0.0581   -2.8200   -0.7187 O.2       1 <0>        -0.4336
     17 C11         1.1277   -2.4213    1.2375 C.2       1 <0>        -0.2705
     18 C12         1.9992   -2.7675    2.2531 C.2       1 <0>         0.1544
     19 N2          2.1230   -1.7389    3.1112 N.pl3     1 <0>        -0.5635
     20 H2          2.6818   -1.7468    3.9041 H         1 <0>         0.4246
     21 C13         1.3460   -0.6703    2.7093 C.ar      1 <0>         0.0739
     22 C14         0.6894   -1.0418    1.5254 C.ar      1 <0>        -0.0539
     23 C15        -0.1686   -0.1484    0.8917 C.ar      1 <0>        -0.0745
     24 C16        -0.3709    1.1038    1.4323 C.ar      1 <0>        -0.1283
     25 C17         0.2765    1.4730    2.6014 C.ar      1 <0>        -0.1010
     26 C18         1.1291    0.5971    3.2390 C.ar      1 <0>        -0.1181
     27 H3          4.4592  -10.5696    0.7450 H         1 <0>         0.0685
     28 H4          4.3805  -10.5393    2.5230 H         1 <0>         0.0672
     29 H5          4.2734  -12.0888    1.6537 H         1 <0>         0.0815
     30 H6          2.0386  -11.3493    2.4331 H         1 <0>         0.0711
     31 H7          2.1173  -11.3797    0.6552 H         1 <0>         0.0718
     32 H8         -1.5623   -8.1763    2.2074 H         1 <0>         0.0807
     33 H9         -1.4818   -8.1658    0.4295 H         1 <0>         0.0786
     34 H10        -1.2231   -5.7101    2.2243 H         1 <0>         0.0726
     35 H11        -2.6765   -6.1640    1.3020 H         1 <0>         0.0896
     36 H12        -1.2521   -4.4508    0.1243 H         1 <0>         0.0946
     37 H13        -1.4517   -5.9528   -0.8121 H         1 <0>         0.0827
     38 H14         0.7074   -7.6241   -0.7292 H         1 <0>         0.0806
     39 H15         2.0674   -7.0165    0.2500 H         1 <0>         0.1096
     40 H16         2.5036   -3.7182    2.3437 H         1 <0>         0.1859
     41 H17        -0.6734   -0.4342   -0.0193 H         1 <0>         0.1330
     42 H18        -1.0328    1.8014    0.9406 H         1 <0>         0.1288
     43 H19         0.1115    2.4563    3.0165 H         1 <0>         0.1303
     44 H20         1.6279    0.8948    4.1495 H         1 <0>         0.1248
@<TRIPOS>BOND
     1    1    2 1
     2    1   27 1
     3    1   28 1
     4    1   29 1
     5    2    3 1
     6    2   30 1
     7    2   31 1
     8    3    4 1
     9    4    5 2
    10    4    6 1
    11    6    7 1
    12    6   12 1
    13    6    8 1
    14    8    9 1
    15    8   32 1
    16    8   33 1
    17    9   10 1
    18    9   34 1
    19    9   35 1
    20   10   11 1
    21   10   36 1
    22   10   37 1
    23   11   12 1
    24   11   13 am
    25   12   38 1
    26   12   39 1
    27   13   14 2
    28   13   15 1
    29   15   16 2
    30   15   17 1
    31   17   22 1
    32   17   18 2
    33   18   19 1
    34   18   40 1
    35   19   20 1
    36   19   21 1
    37   21   26 ar
    38   21   22 ar
    39   22   23 ar
    40   23   24 ar
    41   23   41 1
    42   24   25 ar
    43   24   42 1
    44   25   26 ar
    45   25   43 1
    46   26   44 1
@<TRIPOS>MOLECULE
ZINC04163035
   44    46     0     0     0
SMALL
USER_CHARGES
ethyl 1-[2-(1H-indol-3-yl)-2-oxo-acetyl]piperidine-3-carboxylate
@<TRIPOS>ATOM
      1 C1         -3.3392   -0.0651   -0.6486 C.3       1 <0>        -0.1542
      2 C2         -2.4328    0.4526    0.4700 C.3       1 <0>         0.0614
      3 O1         -2.1899    1.8713    0.2786 O.3       1 <0>        -0.3559
      4 C3         -1.4072    2.4828    1.1815 C.2       1 <0>         0.4691
      5 O2         -0.9404    1.8534    2.1012 O.2       1 <0>        -0.4991
      6 C4         -1.1106    3.9543    1.0480 C.3       1 <0>        -0.0945
      7 H1         -2.0429    4.5179    1.0822 H         1 <0>         0.1147
      8 C5         -0.2026    4.3986    2.1970 C.3       1 <0>        -0.1071
      9 C6          0.0726    5.8996    2.0808 C.3       1 <0>        -0.1344
     10 C7          0.7928    6.1818    0.7585 C.3       1 <0>         0.0962
     11 N1         -0.0064    5.6278   -0.3429 N.am      1 <0>        -0.5974
     12 C8         -0.4038    4.2144   -0.2860 C.3       1 <0>         0.1214
     13 C9         -0.3685    6.4014   -1.3854 C.2       1 <0>         0.4975
     14 O3         -0.8461    5.8952   -2.3799 O.2       1 <0>        -0.5077
     15 C10        -0.1822    7.8799   -1.3171 C.2       1 <0>         0.4284
     16 O4          0.9373    8.3493   -1.2564 O.2       1 <0>        -0.4336
     17 C11        -1.3464    8.7644   -1.3232 C.2       1 <0>        -0.2703
     18 C12        -2.6749    8.3882   -1.3873 C.2       1 <0>         0.1544
     19 N2         -3.4552    9.4839   -1.3706 N.pl3     1 <0>        -0.5635
     20 H2         -4.4244    9.4709   -1.4061 H         1 <0>         0.4246
     21 C13        -2.6879   10.6297   -1.2954 C.ar      1 <0>         0.0739
     22 C14        -1.3402   10.2387   -1.2558 C.ar      1 <0>        -0.0539
     23 C15        -0.3354   11.1986   -1.1856 C.ar      1 <0>        -0.0745
     24 C16        -0.6703   12.5354   -1.1419 C.ar      1 <0>        -0.1283
     25 C17        -2.0009   12.9237   -1.1750 C.ar      1 <0>        -0.1010
     26 C18        -3.0057   11.9828   -1.2509 C.ar      1 <0>        -0.1182
     27 H3         -3.5215   -1.1301   -0.5049 H         1 <0>         0.0815
     28 H4         -4.2874    0.4721   -0.6259 H         1 <0>         0.0672
     29 H5         -2.8545    0.0938   -1.6119 H         1 <0>         0.0685
     30 H6         -1.4846   -0.0846    0.4473 H         1 <0>         0.0718
     31 H7         -2.9174    0.2936    1.4333 H         1 <0>         0.0711
     32 H8         -0.6930    4.1919    3.1482 H         1 <0>         0.0808
     33 H9          0.7392    3.8519    2.1478 H         1 <0>         0.0786
     34 H10        -0.8707    6.4453    2.1049 H         1 <0>         0.0725
     35 H11         0.7001    6.2199    2.9124 H         1 <0>         0.0897
     36 H12         0.9028    7.2579    0.6248 H         1 <0>         0.0951
     37 H13         1.7766    5.7126    0.7709 H         1 <0>         0.0827
     38 H14         0.4814    3.5827   -0.3598 H         1 <0>         0.0802
     39 H15        -1.0832    3.9924   -1.1089 H         1 <0>         0.1093
     40 H16        -3.0319    7.3704   -1.4426 H         1 <0>         0.1859
     41 H17         0.7016   10.8979   -1.1597 H         1 <0>         0.1330
     42 H18         0.1068   13.2830   -1.0820 H         1 <0>         0.1288
     43 H19        -2.2527   13.9734   -1.1406 H         1 <0>         0.1303
     44 H20        -4.0389   12.2964   -1.2761 H         1 <0>         0.1248
@<TRIPOS>BOND
     1    1    2 1
     2    1   27 1
     3    1   28 1
     4    1   29 1
     5    2    3 1
     6    2   30 1
     7    2   31 1
     8    3    4 1
     9    4    5 2
    10    4    6 1
    11    6    7 1
    12    6   12 1
    13    6    8 1
    14    8    9 1
    15    8   32 1
    16    8   33 1
    17    9   10 1
    18    9   34 1
    19    9   35 1
    20   10   11 1
    21   10   36 1
    22   10   37 1
    23   11   12 1
    24   11   13 am
    25   12   38 1
    26   12   39 1
    27   13   14 2
    28   13   15 1
    29   15   16 2
    30   15   17 1
    31   17   22 1
    32   17   18 2
    33   18   19 1
    34   18   40 1
    35   19   20 1
    36   19   21 1
    37   21   26 ar
    38   21   22 ar
    39   22   23 ar
    40   23   24 ar
    41   23   41 1
    42   24   25 ar
    43   24   42 1
    44   25   26 ar
    45   25   43 1
    46   26   44 1
@<TRIPOS>MOLECULE
ZINC04163071
   39    42     0     0     0
SMALL
USER_CHARGES

@<TRIPOS>ATOM
      1 C1         -0.4796    0.9618    1.1999 C.ar      1 <0>        -0.1178
      2 C2          0.6295    1.7863    1.2432 C.ar      1 <0>        -0.1186
      3 C3          1.8812    1.2623    0.9946 C.ar      1 <0>        -0.1112
      4 C4          2.0357   -0.0867    0.7050 C.ar      1 <0>        -0.0976
      5 C5          0.9335   -0.9109    0.6710 C.ar      1 <0>        -0.0754
      6 C6         -0.3271   -0.3787    0.9143 C.ar      1 <0>        -0.1187
      7 C7          1.0262   -2.3883    0.3944 C.3       1 <0>        -0.0962
      8 C8          2.3385   -2.7286   -0.3102 C.3       1 <0>         0.1067
      9 N1          3.4299   -2.0586    0.4161 N.am      1 <0>        -0.5862
     10 C9          3.4296   -0.5919    0.4289 C.3       1 <0>         0.1266
     11 C10         4.3907   -2.7648    1.0443 C.2       1 <0>         0.4956
     12 O1          4.3007   -3.9725    1.1266 O.2       1 <0>        -0.5192
     13 C11         5.5649   -2.0622    1.6383 C.2       1 <0>         0.4224
     14 O2          5.7290   -0.8749    1.4360 O.2       1 <0>        -0.4349
     15 C12         6.5184   -2.8016    2.4639 C.2       1 <0>        -0.2766
     16 C13         6.4751   -4.1466    2.7801 C.2       1 <0>         0.1684
     17 N2          7.5251   -4.4605    3.5602 N.pl3     1 <0>        -0.5672
     18 H1          7.7073   -5.3472    3.9086 H         1 <0>         0.4240
     19 C14         8.3085   -3.3481    3.7969 C.ar      1 <0>         0.0703
     20 C15         7.7248   -2.2640    3.1225 C.ar      1 <0>        -0.0538
     21 C16         8.3126   -1.0043    3.1829 C.ar      1 <0>        -0.0761
     22 C17         9.4732   -0.8266    3.9058 C.ar      1 <0>        -0.1292
     23 C18        10.0534   -1.8965    4.5700 C.ar      1 <0>        -0.1038
     24 C19         9.4767   -3.1480    4.5244 C.ar      1 <0>        -0.1175
     25 H2         -1.4623    1.3658    1.3936 H         1 <0>         0.1233
     26 H3          0.5164    2.8360    1.4704 H         1 <0>         0.1249
     27 H4          2.7475    1.9065    1.0250 H         1 <0>         0.1261
     28 H5         -1.1949   -1.0207    0.8798 H         1 <0>         0.1221
     29 H6          0.9735   -2.9335    1.3368 H         1 <0>         0.0822
     30 H7          0.1912   -2.6875   -0.2391 H         1 <0>         0.0897
     31 H8          2.4949   -3.8073   -0.2975 H         1 <0>         0.1020
     32 H9          2.3075   -2.3720   -1.3397 H         1 <0>         0.0809
     33 H10         3.7647   -0.2206   -0.5396 H         1 <0>         0.0865
     34 H11         4.1052   -0.2358    1.2067 H         1 <0>         0.1326
     35 H12         5.7145   -4.8393    2.4514 H         1 <0>         0.2022
     36 H13         7.8622   -0.1699    2.6659 H         1 <0>         0.1323
     37 H14         9.9323    0.1497    3.9546 H         1 <0>         0.1278
     38 H15        10.9625   -1.7468    5.1334 H         1 <0>         0.1294
     39 H16         9.9378   -3.9747    5.0443 H         1 <0>         0.1241
@<TRIPOS>BOND
     1    1    6 ar
     2    1    2 ar
     3    1   25 1
     4    2    3 ar
     5    2   26 1
     6    3    4 ar
     7    3   27 1
     8    4   10 1
     9    4    5 ar
    10    5    6 ar
    11    5    7 1
    12    6   28 1
    13    7    8 1
    14    7   29 1
    15    7   30 1
    16    8    9 1
    17    8   31 1
    18    8   32 1
    19    9   10 1
    20    9   11 am
    21   10   33 1
    22   10   34 1
    23   11   12 2
    24   11   13 1
    25   13   14 2
    26   13   15 1
    27   15   20 1
    28   15   16 2
    29   16   17 1
    30   16   35 1
    31   17   18 1
    32   17   19 1
    33   19   24 ar
    34   19   20 ar
    35   20   21 ar
    36   21   22 ar
    37   21   36 1
    38   22   23 ar
    39   22   37 1
    40   23   24 ar
    41   23   38 1
    42   24   39 1
@<TRIPOS>MOLECULE
ZINC12941871
   31    35     0     0     0
SMALL
USER_CHARGES
BLAH
@<TRIPOS>ATOM
      1 C1          0.6181   -2.7152   -0.0189 C.ar      1 <0>        -0.1429
      2 C2         -0.7043   -2.2973   -0.0040 C.ar      1 <0>        -0.0813
      3 C3         -1.0145   -0.9548    0.0066 C.ar      1 <0>        -0.1358
      4 C4          0.0021   -0.0041    0.0020 C.ar      1 <0>         0.1399
      5 C5          1.3404   -0.4285   -0.0130 C.ar      1 <0>        -0.1000
      6 C6          1.6388   -1.7902   -0.0227 C.ar      1 <0>        -0.0662
      7 C7          2.1629    0.7902   -0.0143 C.ar      1 <0>        -0.0960
      8 C8          1.2732    1.8753   -0.0000 C.ar      1 <0>         0.1178
      9 N1         -0.0167    1.3786    0.0096 N.pl3     1 <0>        -0.5972
     10 H1         -0.8200    1.9221    0.0165 H         1 <0>         0.4240
     11 C9          1.7923    3.1687    0.0016 C.ar      1 <0>         0.0835
     12 N2          3.0896    3.3769   -0.0101 N.ar      1 <0>        -0.4066
     13 C10         3.9703    2.3802   -0.0239 C.ar      1 <0>         0.0602
     14 C11         3.5404    1.0466   -0.0265 C.ar      1 <0>         0.1549
     15 N3          4.6499    0.2256   -0.0420 N.pl3     1 <0>        -0.6021
     16 H2          4.6223   -0.7440   -0.0465 H         1 <0>         0.4182
     17 C12         5.8065    0.9836   -0.0498 C.ar      1 <0>         0.1385
     18 C13         5.4446    2.3393   -0.0390 C.ar      1 <0>        -0.0842
     19 C14         6.4292    3.3248   -0.0443 C.ar      1 <0>        -0.0506
     20 C15         7.7591    2.9630   -0.0600 C.ar      1 <0>        -0.1476
     21 C16         8.1186    1.6240   -0.0702 C.ar      1 <0>        -0.0803
     22 C17         7.1545    0.6388   -0.0647 C.ar      1 <0>        -0.1400
     23 H3          0.8485   -3.7703   -0.0271 H         1 <0>         0.1296
     24 H4         -1.4975   -3.0302   -0.0011 H         1 <0>         0.1327
     25 H5         -2.0475   -0.6400    0.0181 H         1 <0>         0.1283
     26 H6          2.6675   -2.1190   -0.0336 H         1 <0>         0.1189
     27 H7          1.1182    4.0124    0.0129 H         1 <0>         0.1651
     28 H8          6.1515    4.3684   -0.0364 H         1 <0>         0.1313
     29 H9          8.5240    3.7254   -0.0641 H         1 <0>         0.1298
     30 H10         9.1633    1.3504   -0.0822 H         1 <0>         0.1315
     31 H11         7.4455   -0.4012   -0.0727 H         1 <0>         0.1266
@<TRIPOS>BOND
     1    1    6 ar
     2    1    2 ar
     3    1   23 1
     4    2    3 ar
     5    2   24 1
     6    3    4 ar
     7    3   25 1
     8    4    9 1
     9    4    5 ar
    10    5    6 ar
    11    5    7 1
    12    6   26 1
    13    7   14 ar
    14    7    8 ar
    15    8    9 1
    16    8   11 ar
    17    9   10 1
    18   11   12 ar
    19   11   27 1
    20   12   13 ar
    21   13   18 1
    22   13   14 ar
    23   14   15 1
    24   15   16 1
    25   15   17 1
    26   17   22 ar
    27   17   18 ar
    28   18   19 ar
    29   19   20 ar
    30   19   28 1
    31   20   21 ar
    32   20   29 1
    33   21   22 ar
    34   21   30 1
    35   22   31 1
@<TRIPOS>MOLECULE
ZINC01489070
   41    45     0     0     0
SMALL
USER_CHARGES
(5-methylisoxazol-3-yl)-[(1-methyltriazol-4-yl)methoxy]BLAH
@<TRIPOS>ATOM
      1 C1         -9.7454    0.5482    0.0602 C.3       1 <0>        -0.0765
      2 C2         -8.3160    1.0256    0.0534 C.2       1 <0>        -0.0264
      3 C3         -7.2077    0.2523    0.0372 C.2       1 <0>        -0.1908
      4 C4         -6.1350    1.1900    0.0415 C.2       1 <0>         0.0797
      5 N1         -6.6916    2.3784    0.0502 N.2       1 <0>        -0.3242
      6 O1         -7.8980    2.2997    0.0568 O.3       1 <0>         0.1219
      7 C5         -4.6885    0.8859    0.0317 C.2       1 <0>         0.2881
      8 N2         -4.1422   -0.3141    0.0231 N.2       1 <0>        -0.2313
      9 N3         -2.8595   -0.2128    0.0166 N.2       1 <0>        -0.2417
     10 C6         -2.5142    1.0609    0.0207 C.2       1 <0>         0.1718
     11 N4         -3.6684    1.7972    0.0305 N.pl3     1 <0>        -0.2747
     12 N5         -3.6403    3.1911    0.0373 N.2       1 <0>        -0.3187
     13 C7         -2.5263    3.8705    0.0439 C.2       1 <0>         0.3881
     14 C8         -1.2357    3.1745    0.0294 C.ar      1 <0>        -0.0941
     15 C9         -1.2268    1.7608    0.0174 C.ar      1 <0>         0.0229
     16 C10        -0.0126    1.0758    0.0080 C.ar      1 <0>        -0.0773
     17 C11         1.1683    1.7850    0.0005 C.ar      1 <0>        -0.0788
     18 C12         1.1606    3.1736    0.0071 C.ar      1 <0>        -0.1081
     19 C13        -0.0269    3.8710    0.0212 C.ar      1 <0>        -0.0565
     20 O2         -2.5623    5.2260    0.0506 O.3       1 <0>        -0.2786
     21 C14        -3.8522    5.8407    0.0647 C.3       1 <0>         0.1551
     22 C15        -3.6945    7.3394    0.0703 C.2       1 <0>        -0.0318
     23 C16        -2.5312    8.0313    0.0688 C.2       1 <0>        -0.0254
     24 N6         -2.8716    9.3410    0.0722 N.pl3     1 <0>        -0.2921
     25 N7         -4.1560    9.4239    0.0843 N.2       1 <0>        -0.0739
     26 N8         -4.6766    8.2476    0.0836 N.2       1 <0>        -0.2493
     27 C17        -1.9385   10.4704    0.0696 C.3       1 <0>         0.0783
     28 H1        -10.4155    1.4079    0.0682 H         1 <0>         0.0864
     29 H2         -9.9328   -0.0504   -0.8312 H         1 <0>         0.0947
     30 H3         -9.9217   -0.0581    0.9487 H         1 <0>         0.0946
     31 H4         -7.1488   -0.8261    0.0262 H         1 <0>         0.1848
     32 H5          0.0021   -0.0041    0.0020 H         1 <0>         0.1522
     33 H6          2.1096    1.2558   -0.0110 H         1 <0>         0.1442
     34 H7          2.0964    3.7128    0.0007 H         1 <0>         0.1421
     35 H8         -0.0224    4.9510    0.0262 H         1 <0>         0.1472
     36 H9         -4.4090    5.5373   -0.8219 H         1 <0>         0.0995
     37 H10        -4.3935    5.5290    0.9580 H         1 <0>         0.0993
     38 H11        -1.5323    7.6208    0.0634 H         1 <0>         0.1963
     39 H12        -1.6980   10.7453    1.0966 H         1 <0>         0.0952
     40 H13        -1.0255   10.1862   -0.4537 H         1 <0>         0.1022
     41 H14        -2.3977   11.3199   -0.4359 H         1 <0>         0.1053
@<TRIPOS>BOND
     1    1    2 1
     2    1   28 1
     3    1   29 1
     4    1   30 1
     5    2    6 1
     6    2    3 2
     7    3    4 1
     8    3   31 1
     9    4    5 2
    10    4    7 1
    11    5    6 1
    12    7   11 1
    13    7    8 2
    14    8    9 1
    15    9   10 2
    16   10   15 1
    17   10   11 1
    18   11   12 1
    19   12   13 2
    20   13   14 1
    21   13   20 1
    22   14   19 ar
    23   14   15 ar
    24   15   16 ar
    25   16   17 ar
    26   16   32 1
    27   17   18 ar
    28   17   33 1
    29   18   19 ar
    30   18   34 1
    31   19   35 1
    32   20   21 1
    33   21   22 1
    34   21   36 1
    35   21   37 1
    36   22   26 1
    37   22   23 2
    38   23   24 1
    39   23   38 1
    40   24   25 1
    41   24   27 1
    42   25   26 2
    43   27   39 1
    44   27   40 1
    45   27   41 1
@<TRIPOS>MOLECULE
ZINC05353699
   36    38     0     0     0
SMALL
USER_CHARGES
tert-butyl BLAHcarboxylate
@<TRIPOS>ATOM
      1 C1         -1.6820   11.3070    1.3281 C.3       1 <0>        -0.1839
      2 C2         -0.8109   11.3081    0.0703 C.3       1 <0>         0.1146
      3 C3          0.0809   12.5513    0.0686 C.3       1 <0>        -0.1403
      4 C4         -1.7063   11.3210   -1.1702 C.3       1 <0>        -0.1839
      5 O1          0.0193   10.1169    0.0556 O.3       1 <0>        -0.3262
      6 C5         -0.6157    8.9287    0.0551 C.2       1 <0>         0.5340
      7 O2         -1.8297    8.8889    0.0668 O.2       1 <0>        -0.4991
      8 C6          0.1645    7.6741    0.0405 C.ar      1 <0>         0.0392
      9 C7         -0.5001    6.4504    0.0402 C.ar      1 <0>        -0.0345
     10 C8          0.2545    5.2812    0.0267 C.ar      1 <0>        -0.0830
     11 C9         -0.0653    3.8450    0.0224 C.ar      1 <0>        -0.1037
     12 C10        -1.2577    3.1243    0.0295 C.ar      1 <0>        -0.0556
     13 C11        -1.2261    1.7470    0.0174 C.ar      1 <0>        -0.1431
     14 C12        -0.0126    1.0758    0.0080 C.ar      1 <0>        -0.0755
     15 C13         1.1744    1.7751    0.0004 C.ar      1 <0>        -0.1381
     16 C14         1.1638    3.1670    0.0075 C.ar      1 <0>         0.1403
     17 N1          2.1803    4.1047    0.0027 N.pl3     1 <0>        -0.5958
     18 H1          3.1272    3.8946   -0.0072 H         1 <0>         0.4246
     19 C15         1.6582    5.3788    0.0141 C.ar      1 <0>         0.1164
     20 C16         2.2403    6.6468    0.0146 C.ar      1 <0>         0.0970
     21 N2          1.4947    7.7267    0.0283 N.ar      1 <0>        -0.4038
     22 H2         -1.0440   11.2978    2.2119 H         1 <0>         0.0623
     23 H3         -2.3052   12.2012    1.3392 H         1 <0>         0.0730
     24 H4         -2.3173   10.4213    1.3294 H         1 <0>         0.0827
     25 H5          0.7015   12.5520   -0.8275 H         1 <0>         0.0678
     26 H6         -0.5423   13.4455    0.0797 H         1 <0>         0.0794
     27 H7          0.7188   12.5421    0.9523 H         1 <0>         0.0678
     28 H8         -2.3416   10.4353   -1.1689 H         1 <0>         0.0827
     29 H9         -2.3296   12.2152   -1.1591 H         1 <0>         0.0730
     30 H10        -1.0858   11.3217   -2.0663 H         1 <0>         0.0623
     31 H11        -1.5793    6.4096    0.0505 H         1 <0>         0.1537
     32 H12        -2.2043    3.6441    0.0410 H         1 <0>         0.1307
     33 H13        -2.1501    1.1878    0.0187 H         1 <0>         0.1323
     34 H14         0.0021   -0.0041    0.0020 H         1 <0>         0.1342
     35 H15         2.1141    1.2429   -0.0115 H         1 <0>         0.1292
     36 H16         3.3162    6.7406    0.0054 H         1 <0>         0.1693
@<TRIPOS>BOND
     1    1    2 1
     2    1   22 1
     3    1   23 1
     4    1   24 1
     5    2    3 1
     6    2    4 1
     7    2    5 1
     8    3   25 1
     9    3   26 1
    10    3   27 1
    11    4   28 1
    12    4   29 1
    13    4   30 1
    14    5    6 1
    15    6    7 2
    16    6    8 1
    17    8   21 ar
    18    8    9 ar
    19    9   10 ar
    20    9   31 1
    21   10   19 ar
    22   10   11 1
    23   11   16 ar
    24   11   12 ar
    25   12   13 ar
    26   12   32 1
    27   13   14 ar
    28   13   33 1
    29   14   15 ar
    30   14   34 1
    31   15   16 ar
    32   15   35 1
    33   16   17 1
    34   17   18 1
    35   17   19 1
    36   19   20 ar
    37   20   21 ar
    38   20   36 1
@<TRIPOS>MOLECULE
ZINC29205511
   17    16     0     0     0
SMALL
USER_CHARGES
(E,4S)-4-aminopent-2-enoic acid
@<TRIPOS>ATOM
      1 C1         -2.6675    5.0921    1.2240 C.3       1 <0>        -0.1763
      2 C2         -2.6319    4.1275    0.0370 C.3       1 <0>         0.0805
      3 H1         -2.7631    4.6669   -0.9127 H         1 <0>         0.1379
      4 C3         -1.3167    3.3918    0.0267 C.2       1 <0>        -0.1942
      5 C4         -1.2987    2.0612    0.0194 C.2       1 <0>        -0.1467
      6 C5         -0.0162    1.3438    0.0094 C.2       1 <0>         0.4657
      7 O1          1.0279    1.9657    0.0028 O.co2     1 <0>        -0.6168
      8 O2          0.0021   -0.0041    0.0020 O.co2     1 <0>        -0.7430
      9 N1         -3.7323    3.1618    0.1576 N.4       1 <0>        -0.6887
     10 H2         -3.6275    5.6290    1.2314 H         1 <0>         0.0769
     11 H3         -1.8436    5.8153    1.1336 H         1 <0>         0.1044
     12 H4         -2.5570    4.5255    2.1603 H         1 <0>         0.0811
     13 H5         -0.3716    3.9547    0.0252 H         1 <0>         0.1597
     14 H6         -2.2438    1.4983    0.0209 H         1 <0>         0.0982
     15 H7         -3.7067    2.4683   -0.6958 H         1 <0>         0.4583
     16 H8         -4.6923    3.6988    0.1650 H         1 <0>         0.4488
     17 H9         -3.6219    2.5952    1.0940 H         1 <0>         0.4542
@<TRIPOS>BOND
     1    1    2 1
     2    1   10 1
     3    1   11 1
     4    1   12 1
     5    2    3 1
     6    2    4 1
     7    2    9 1
     8    4    5 2
     9    4   13 1
    10    5    6 1
    11    5   14 1
    12    6    7 2
    13    6    8 1
    14    9   15 1
    15    9   16 1
    16    9   17 1
@<TRIPOS>MOLECULE
ZINC02602006
   29    32     0     0     0
SMALL
USER_CHARGES

@<TRIPOS>ATOM
      1 C1         -0.0167    1.3790    0.0096 C.ar      1 <0>        -0.1143
      2 C2          1.1687    2.0918    0.0021 C.ar      1 <0>        -0.1254
      3 C3          2.3774    1.4257   -0.0134 C.ar      1 <0>        -0.0863
      4 C4          2.4021    0.0327   -0.0211 C.ar      1 <0>         0.0028
      5 C5          1.2051   -0.6804   -0.0130 C.ar      1 <0>        -0.0794
      6 C6          0.0021   -0.0041    0.0020 C.ar      1 <0>        -0.1276
      7 C7          3.6988   -0.6891   -0.0383 C.2       1 <0>         0.2496
      8 N1          3.8445   -2.0182   -0.0522 N.2       1 <0>        -0.5379
      9 C8          5.1235   -2.3227   -0.0660 C.2       1 <0>         0.3317
     10 C9          5.8793   -3.5805   -0.0845 C.ar      1 <0>        -0.1633
     11 C10         5.2479   -4.8223   -0.0916 C.ar      1 <0>        -0.0298
     12 C11         6.0073   -5.9715   -0.1095 C.ar      1 <0>        -0.1946
     13 C12         7.3943   -5.9009   -0.1201 C.ar      1 <0>        -0.0686
     14 C13         8.0381   -4.6847   -0.1134 C.ar      1 <0>        -0.1518
     15 C14         7.2905   -3.5042   -0.0958 C.ar      1 <0>         0.2208
     16 N2          7.8889   -2.2882   -0.0887 N.2       1 <0>        -0.5963
     17 C15         7.2017   -1.1787   -0.0719 C.2       1 <0>         0.6162
     18 N3          5.8358   -1.1528   -0.0609 N.pl3     1 <0>        -0.3463
     19 N4          4.8877   -0.1209   -0.0479 N.2       1 <0>        -0.2856
     20 O1          7.8702   -0.0045   -0.0654 O.3       1 <0>        -0.6417
     21 H1         -0.9602    1.9042    0.0260 H         1 <0>         0.1213
     22 H2          1.1483    3.1716    0.0081 H         1 <0>         0.1251
     23 H3          3.3023    1.9833   -0.0199 H         1 <0>         0.1324
     24 H4          1.2187   -1.7603   -0.0189 H         1 <0>         0.1350
     25 H5         -0.9264   -0.5558    0.0079 H         1 <0>         0.1248
     26 H6          4.1697   -4.8837   -0.0827 H         1 <0>         0.1241
     27 H7          5.5200   -6.9354   -0.1149 H         1 <0>         0.1175
     28 H8          7.9747   -6.8116   -0.1333 H         1 <0>         0.1191
     29 H9          9.1172   -4.6426   -0.1214 H         1 <0>         0.1283
@<TRIPOS>BOND
     1    1    6 ar
     2    1    2 ar
     3    1   21 1
     4    2    3 ar
     5    2   22 1
     6    3    4 ar
     7    3   23 1
     8    4    5 ar
     9    4    7 1
    10    5    6 ar
    11    5   24 1
    12    6   25 1
    13    7   19 2
    14    7    8 1
    15    8    9 2
    16    9   18 1
    17    9   10 1
    18   10   15 ar
    19   10   11 ar
    20   11   12 ar
    21   11   26 1
    22   12   13 ar
    23   12   27 1
    24   13   14 ar
    25   13   28 1
    26   14   15 ar
    27   14   29 1
    28   15   16 1
    29   16   17 2
    30   17   18 1
    31   17   20 1
    32   18   19 1
@<TRIPOS>MOLECULE
ZINC17654237
   71    76     0     0     0
SMALL
USER_CHARGES
3-(8-ethynyl-5-methyl-6-oxo-4H-imidazo[1,5-a][1,4]benzodiazepine-3-carbonyl)oxypropyl 8-ethynyl-5-methyl-6-oxo-4H-imidazo[1,5-a][1,4]benzodiazepine-3-carboxylate
@<TRIPOS>ATOM
      1 C1         -0.0010   -1.2484   -2.1997 C.3       1 <0>         0.0835
      2 N1          0.7080   -0.4335   -1.2101 N.am      1 <0>        -0.5979
      3 C2          0.0021   -0.0041    0.0020 C.3       1 <0>         0.1629
      4 C3         -0.0184    1.5027    0.0103 C.2       1 <0>         0.0534
      5 C4         -1.1148    2.3099    0.0192 C.2       1 <0>        -0.0225
      6 N2         -0.6717    3.5951   -0.0151 N.2       1 <0>        -0.4291
      7 C5          0.6306    3.5956   -0.0357 C.2       1 <0>         0.2117
      8 N3          1.0721    2.3077    0.0042 N.pl3     1 <0>        -0.4040
      9 C6          2.4020    1.8854    0.0594 C.ar      1 <0>         0.1519
     10 C7          3.2919    2.6426    0.8193 C.ar      1 <0>        -0.1197
     11 C8          4.5992    2.2436    0.9739 C.ar      1 <0>        -0.0519
     12 C9          5.0450    1.0678    0.3631 C.ar      1 <0>         0.0231
     13 C10         4.1713    0.3143   -0.4092 C.ar      1 <0>        -0.0260
     14 C11         2.8401    0.7228   -0.5796 C.ar      1 <0>        -0.1111
     15 C12         1.9794   -0.1003   -1.4324 C.2       1 <0>         0.5504
     16 O1          2.4796   -0.5267   -2.4552 O.2       1 <0>        -0.5272
     17 C13         6.4010    0.6407    0.5342 C.1       1 <0>        -0.1704
     18 C14         7.5128    0.2906    0.6745 C.1       1 <0>        -0.1389
     19 C15        -2.5194    1.8724    0.0581 C.2       1 <0>         0.5629
     20 O2         -2.7862    0.6869    0.0862 O.2       1 <0>        -0.5055
     21 O3         -3.5101    2.7864    0.0627 O.3       1 <0>        -0.3302
     22 C16        -4.8714    2.2829    0.1020 C.3       1 <0>         0.0716
     23 C17        -5.8503    3.4588    0.1014 C.3       1 <0>        -0.1218
     24 C18        -7.2848    2.9282    0.1427 C.3       1 <0>         0.0716
     25 O4         -8.2138    4.0441    0.1422 O.3       1 <0>        -0.3302
     26 C19        -9.5279    3.7463    0.1765 C.2       1 <0>         0.5629
     27 O5         -9.8875    2.5856    0.2061 O.2       1 <0>        -0.5056
     28 C20       -10.5274    4.8265    0.1782 C.2       1 <0>        -0.0226
     29 C21       -11.8799    4.6741    0.2106 C.2       1 <0>         0.0535
     30 N4        -12.4244    5.9147    0.1716 N.pl3     1 <0>        -0.4041
     31 C22       -11.3995    6.8118    0.1555 C.2       1 <0>         0.2117
     32 N5        -10.2708    6.1618    0.1535 N.2       1 <0>        -0.4291
     33 C23       -13.7892    6.2093    0.1260 C.ar      1 <0>         0.1519
     34 C24       -14.1966    7.2746   -0.6751 C.ar      1 <0>        -0.1196
     35 C25       -15.5314    7.5733   -0.8208 C.ar      1 <0>        -0.0520
     36 C26       -16.4931    6.8039   -0.1593 C.ar      1 <0>         0.0231
     37 C27       -16.0977    5.7505    0.6539 C.ar      1 <0>        -0.0260
     38 C28       -14.7372    5.4489    0.8152 C.ar      1 <0>        -0.1110
     39 C29       -14.3862    4.3451    1.7119 C.2       1 <0>         0.5504
     40 O6        -15.0149    4.2703    2.7499 O.2       1 <0>        -0.5272
     41 N6        -13.4536    3.4135    1.5147 N.am      1 <0>        -0.5978
     42 C30       -12.6481    3.3800    0.2892 C.3       1 <0>         0.1629
     43 C31       -13.2278    2.3983    2.5466 C.3       1 <0>         0.0835
     44 C32       -17.8844    7.1024   -0.3199 C.1       1 <0>        -0.1704
     45 C33       -19.0250    7.3471   -0.4515 C.1       1 <0>        -0.1389
     46 H1         -0.4853   -0.5969   -2.9271 H         1 <0>         0.0608
     47 H2          0.7088   -1.8990   -2.7105 H         1 <0>         0.0874
     48 H3         -0.7543   -1.8557   -1.6977 H         1 <0>         0.0813
     49 H4          0.5259   -0.3714    0.8845 H         1 <0>         0.0963
     50 H5         -1.0182   -0.3874   -0.0081 H         1 <0>         0.1466
     51 H6          1.2579    4.4738   -0.0773 H         1 <0>         0.2265
     52 H7          2.9515    3.5523    1.2915 H         1 <0>         0.1492
     53 H8          5.2800    2.8377    1.5655 H         1 <0>         0.1491
     54 H9          4.5189   -0.5924   -0.8820 H         1 <0>         0.1493
     55 H10         8.5071   -0.0225    0.8000 H         1 <0>         0.2294
     56 H11        -5.0531    1.6584   -0.7727 H         1 <0>         0.0784
     57 H12        -5.0142    1.6917    1.0065 H         1 <0>         0.0787
     58 H13        -5.6686    4.0833    0.9760 H         1 <0>         0.0911
     59 H14        -5.7075    4.0499   -0.8032 H         1 <0>         0.0911
     60 H15        -7.4665    2.3036   -0.7319 H         1 <0>         0.0787
     61 H16        -7.4275    2.3370    1.0473 H         1 <0>         0.0783
     62 H17       -11.5055    7.8866    0.1497 H         1 <0>         0.2265
     63 H18       -13.4564    7.8720   -1.1866 H         1 <0>         0.1492
     64 H19       -15.8358    8.4007   -1.4447 H         1 <0>         0.1492
     65 H20       -16.8425    5.1590    1.1655 H         1 <0>         0.1493
     66 H21       -13.3002    3.2841   -0.5790 H         1 <0>         0.0963
     67 H22       -11.9544    2.5400    0.3247 H         1 <0>         0.1466
     68 H23       -12.4712    2.7534    3.2463 H         1 <0>         0.0608
     69 H24       -14.1586    2.2111    3.0820 H         1 <0>         0.0874
     70 H25       -12.8855    1.4750    2.0791 H         1 <0>         0.0813
     71 H26       -20.0452    7.5660   -0.5693 H         1 <0>         0.2294
@<TRIPOS>BOND
     1    1    2 1
     2    1   46 1
     3    1   47 1
     4    1   48 1
     5    2   15 am
     6    2    3 1
     7    3    4 1
     8    3   49 1
     9    3   50 1
    10    4    8 1
    11    4    5 2
    12    5    6 1
    13    5   19 1
    14    6    7 2
    15    7    8 1
    16    7   51 1
    17    8    9 1
    18    9   14 ar
    19    9   10 ar
    20   10   11 ar
    21   10   52 1
    22   11   12 ar
    23   11   53 1
    24   12   13 ar
    25   12   17 1
    26   13   14 ar
    27   13   54 1
    28   14   15 1
    29   15   16 2
    30   17   18 3
    31   18   55 1
    32   19   20 2
    33   19   21 1
    34   21   22 1
    35   22   23 1
    36   22   56 1
    37   22   57 1
    38   23   24 1
    39   23   58 1
    40   23   59 1
    41   24   25 1
    42   24   60 1
    43   24   61 1
    44   25   26 1
    45   26   27 2
    46   26   28 1
    47   28   32 1
    48   28   29 2
    49   29   42 1
    50   29   30 1
    51   30   31 1
    52   30   33 1
    53   31   32 2
    54   31   62 1
    55   33   38 ar
    56   33   34 ar
    57   34   35 ar
    58   34   63 1
    59   35   36 ar
    60   35   64 1
    61   36   37 ar
    62   36   44 1
    63   37   38 ar
    64   37   65 1
    65   38   39 1
    66   39   40 2
    67   39   41 am
    68   41   42 1
    69   41   43 1
    70   42   66 1
    71   42   67 1
    72   43   68 1
    73   43   69 1
    74   43   70 1
    75   44   45 3
    76   45   71 1
@<TRIPOS>MOLECULE
ZINC00591443
   47    50     0     0     0
SMALL
USER_CHARGES
5-(5-methylisoxazol-3-yl)-8-[(2-methyl-1,2,4-triazol-3-yl)methoxy]-9-tert-butyl-3,4,6,7-tetrazabicyclo[4.3.0]nona-2,4,7,9-tetraene
@<TRIPOS>ATOM
      1 C1          5.4933    5.3770    0.1485 C.3       1 <0>        -0.0775
      2 C2          4.8665    4.0071    0.1091 C.2       1 <0>        -0.0268
      3 C3          3.5483    3.7201    0.1977 C.2       1 <0>        -0.1797
      4 C4          3.5001    2.2992    0.1108 C.2       1 <0>         0.0325
      5 N1          4.7428    1.9013   -0.0245 N.2       1 <0>        -0.3042
      6 O1          5.5077    2.8376   -0.0268 O.3       1 <0>         0.1317
      7 C5          2.2930    1.4458    0.1572 C.2       1 <0>         0.4220
      8 N2          1.1053    1.9930    0.2969 N.2       1 <0>        -0.2650
      9 N3          0.0241    1.3028    0.3439 N.2       1 <0>        -0.2272
     10 C6          0.0311   -0.0096    0.2542 C.2       1 <0>         0.1106
     11 C7          1.2617   -0.6745    0.1024 C.2       1 <0>         0.0685
     12 N4          2.4114    0.0852    0.0542 N.pl3     1 <0>        -0.2874
     13 N5          3.4879   -0.7900   -0.0990 N.2       1 <0>        -0.2978
     14 C8          3.0295   -2.0260   -0.1434 C.2       1 <0>         0.3023
     15 C9          1.6434   -1.9984   -0.0210 C.2       1 <0>        -0.1649
     16 C10         0.7252   -3.1935   -0.0226 C.3       1 <0>         0.0106
     17 C11        -0.2532   -3.0833   -1.1937 C.3       1 <0>        -0.1416
     18 C12         1.5527   -4.4722   -0.1680 C.3       1 <0>        -0.1347
     19 C13        -0.0559   -3.2382    1.2921 C.3       1 <0>        -0.1425
     20 O2          3.7878   -3.1451   -0.2856 O.3       1 <0>        -0.2611
     21 C14         5.2006   -2.9617   -0.3964 C.3       1 <0>         0.1403
     22 C15         5.8711   -4.3030   -0.5460 C.2       1 <0>         0.2696
     23 N6          6.3099   -5.0557    0.4300 N.2       1 <0>        -0.5174
     24 C16         6.8429   -6.1722   -0.0648 C.2       1 <0>         0.2028
     25 N7          6.7579   -6.1413   -1.3688 N.2       1 <0>        -0.3052
     26 N8          6.1279   -4.9322   -1.7059 N.pl3     1 <0>        -0.3635
     27 C17         5.8125   -4.4524   -3.0537 C.3       1 <0>         0.0895
     28 H1          6.5747    5.2849    0.0478 H         1 <0>         0.0875
     29 H2          5.1020    5.9793   -0.6714 H         1 <0>         0.0962
     30 H3          5.2564    5.8578    1.0976 H         1 <0>         0.0963
     31 H4          2.7236    4.4082    0.3107 H         1 <0>         0.1884
     32 H5         -0.8927   -0.5675    0.2969 H         1 <0>         0.1999
     33 H6          0.3033   -3.0515   -2.1304 H         1 <0>         0.0567
     34 H7         -0.9173   -3.9477   -1.1949 H         1 <0>         0.0667
     35 H8         -0.8427   -2.1724   -1.0902 H         1 <0>         0.0549
     36 H9          2.2498   -4.5506    0.6663 H         1 <0>         0.0635
     37 H10         0.8887   -5.3365   -0.1691 H         1 <0>         0.0611
     38 H11         2.1093   -4.4403   -1.1046 H         1 <0>         0.0584
     39 H12        -0.7171   -2.3737    1.3515 H         1 <0>         0.0553
     40 H13        -0.6485   -4.1522    1.3318 H         1 <0>         0.0669
     41 H14         0.6413   -3.2206    2.1298 H         1 <0>         0.0583
     42 H15         5.4198   -2.3466   -1.2692 H         1 <0>         0.0938
     43 H16         5.5742   -2.4667    0.5000 H         1 <0>         0.1100
     44 H17         7.2787   -6.9709    0.5170 H         1 <0>         0.2241
     45 H18         6.6499   -3.8693   -3.4370 H         1 <0>         0.0858
     46 H19         5.6324   -5.3040   -3.7097 H         1 <0>         0.0997
     47 H20         4.9207   -3.8268   -3.0172 H         1 <0>         0.0925
@<TRIPOS>BOND
     1    1    2 1
     2    1   28 1
     3    1   29 1
     4    1   30 1
     5    2    6 1
     6    2    3 2
     7    3    4 1
     8    3   31 1
     9    4    5 2
    10    4    7 1
    11    5    6 1
    12    7   12 1
    13    7    8 2
    14    8    9 1
    15    9   10 2
    16   10   11 1
    17   10   32 1
    18   11   15 2
    19   11   12 1
    20   12   13 1
    21   13   14 2
    22   14   15 1
    23   14   20 1
    24   15   16 1
    25   16   17 1
    26   16   18 1
    27   16   19 1
    28   17   33 1
    29   17   34 1
    30   17   35 1
    31   18   36 1
    32   18   37 1
    33   18   38 1
    34   19   39 1
    35   19   40 1
    36   19   41 1
    37   20   21 1
    38   21   22 1
    39   21   42 1
    40   21   43 1
    41   22   26 1
    42   22   23 2
    43   23   24 1
    44   24   25 2
    45   24   44 1
    46   25   26 1
    47   26   27 1
    48   27   45 1
    49   27   46 1
    50   27   47 1
@<TRIPOS>MOLECULE
ZINC00597316
   46    49     0     0     0
SMALL
USER_CHARGES

@<TRIPOS>ATOM
      1 C1          1.2693    1.8121    0.7206 C.3       1 <0>        -0.1901
      2 C2          0.2752    1.1992   -0.2678 C.3       1 <0>         0.1142
      3 C3         -0.3731   -0.0360    0.3607 C.3       1 <0>        -0.1871
      4 C4         -0.8068    2.2267   -0.6061 C.3       1 <0>        -0.1412
      5 O1          0.9627    0.8207   -1.4620 O.3       1 <0>        -0.3343
      6 C5          1.9537   -0.0844   -1.3369 C.2       1 <0>         0.5708
      7 O2          2.2264   -0.5397   -0.2434 O.2       1 <0>        -0.4845
      8 C6          2.7055   -0.5213   -2.5242 C.2       1 <0>        -0.0039
      9 C7          3.9674   -0.1442   -2.8627 C.2       1 <0>         0.0298
     10 N1          4.2877   -0.7865   -4.0166 N.pl3     1 <0>        -0.4072
     11 C8          3.2035   -1.5319   -4.3762 C.2       1 <0>         0.2158
     12 N2          2.2691   -1.3814   -3.4827 N.2       1 <0>        -0.4367
     13 C9          5.5005   -0.7194   -4.7041 C.ar      1 <0>         0.1581
     14 C10         5.9641   -1.8903   -5.3016 C.ar      1 <0>        -0.1151
     15 C11         7.1607   -1.9031   -5.9859 C.ar      1 <0>        -0.0650
     16 C12         7.9158   -0.7467   -6.0848 C.ar      1 <0>        -0.0893
     17 C13         7.4717    0.4200   -5.5054 C.ar      1 <0>        -0.0349
     18 C14         6.2502    0.4517   -4.8093 C.ar      1 <0>        -0.0976
     19 C15         5.8259    1.7381   -4.2444 C.2       1 <0>         0.5602
     20 O3          6.0299    2.7380   -4.9054 O.2       1 <0>        -0.4974
     21 N3          5.2313    1.8917   -3.0570 N.am      1 <0>        -0.6009
     22 C16         4.8701    0.8085   -2.1268 C.3       1 <0>         0.1955
     23 H1          5.7651    0.2914   -1.7810 H         1 <0>         0.1061
     24 C17         4.1148    1.4491   -0.9472 C.3       1 <0>        -0.1323
     25 C18         4.6501    2.9063   -0.9555 C.3       1 <0>        -0.1288
     26 C19         4.7979    3.1753   -2.4728 C.3       1 <0>         0.1082
     27 Br1         8.5121    1.9927   -5.6465 Br        1 <0>         0.0022
     28 H2          2.0401    1.0800    0.9616 H         1 <0>         0.0854
     29 H3          1.7312    2.6920    0.2729 H         1 <0>         0.0635
     30 H4          0.7449    2.1007    1.6315 H         1 <0>         0.0756
     31 H5         -0.8976    0.2527    1.2715 H         1 <0>         0.0739
     32 H6         -1.0814   -0.4726   -0.3435 H         1 <0>         0.0639
     33 H7          0.3977   -0.7680    0.6017 H         1 <0>         0.0838
     34 H8         -0.3449    3.1066   -1.0539 H         1 <0>         0.0672
     35 H9         -1.5150    1.7901   -1.3103 H         1 <0>         0.0684
     36 H10        -1.3312    2.5154    0.3047 H         1 <0>         0.0815
     37 H11         3.1333   -2.1509   -5.2585 H         1 <0>         0.2263
     38 H12         5.3806   -2.7960   -5.2275 H         1 <0>         0.1491
     39 H13         7.5093   -2.8161   -6.4457 H         1 <0>         0.1544
     40 H14         8.8553   -0.7604   -6.6172 H         1 <0>         0.1525
     41 H15         3.0389    1.4312   -1.1211 H         1 <0>         0.0861
     42 H16         4.3649    0.9503   -0.0109 H         1 <0>         0.1046
     43 H17         3.9296    3.5897   -0.5060 H         1 <0>         0.0963
     44 H18         5.6145    2.9710   -0.4516 H         1 <0>         0.0871
     45 H19         5.5510    3.9435   -2.6485 H         1 <0>         0.0904
     46 H20         3.8412    3.4795   -2.8974 H         1 <0>         0.0755
@<TRIPOS>BOND
     1    1    2 1
     2    1   28 1
     3    1   29 1
     4    1   30 1
     5    2    3 1
     6    2    4 1
     7    2    5 1
     8    3   31 1
     9    3   32 1
    10    3   33 1
    11    4   34 1
    12    4   35 1
    13    4   36 1
    14    5    6 1
    15    6    7 2
    16    6    8 1
    17    8   12 1
    18    8    9 2
    19    9   22 1
    20    9   10 1
    21   10   11 1
    22   10   13 1
    23   11   12 2
    24   11   37 1
    25   13   18 ar
    26   13   14 ar
    27   14   15 ar
    28   14   38 1
    29   15   16 ar
    30   15   39 1
    31   16   17 ar
    32   16   40 1
    33   17   18 ar
    34   17   27 1
    35   18   19 1
    36   19   20 2
    37   19   21 am
    38   21   26 1
    39   21   22 1
    40   22   23 1
    41   22   24 1
    42   24   25 1
    43   24   41 1
    44   24   42 1
    45   25   26 1
    46   25   43 1
    47   25   44 1
    48   26   45 1
    49   26   46 1
@<TRIPOS>MOLECULE
ZINC02689672
   33    35     0     0     0
SMALL
USER_CHARGES
9-bromo-2-methyl-6-phenyl-2,5-diazabicyclo[5.4.0]undeca-5,8,10,12-tetraen-3-one
@<TRIPOS>ATOM
      1 C1          4.2188   -1.8873   -0.8412 C.3       1 <0>         0.0619
      2 N1          3.9195   -0.7141   -0.0164 N.am      1 <0>        -0.5560
      3 C2          2.6880   -0.1032   -0.1971 C.ar      1 <0>         0.1958
      4 C3          1.5808   -0.9342   -0.3807 C.ar      1 <0>        -0.1410
      5 C4          0.3252   -0.4005   -0.5689 C.ar      1 <0>        -0.0461
      6 C5          0.1485    0.9741   -0.5792 C.ar      1 <0>        -0.1095
      7 C6          1.2282    1.8084   -0.3999 C.ar      1 <0>        -0.0295
      8 C7          2.5133    1.2790   -0.2049 C.ar      1 <0>        -0.1277
      9 C8          3.6211    2.2293   -0.0152 C.2       1 <0>         0.2682
     10 N2          4.5817    2.0804    0.8267 N.2       1 <0>        -0.4892
     11 C9          4.6699    0.9096    1.6984 C.3       1 <0>         0.0242
     12 C10         4.8510   -0.3182    0.8480 C.2       1 <0>         0.5088
     13 O1          5.8723   -0.9638    0.9527 O.2       1 <0>        -0.5085
     14 C11         3.6301    3.4485   -0.8567 C.ar      1 <0>        -0.0710
     15 C12         2.9600    3.4601   -2.0798 C.ar      1 <0>        -0.0906
     16 C13         2.9676    4.6004   -2.8567 C.ar      1 <0>        -0.1237
     17 C14         3.6478    5.7270   -2.4299 C.ar      1 <0>        -0.0985
     18 C15         4.3188    5.7200   -1.2201 C.ar      1 <0>        -0.1261
     19 C16         4.3136    4.5876   -0.4317 C.ar      1 <0>        -0.0681
     20 Br1        -1.5754    1.7036   -0.8475 Br        1 <0>        -0.0323
     21 H1          4.7010   -1.5683   -1.7653 H         1 <0>         0.0696
     22 H2          4.8853   -2.5549   -0.2952 H         1 <0>         0.0930
     23 H3          3.2926   -2.4115   -1.0769 H         1 <0>         0.0842
     24 H4          1.7104   -2.0064   -0.3747 H         1 <0>         0.1458
     25 H5         -0.5231   -1.0542   -0.7084 H         1 <0>         0.1462
     26 H6          1.0855    2.8788   -0.4090 H         1 <0>         0.1478
     27 H7          3.7532    0.8182    2.2809 H         1 <0>         0.0941
     28 H8          5.5208    1.0164    2.3711 H         1 <0>         0.1343
     29 H9          2.4324    2.5798   -2.4161 H         1 <0>         0.1257
     30 H10         2.4451    4.6121   -3.8018 H         1 <0>         0.1285
     31 H11         3.6547    6.6157   -3.0435 H         1 <0>         0.1265
     32 H12         4.8480    6.6025   -0.8922 H         1 <0>         0.1286
     33 H13         4.8375    4.5833    0.5127 H         1 <0>         0.1347
@<TRIPOS>BOND
     1    1    2 1
     2    1   21 1
     3    1   22 1
     4    1   23 1
     5    2   12 am
     6    2    3 1
     7    3    8 ar
     8    3    4 ar
     9    4    5 ar
    10    4   24 1
    11    5    6 ar
    12    5   25 1
    13    6    7 ar
    14    6   20 1
    15    7    8 ar
    16    7   26 1
    17    8    9 1
    18    9   10 2
    19    9   14 1
    20   10   11 1
    21   11   12 1
    22   11   27 1
    23   11   28 1
    24   12   13 2
    25   14   19 ar
    26   14   15 ar
    27   15   16 ar
    28   15   29 1
    29   16   17 ar
    30   16   30 1
    31   17   18 ar
    32   17   31 1
    33   18   19 ar
    34   18   32 1
    35   19   33 1
@<TRIPOS>MOLECULE
ZINC00602652
   48    51     0     0     0
SMALL
USER_CHARGES

@<TRIPOS>ATOM
      1 C1         -3.5171    3.5267    0.0540 C.3       1 <0>        -0.1537
      2 C2         -3.7361    2.0125    0.0483 C.3       1 <0>        -0.0166
      3 C3         -4.5345    1.6172   -1.1956 C.3       1 <0>        -0.1425
      4 C4         -4.5112    1.6046    1.3028 C.3       1 <0>        -0.1447
      5 C5         -2.4018    1.3120    0.0324 C.2       1 <0>        -0.1001
      6 C6         -1.2529    2.0403    0.0301 C.2       1 <0>         0.0048
      7 C7         -0.0165    1.3690    0.0096 C.2       1 <0>         0.1453
      8 N1          1.2448    1.7746   -0.0003 N.2       1 <0>        -0.2379
      9 N2          2.0270    0.7526   -0.0133 N.2       1 <0>        -0.2297
     10 C8          1.3179   -0.3610   -0.0125 C.2       1 <0>         0.2394
     11 N3          0.0021   -0.0041    0.0020 N.pl3     1 <0>        -0.2696
     12 N4         -1.1957   -0.7212    0.0100 N.2       1 <0>        -0.2980
     13 C9         -2.3470   -0.0936    0.0248 C.2       1 <0>         0.3641
     14 O1         -3.5001   -0.8092    0.0323 O.3       1 <0>        -0.2675
     15 C10        -3.3800   -2.2331    0.0235 C.3       1 <0>         0.1410
     16 C11        -4.7535   -2.8531    0.0337 C.2       1 <0>         0.2652
     17 N5         -5.4409   -3.1801    1.0978 N.2       1 <0>        -0.5156
     18 C12        -6.6132   -3.7002    0.7364 C.2       1 <0>         0.2034
     19 N6         -6.6847   -3.7193   -0.5687 N.2       1 <0>        -0.3028
     20 N7         -5.4838   -3.1720   -1.0489 N.pl3     1 <0>        -0.3626
     21 C13        -5.1029   -2.9851   -2.4511 C.3       1 <0>         0.0885
     22 C14         1.8514   -1.7390   -0.0250 C.ar      1 <0>        -0.0267
     23 C15         3.2300   -1.9568   -0.0393 C.ar      1 <0>        -0.0835
     24 C16         3.7222   -3.2476   -0.0504 C.ar      1 <0>         0.0939
     25 C17         2.8503   -4.3249   -0.0479 C.ar      1 <0>        -0.1064
     26 C18         1.4833   -4.1161   -0.0332 C.ar      1 <0>        -0.1258
     27 C19         0.9778   -2.8300   -0.0166 C.ar      1 <0>         0.1121
     28 F1         -0.3578   -2.6278    0.0024 F         1 <0>        -0.1028
     29 F2          5.0562   -3.4602   -0.0643 F         1 <0>        -0.1266
     30 H1         -2.9649    3.8173   -0.8397 H         1 <0>         0.0641
     31 H2         -4.4822    4.0333    0.0655 H         1 <0>         0.0713
     32 H3         -2.9483    3.8083    0.9401 H         1 <0>         0.0649
     33 H4         -4.6905    0.5385   -1.1996 H         1 <0>         0.0642
     34 H5         -5.4995    2.1238   -1.1840 H         1 <0>         0.0680
     35 H6         -3.9822    1.9078   -2.0893 H         1 <0>         0.0574
     36 H7         -3.9424    1.8862    2.1890 H         1 <0>         0.0580
     37 H8         -5.4763    2.1112    1.3143 H         1 <0>         0.0673
     38 H9         -4.6672    0.5258    1.2988 H         1 <0>         0.0697
     39 H10        -1.2893    3.1196    0.0367 H         1 <0>         0.1841
     40 H11        -2.8463   -2.5472   -0.8735 H         1 <0>         0.0994
     41 H12        -2.8287   -2.5567    0.9063 H         1 <0>         0.1156
     42 H13        -7.3782   -4.0532    1.4121 H         1 <0>         0.2246
     43 H14        -4.5850   -3.8750   -2.8087 H         1 <0>         0.0867
     44 H15        -5.9974   -2.8194   -3.0516 H         1 <0>         0.1006
     45 H16        -4.4430   -2.1217   -2.5364 H         1 <0>         0.0919
     46 H17         3.9105   -1.1181   -0.0420 H         1 <0>         0.1616
     47 H18         3.2402   -5.3321   -0.0570 H         1 <0>         0.1527
     48 H19         0.8093   -4.9600   -0.0310 H         1 <0>         0.1535
@<TRIPOS>BOND
     1    1    2 1
     2    1   30 1
     3    1   31 1
     4    1   32 1
     5    2    3 1
     6    2    4 1
     7    2    5 1
     8    3   33 1
     9    3   34 1
    10    3   35 1
    11    4   36 1
    12    4   37 1
    13    4   38 1
    14    5   13 1
    15    5    6 2
    16    6    7 1
    17    6   39 1
    18    7   11 1
    19    7    8 2
    20    8    9 1
    21    9   10 2
    22   10   11 1
    23   10   22 1
    24   11   12 1
    25   12   13 2
    26   13   14 1
    27   14   15 1
    28   15   16 1
    29   15   40 1
    30   15   41 1
    31   16   20 1
    32   16   17 2
    33   17   18 1
    34   18   19 2
    35   18   42 1
    36   19   20 1
    37   20   21 1
    38   21   43 1
    39   21   44 1
    40   21   45 1
    41   22   27 ar
    42   22   23 ar
    43   23   24 ar
    44   23   46 1
    45   24   25 ar
    46   24   29 1
    47   25   26 ar
    48   25   47 1
    49   26   27 ar
    50   26   48 1
    51   27   28 1
@<TRIPOS>MOLECULE
ZINC00001464
   36    38     0     0     0
SMALL
USER_CHARGES

@<TRIPOS>ATOM
      1 C1         -0.0187    1.5258    0.0104 C.3       1 <0>        -0.1527
      2 C2          0.0021   -0.0041    0.0020 C.3       1 <0>         0.0595
      3 O1         -1.3386   -0.4987    0.0122 O.3       1 <0>        -0.3295
      4 C3         -1.4970   -1.8373    0.0065 C.2       1 <0>         0.5595
      5 O2         -0.5232   -2.5645   -0.0067 O.2       1 <0>        -0.5059
      6 C4         -2.8491   -2.4182    0.0163 C.2       1 <0>        -0.0204
      7 C5         -3.1574   -3.7441    0.0176 C.2       1 <0>         0.0514
      8 N1         -4.5094   -3.8420    0.0002 N.pl3     1 <0>        -0.4034
      9 C6         -5.0118   -2.5765    0.0278 C.2       1 <0>         0.2113
     10 N2         -4.0219   -1.7299    0.0316 N.2       1 <0>        -0.4291
     11 C7         -5.2437   -5.0283   -0.0696 C.ar      1 <0>         0.1361
     12 C8         -6.4178   -5.0243   -0.8179 C.ar      1 <0>        -0.0943
     13 C9         -7.1677   -6.1733   -0.9504 C.ar      1 <0>        -0.1054
     14 C10        -6.7527   -7.3466   -0.3378 C.ar      1 <0>         0.1093
     15 C11        -5.6005   -7.3636    0.4163 C.ar      1 <0>        -0.0832
     16 C12        -4.8343   -6.1965    0.5748 C.ar      1 <0>        -0.0860
     17 C13        -3.6619   -6.2637    1.4502 C.2       1 <0>         0.5507
     18 O3         -3.7840   -6.9146    2.4698 O.2       1 <0>        -0.5260
     19 N3         -2.4758   -5.6895    1.2509 N.am      1 <0>        -0.5964
     20 C14        -2.1949   -4.9033    0.0447 C.3       1 <0>         0.1632
     21 C15        -1.4269   -5.8469    2.2614 C.3       1 <0>         0.0754
     22 F1         -7.4809   -8.4755   -0.4809 F         1 <0>        -0.1229
     23 H1          1.0039    1.9031    0.0027 H         1 <0>         0.0814
     24 H2         -0.5459    1.8868   -0.8726 H         1 <0>         0.0681
     25 H3         -0.5289    1.8773    0.9072 H         1 <0>         0.0679
     26 H4          0.5123   -0.3556   -0.8948 H         1 <0>         0.0706
     27 H5          0.5293   -0.3651    0.8851 H         1 <0>         0.0701
     28 H6         -6.0600   -2.3172    0.0476 H         1 <0>         0.2269
     29 H7         -6.7439   -4.1135   -1.2980 H         1 <0>         0.1544
     30 H8         -8.0784   -6.1600   -1.5308 H         1 <0>         0.1586
     31 H9         -5.2835   -8.2812    0.8896 H         1 <0>         0.1586
     32 H10        -2.3373   -5.5225   -0.8409 H         1 <0>         0.0971
     33 H11        -1.1705   -4.5322    0.0760 H         1 <0>         0.1471
     34 H12        -1.8034   -6.4548    3.0841 H         1 <0>         0.0976
     35 H13        -0.5619   -6.3366    1.8141 H         1 <0>         0.0726
     36 H14        -1.1351   -4.8666    2.6380 H         1 <0>         0.0680
@<TRIPOS>BOND
     1    1    2 1
     2    1   23 1
     3    1   24 1
     4    1   25 1
     5    2    3 1
     6    2   26 1
     7    2   27 1
     8    3    4 1
     9    4    5 2
    10    4    6 1
    11    6   10 1
    12    6    7 2
    13    7   20 1
    14    7    8 1
    15    8    9 1
    16    8   11 1
    17    9   10 2
    18    9   28 1
    19   11   16 ar
    20   11   12 ar
    21   12   13 ar
    22   12   29 1
    23   13   14 ar
    24   13   30 1
    25   14   15 ar
    26   14   22 1
    27   15   16 ar
    28   15   31 1
    29   16   17 1
    30   17   18 2
    31   17   19 am
    32   19   20 1
    33   19   21 1
    34   20   32 1
    35   20   33 1
    36   21   34 1
    37   21   35 1
    38   21   36 1
@<TRIPOS>MOLECULE
ZINC13741324
   35    38     0     0     0
SMALL
USER_CHARGES

@<TRIPOS>ATOM
      1 C1         -0.0173    1.4248    0.0099 C.3       1 <0>         0.0246
      2 O1          0.0021   -0.0041    0.0020 O.3       1 <0>        -0.3132
      3 C2          0.6059   -0.6072   -1.0559 C.ar      1 <0>         0.1262
      4 C3          1.1742    0.1672   -2.0646 C.ar      1 <0>        -0.1786
      5 C4          1.7852   -0.4166   -3.1353 C.ar      1 <0>        -0.0494
      6 C5          1.8496   -1.8130   -3.2352 C.ar      1 <0>         0.0975
      7 C6          1.2741   -2.5984   -2.2128 C.ar      1 <0>        -0.0223
      8 C7          0.6588   -1.9873   -1.1240 C.ar      1 <0>        -0.1166
      9 C8          1.3514   -4.0617   -2.3348 C.ar      1 <0>         0.1424
     10 C9          2.0317   -4.5943   -3.5293 C.ar      1 <0>        -0.2765
     11 C10         2.5578   -3.6805   -4.4650 C.ar      1 <0>         0.2375
     12 N1          2.4545   -2.3933   -4.2970 N.ar      1 <0>        -0.4947
     13 C11         1.9773   -5.9761   -3.4208 C.2       1 <0>         0.3288
     14 N2          1.3295   -6.2703   -2.2762 N.pl3     1 <0>        -0.2969
     15 N3          0.9547   -5.0883   -1.6261 N.2       1 <0>        -0.2527
     16 C12         1.0698   -7.5647   -1.8075 C.ar      1 <0>         0.1234
     17 C13         0.7969   -8.5881   -2.7054 C.ar      1 <0>        -0.1130
     18 C14         0.5413   -9.8631   -2.2401 C.ar      1 <0>        -0.1014
     19 C15         0.5564  -10.1210   -0.8816 C.ar      1 <0>        -0.1094
     20 C16         0.8278   -9.1039    0.0151 C.ar      1 <0>        -0.1037
     21 C17         1.0904   -7.8281   -0.4442 C.ar      1 <0>        -0.0989
     22 O2          2.4837   -6.8684   -4.3054 O.3       1 <0>        -0.4513
     23 H1          1.0053    1.8021    0.0021 H         1 <0>         0.0582
     24 H2         -0.5445    1.7859   -0.8732 H         1 <0>         0.0582
     25 H3         -0.5275    1.7763    0.9067 H         1 <0>         0.1029
     26 H4          1.1302    1.2442   -1.9982 H         1 <0>         0.1387
     27 H5          2.2203    0.1991   -3.9086 H         1 <0>         0.1431
     28 H6          0.2216   -2.5872   -0.3395 H         1 <0>         0.1402
     29 H7          3.0586   -4.0577   -5.3444 H         1 <0>         0.1640
     30 H8          0.7843   -8.3873   -3.7665 H         1 <0>         0.1397
     31 H9          0.3289  -10.6596   -2.9380 H         1 <0>         0.1369
     32 H10         0.3554  -11.1187   -0.5202 H         1 <0>         0.1332
     33 H11         0.8385   -9.3083    1.0756 H         1 <0>         0.1363
     34 H12         1.3071   -7.0353    0.2564 H         1 <0>         0.1363
     35 H13         3.3991   -7.1235   -4.1263 H         1 <0>         0.4104
@<TRIPOS>BOND
     1    1    2 1
     2    1   23 1
     3    1   24 1
     4    1   25 1
     5    2    3 1
     6    3    8 ar
     7    3    4 ar
     8    4    5 ar
     9    4   26 1
    10    5    6 ar
    11    5   27 1
    12    6   12 ar
    13    6    7 ar
    14    7    8 ar
    15    7    9 ar
    16    8   28 1
    17    9   15 2
    18    9   10 ar
    19   10   11 ar
    20   10   13 2
    21   11   12 ar
    22   11   29 1
    23   13   14 1
    24   13   22 1
    25   14   15 1
    26   14   16 1
    27   16   21 ar
    28   16   17 ar
    29   17   18 ar
    30   17   30 1
    31   18   19 ar
    32   18   31 1
    33   19   20 ar
    34   19   32 1
    35   20   21 ar
    36   20   33 1
    37   21   34 1
    38   22   35 1
@<TRIPOS>MOLECULE
ZINC19632917
   35    37     0     0     0
SMALL
USER_CHARGES
7-chloro-N-methyl-4-oxido-5-phenyl-3H-1,4-benzodiazepin-4-ium-2-amine
@<TRIPOS>ATOM
      1 C1          0.3869    1.6257   -0.4688 C.3       1 <0>         0.0950
      2 N1         -0.4381    1.8111    0.7275 N.pl3     1 <0>        -0.7042
      3 C2         -0.6877    3.0703    1.1972 C.2       1 <0>         0.4378
      4 N2         -0.1880    4.0751    0.5725 N.2       1 <0>        -0.5908
      5 C3         -0.3144    5.3787    0.9381 C.ar      1 <0>         0.1969
      6 C4          0.8182    6.1971    0.8113 C.ar      1 <0>        -0.1083
      7 C5          0.7611    7.5284    1.1532 C.ar      1 <0>        -0.0648
      8 C6         -0.4211    8.0763    1.6280 C.ar      1 <0>        -0.0582
      9 C7         -1.5431    7.2893    1.7639 C.ar      1 <0>        -0.0451
     10 C8         -1.5051    5.9298    1.4246 C.ar      1 <0>        -0.1385
     11 C9         -2.7355    5.1437    1.6090 C.2       1 <0>         0.2524
     12 N3         -2.7652    3.9385    2.0629 N.pl3     1 <0>        -0.1798
     13 O1         -4.0124    3.2849    2.2127 O.3       1 <0>        -0.5210
     14 C10        -1.5427    3.2309    2.4234 C.3       1 <0>         0.0460
     15 C11        -4.0245    5.7803    1.2495 C.ar      1 <0>        -0.0872
     16 C12        -5.1583    5.5542    2.0290 C.ar      1 <0>        -0.0406
     17 C13        -6.3546    6.1540    1.6923 C.ar      1 <0>        -0.1353
     18 C14        -6.4331    6.9690    0.5772 C.ar      1 <0>        -0.0907
     19 C15        -5.3129    7.1929   -0.2030 C.ar      1 <0>        -0.1331
     20 C16        -4.1098    6.6032    0.1270 C.ar      1 <0>        -0.0779
     21 Cl1        -0.4868    9.7583    2.0526 Cl        1 <0>        -0.0571
     22 H1          0.4748    0.5519   -0.6907 H         1 <0>         0.0788
     23 H2          1.3877    2.0469   -0.2929 H         1 <0>         0.0662
     24 H3         -0.0824    2.1390   -1.3210 H         1 <0>         0.0623
     25 H4         -0.8567    0.9370    1.2478 H         1 <0>         0.4420
     26 H5          1.7426    5.7784    0.4417 H         1 <0>         0.1453
     27 H6          1.6395    8.1486    1.0520 H         1 <0>         0.1449
     28 H7         -2.4601    7.7233    2.1343 H         1 <0>         0.1431
     29 H8         -1.7945    2.2392    2.8273 H         1 <0>         0.1402
     30 H9         -0.9918    3.8066    3.1818 H         1 <0>         0.1292
     31 H10        -5.0994    4.9142    2.8970 H         1 <0>         0.1447
     32 H11        -7.2324    5.9831    2.2978 H         1 <0>         0.1283
     33 H12        -7.3726    7.4327    0.3150 H         1 <0>         0.1263
     34 H13        -5.3800    7.8307   -1.0720 H         1 <0>         0.1287
     35 H14        -3.2358    6.7790   -0.4827 H         1 <0>         0.1246
@<TRIPOS>BOND
     1    1    2 1
     2    1   22 1
     3    1   23 1
     4    1   24 1
     5    2    3 1
     6    2   25 1
     7    3   14 1
     8    3    4 2
     9    4    5 1
    10    5   10 ar
    11    5    6 ar
    12    6    7 ar
    13    6   26 1
    14    7    8 ar
    15    7   27 1
    16    8    9 ar
    17    8   21 1
    18    9   10 ar
    19    9   28 1
    20   10   11 1
    21   11   12 2
    22   11   15 1
    23   12   13 1
    24   12   14 1
    25   14   29 1
    26   14   30 1
    27   15   20 ar
    28   15   16 ar
    29   16   17 ar
    30   16   31 1
    31   17   18 ar
    32   17   32 1
    33   18   19 ar
    34   18   33 1
    35   19   20 ar
    36   19   34 1
    37   20   35 1
@<TRIPOS>MOLECULE
ZINC19632917
   36    38     0     0     0
SMALL
USER_CHARGES
7-chloro-N-methyl-4-oxido-5-phenyl-3H-1,4-benzodiazepin-4-ium-2-amine
@<TRIPOS>ATOM
      1 C1          0.3869    1.6257   -0.4688 C.3       1 <0>         0.0260
      2 N1         -0.4381    1.8111    0.7275 N.pl3     1 <0>        -0.6524
      3 C2         -0.6877    3.0703    1.1972 C.cat     1 <0>         0.4984
      4 N2         -0.1880    4.0751    0.5725 N.pl3     1 <0>        -0.5579
      5 C3         -0.3144    5.3787    0.9381 C.ar      1 <0>         0.1017
      6 C4          0.8182    6.1971    0.8113 C.ar      1 <0>        -0.0937
      7 C5          0.7611    7.5284    1.1532 C.ar      1 <0>        -0.0563
      8 C6         -0.4211    8.0763    1.6280 C.ar      1 <0>        -0.0154
      9 C7         -1.5431    7.2893    1.7639 C.ar      1 <0>        -0.0439
     10 C8         -1.5051    5.9298    1.4246 C.ar      1 <0>        -0.0688
     11 C9         -2.7355    5.1437    1.6090 C.2       1 <0>         0.2576
     12 N3         -2.7652    3.9385    2.0629 N.pl3     1 <0>        -0.1943
     13 O1         -4.0124    3.2849    2.2127 O.3       1 <0>        -0.4829
     14 C10        -1.5427    3.2309    2.4234 C.3       1 <0>         0.0643
     15 C11        -4.0245    5.7803    1.2495 C.ar      1 <0>        -0.1098
     16 C12        -5.1583    5.5542    2.0290 C.ar      1 <0>        -0.0323
     17 C13        -6.3546    6.1540    1.6923 C.ar      1 <0>        -0.1301
     18 C14        -6.4331    6.9690    0.5772 C.ar      1 <0>        -0.0738
     19 C15        -5.3129    7.1929   -0.2030 C.ar      1 <0>        -0.1292
     20 C16        -4.1098    6.6032    0.1270 C.ar      1 <0>        -0.0779
     21 Cl1        -0.4868    9.7583    2.0526 Cl        1 <0>        -0.0128
     22 H1          0.4748    0.5519   -0.6907 H         1 <0>         0.1302
     23 H2          1.3877    2.0469   -0.2929 H         1 <0>         0.0959
     24 H3         -0.0824    2.1390   -1.3210 H         1 <0>         0.0928
     25 H4         -0.8567    0.9370    1.2478 H         1 <0>         0.4846
     26 H5          1.7426    5.7784    0.4417 H         1 <0>         0.1609
     27 H6          1.6395    8.1486    1.0520 H         1 <0>         0.1658
     28 H7         -2.4601    7.7233    2.1343 H         1 <0>         0.1657
     29 H8         -1.7945    2.2392    2.8273 H         1 <0>         0.1778
     30 H9         -0.9918    3.8066    3.1818 H         1 <0>         0.1627
     31 H10        -5.0994    4.9142    2.8970 H         1 <0>         0.1478
     32 H11        -7.2324    5.9831    2.2978 H         1 <0>         0.1357
     33 H12        -7.3726    7.4327    0.3150 H         1 <0>         0.1340
     34 H13        -5.3800    7.8307   -1.0720 H         1 <0>         0.1349
     35 H14        -3.2358    6.7790   -0.4827 H         1 <0>         0.1240
     36 H15         0.4010    3.9161   -0.3428 H         1 <0>         0.4708
@<TRIPOS>BOND
     1    1    2 1
     2    1   22 1
     3    1   23 1
     4    1   24 1
     5    2    3 2
     6    2   25 1
     7    3   14 1
     8    3    4 1
     9    4    5 1
    10    4   36 1
    11    5   10 ar
    12    5    6 ar
    13    6    7 ar
    14    6   26 1
    15    7    8 ar
    16    7   27 1
    17    8    9 ar
    18    8   21 1
    19    9   10 ar
    20    9   28 1
    21   10   11 1
    22   11   12 2
    23   11   15 1
    24   12   13 1
    25   12   14 1
    26   14   29 1
    27   14   30 1
    28   15   20 ar
    29   15   16 ar
    30   16   17 ar
    31   16   31 1
    32   17   18 ar
    33   17   32 1
    34   18   19 ar
    35   18   33 1
    36   19   20 ar
    37   19   34 1
    38   20   35 1
@<TRIPOS>MOLECULE
ZINC03813003
   32    34     0     0     0
SMALL
USER_CHARGES
6-(2-chlorophenyl)-9-nitro-2,5-diazabicyclo[5.4.0]undeca-5,7,9,11-tetraen-3-one
@<TRIPOS>ATOM
      1 C1         -0.9263    2.6093    1.0664 C.ar      1 <0>        -0.1113
      2 C2         -1.2194    1.7464    0.0248 C.ar      1 <0>        -0.0882
      3 C3         -0.3364    1.6002   -1.0293 C.ar      1 <0>        -0.1087
      4 C4          0.8504    2.3075   -1.0426 C.ar      1 <0>        -0.0117
      5 C5          1.1536    3.1748    0.0081 C.ar      1 <0>        -0.0589
      6 C6          0.2552    3.3212    1.0652 C.ar      1 <0>        -0.0703
      7 C7          2.4236    3.9367    0.0005 C.2       1 <0>         0.2679
      8 N1          2.3488    5.2171   -0.0965 N.2       1 <0>        -0.4640
      9 C8          3.5433    6.0613   -0.1155 C.3       1 <0>         0.0173
     10 C9          4.3425    5.7386   -1.3485 C.2       1 <0>         0.5139
     11 O1          4.5038    6.5976   -2.1894 O.2       1 <0>        -0.4972
     12 N2          4.8775    4.5351   -1.5405 N.am      1 <0>        -0.6621
     13 C10         4.8170    3.4830   -0.6398 C.ar      1 <0>         0.2310
     14 C11         3.6768    3.1720    0.0986 C.ar      1 <0>        -0.1270
     15 C12         3.7066    2.0828    0.9824 C.ar      1 <0>         0.0090
     16 C13         4.8482    1.3279    1.1230 C.ar      1 <0>        -0.0573
     17 C14         5.9805    1.6403    0.3896 C.ar      1 <0>        -0.0148
     18 C15         5.9663    2.7060   -0.4835 C.ar      1 <0>        -0.1418
     19 N3          4.8662    0.1814    2.0592 N.pl3     1 <0>         0.0285
     20 O2          3.8706   -0.0934    2.7047 O.2       1 <0>        -0.1516
     21 O3          5.8767   -0.4871    2.1840 O.3       1 <0>        -0.1507
     22 Cl1         1.9618    2.1175   -2.3626 Cl        1 <0>        -0.0619
     23 H1         -1.6223    2.7222    1.8844 H         1 <0>         0.1389
     24 H2         -2.1437    1.1878    0.0333 H         1 <0>         0.1393
     25 H3         -0.5727    0.9284   -1.8412 H         1 <0>         0.1406
     26 H4          0.4843    3.9905    1.8812 H         1 <0>         0.1385
     27 H5          4.1458    5.8660    0.7715 H         1 <0>         0.1004
     28 H6          3.2510    7.1112   -0.1344 H         1 <0>         0.1410
     29 H7          5.3466    4.3823   -2.3756 H         1 <0>         0.4193
     30 H8          2.8264    1.8351    1.5571 H         1 <0>         0.1644
     31 H9          6.8762    1.0474    0.5020 H         1 <0>         0.1668
     32 H10         6.8534    2.9432   -1.0520 H         1 <0>         0.1605
@<TRIPOS>BOND
     1    1    6 ar
     2    1    2 ar
     3    1   23 1
     4    2    3 ar
     5    2   24 1
     6    3    4 ar
     7    3   25 1
     8    4    5 ar
     9    4   22 1
    10    5    6 ar
    11    5    7 1
    12    6   26 1
    13    7   14 1
    14    7    8 2
    15    8    9 1
    16    9   10 1
    17    9   27 1
    18    9   28 1
    19   10   11 2
    20   10   12 am
    21   12   13 1
    22   12   29 1
    23   13   18 ar
    24   13   14 ar
    25   14   15 ar
    26   15   16 ar
    27   15   30 1
    28   16   17 ar
    29   16   19 1
    30   17   18 ar
    31   17   31 1
    32   18   32 1
    33   19   20 2
    34   19   21 1
@<TRIPOS>MOLECULE
ZINC13741325
   31    34     0     0     0
SMALL
USER_CHARGES

@<TRIPOS>ATOM
      1 C1         -0.0167    1.3786    0.0096 C.ar      1 <0>        -0.1094
      2 C2          1.1696    2.0892    0.0021 C.ar      1 <0>        -0.1002
      3 C3          2.3774    1.4193   -0.0130 C.ar      1 <0>        -0.0983
      4 C4          2.3995    0.0309   -0.0206 C.ar      1 <0>         0.1285
      5 C5          1.2065   -0.6797   -0.0130 C.ar      1 <0>        -0.1158
      6 C6          0.0021   -0.0041    0.0020 C.ar      1 <0>        -0.0981
      7 N1          3.6229   -0.6515   -0.0364 N.pl3     1 <0>        -0.2958
      8 C7          3.8643   -1.8237    0.5830 C.2       1 <0>         0.3373
      9 C8          5.1841   -2.1684    0.3302 C.ar      1 <0>        -0.2843
     10 C9          6.0265   -3.2422    0.6816 C.ar      1 <0>         0.2567
     11 N2          7.2657   -3.2987    0.2841 N.ar      1 <0>        -0.5040
     12 C10         7.8582   -2.3586   -0.4866 C.ar      1 <0>         0.1413
     13 C11         9.1989   -2.4992   -0.8692 C.ar      1 <0>        -0.0800
     14 C12         9.7929   -1.5480   -1.6469 C.ar      1 <0>        -0.0860
     15 C13         9.0865   -0.4298   -2.0720 C.ar      1 <0>        -0.0421
     16 C14         7.7657   -0.2623   -1.7125 C.ar      1 <0>        -0.0663
     17 C15         7.1417   -1.2220   -0.9199 C.ar      1 <0>        -0.0556
     18 C16         5.7361   -1.0895   -0.5096 C.ar      1 <0>         0.1473
     19 N3          4.7763   -0.2208   -0.7030 N.2       1 <0>        -0.2531
     20 Cl1         9.8706    0.7629   -3.0601 Cl        1 <0>        -0.0596
     21 O1          2.9786   -2.5362    1.3197 O.3       1 <0>        -0.4489
     22 H1         -0.9598    1.9047    0.0260 H         1 <0>         0.1345
     23 H2          1.1517    3.1690    0.0077 H         1 <0>         0.1375
     24 H3          3.3035    1.9748   -0.0192 H         1 <0>         0.1372
     25 H4          1.2205   -1.7596   -0.0189 H         1 <0>         0.1267
     26 H5         -0.9261   -0.5562    0.0082 H         1 <0>         0.1380
     27 H6          5.6346   -4.0387    1.2967 H         1 <0>         0.1674
     28 H7          9.7635   -3.3620   -0.5476 H         1 <0>         0.1493
     29 H8         10.8268   -1.6661   -1.9357 H         1 <0>         0.1438
     30 H9          7.2188    0.6081   -2.0436 H         1 <0>         0.1425
     31 H10         2.4686   -3.1789    0.8079 H         1 <0>         0.4095
@<TRIPOS>BOND
     1    1    6 ar
     2    1    2 ar
     3    1   22 1
     4    2    3 ar
     5    2   23 1
     6    3    4 ar
     7    3   24 1
     8    4    5 ar
     9    4    7 1
    10    5    6 ar
    11    5   25 1
    12    6   26 1
    13    7   19 1
    14    7    8 1
    15    8    9 2
    16    8   21 1
    17    9   18 ar
    18    9   10 ar
    19   10   11 ar
    20   10   27 1
    21   11   12 ar
    22   12   17 ar
    23   12   13 ar
    24   13   14 ar
    25   13   28 1
    26   14   15 ar
    27   14   29 1
    28   15   16 ar
    29   15   20 1
    30   16   17 ar
    31   16   30 1
    32   17   18 ar
    33   18   19 2
    34   21   31 1
@<TRIPOS>MOLECULE
ZINC13741323
   35    38     0     0     0
SMALL
USER_CHARGES

@<TRIPOS>ATOM
      1 C1         -0.0173    1.4248    0.0099 C.3       1 <0>         0.0247
      2 O1          0.0021   -0.0041    0.0020 O.3       1 <0>        -0.3123
      3 C2          0.6057   -0.6070   -1.0556 C.ar      1 <0>         0.1533
      4 C3          1.1726    0.1718   -2.0621 C.ar      1 <0>        -0.2076
      5 C4          1.7837   -0.4177   -3.1330 C.ar      1 <0>        -0.0342
      6 C5          1.8423   -1.8062   -3.2225 C.ar      1 <0>        -0.1025
      7 C6          1.2725   -2.6096   -2.2106 C.ar      1 <0>         0.1763
      8 C7          0.6560   -1.9847   -1.1191 C.ar      1 <0>        -0.1348
      9 N1          1.3218   -3.9588   -2.2860 N.ar      1 <0>        -0.5070
     10 C8          1.8795   -4.6155   -3.2632 C.ar      1 <0>         0.2598
     11 C9          2.4914   -3.9531   -4.3459 C.ar      1 <0>        -0.2908
     12 C10         2.4902   -2.4787   -4.3583 C.ar      1 <0>         0.1564
     13 N2          3.1067   -2.1011   -5.4494 N.2       1 <0>        -0.2629
     14 N3          3.5173   -3.2334   -6.1631 N.pl3     1 <0>        -0.2977
     15 C11         3.1500   -4.3482   -5.5015 C.2       1 <0>         0.3367
     16 O2          3.3802   -5.6239   -5.8945 O.3       1 <0>        -0.4519
     17 C12         4.2080   -3.2107   -7.3817 C.ar      1 <0>         0.1236
     18 C13         5.1580   -4.1842   -7.6612 C.ar      1 <0>        -0.1135
     19 C14         5.8369   -4.1593   -8.8637 C.ar      1 <0>        -0.1011
     20 C15         5.5715   -3.1664   -9.7888 C.ar      1 <0>        -0.1096
     21 C16         4.6264   -2.1952   -9.5132 C.ar      1 <0>        -0.1038
     22 C17         3.9400   -2.2179   -8.3150 C.ar      1 <0>        -0.0990
     23 H1          1.0053    1.8021    0.0021 H         1 <0>         0.0583
     24 H2         -0.5445    1.7859   -0.8732 H         1 <0>         0.0583
     25 H3         -0.5275    1.7763    0.9067 H         1 <0>         0.1035
     26 H4          1.1285    1.2489   -1.9957 H         1 <0>         0.1369
     27 H5          2.2206    0.1929   -3.9094 H         1 <0>         0.1347
     28 H6          0.2177   -2.5795   -0.3313 H         1 <0>         0.1471
     29 H7          1.8731   -5.6952   -3.2427 H         1 <0>         0.1659
     30 H8          2.6790   -5.9985   -6.4450 H         1 <0>         0.4113
     31 H9          5.3659   -4.9597   -6.9390 H         1 <0>         0.1397
     32 H10         6.5761   -4.9160   -9.0815 H         1 <0>         0.1370
     33 H11         6.1037   -3.1491  -10.7284 H         1 <0>         0.1332
     34 H12         4.4216   -1.4208  -10.2376 H         1 <0>         0.1361
     35 H13         3.1988   -1.4618   -8.1022 H         1 <0>         0.1360
@<TRIPOS>BOND
     1    1    2 1
     2    1   23 1
     3    1   24 1
     4    1   25 1
     5    2    3 1
     6    3    8 ar
     7    3    4 ar
     8    4    5 ar
     9    4   26 1
    10    5    6 ar
    11    5   27 1
    12    6   12 ar
    13    6    7 ar
    14    7    8 ar
    15    7    9 ar
    16    8   28 1
    17    9   10 ar
    18   10   11 ar
    19   10   29 1
    20   11   15 2
    21   11   12 ar
    22   12   13 2
    23   13   14 1
    24   14   15 1
    25   14   17 1
    26   15   16 1
    27   16   30 1
    28   17   22 ar
    29   17   18 ar
    30   18   19 ar
    31   18   31 1
    32   19   20 ar
    33   19   32 1
    34   20   21 ar
    35   20   33 1
    36   21   22 ar
    37   21   34 1
    38   22   35 1
@<TRIPOS>MOLECULE
ZINC02584032
   44    47     0     0     0
SMALL
USER_CHARGES

@<TRIPOS>ATOM
      1 C1         -2.3642   -0.0672    0.6505 C.3       1 <0>        -0.1531
      2 C2         -1.0204   -0.6984    0.2810 C.3       1 <0>         0.0580
      3 O1         -0.3992   -1.2193    1.4578 O.3       1 <0>        -0.3422
      4 C3          0.8011   -1.8132    1.3045 C.2       1 <0>         0.5681
      5 O2          1.3063   -1.8867    0.2014 O.2       1 <0>        -0.4894
      6 C4          1.4998   -2.3727    2.4726 C.2       1 <0>        -0.0061
      7 C5          1.6066   -3.6902    2.7931 C.2       1 <0>         0.0288
      8 N1          2.3407   -3.7727    3.9331 N.pl3     1 <0>        -0.3993
      9 C6          2.6537   -2.4981    4.3034 C.2       1 <0>         0.2127
     10 N2          2.1632   -1.6687    3.4281 N.2       1 <0>        -0.4394
     11 C7          2.7258   -4.9380    4.6006 C.ar      1 <0>         0.1084
     12 C8          3.9958   -4.9562    5.1757 C.ar      1 <0>        -0.0818
     13 C9          4.4509   -6.0743    5.8389 C.ar      1 <0>        -0.1619
     14 C10         3.6425   -7.2002    5.9386 C.ar      1 <0>         0.1365
     15 C11         2.3816   -7.1961    5.3786 C.ar      1 <0>        -0.0836
     16 C12         1.9035   -6.0590    4.7061 C.ar      1 <0>        -0.0750
     17 C13         0.5402   -6.1172    4.1635 C.2       1 <0>         0.5713
     18 O3         -0.3085   -6.6743    4.8325 O.2       1 <0>        -0.5206
     19 N3          0.1631   -5.6028    2.9888 N.am      1 <0>        -0.6022
     20 C14         1.0285   -4.8654    2.0524 C.3       1 <0>         0.1967
     21 H1          1.8261   -5.5109    1.6847 H         1 <0>         0.1081
     22 C15         0.1393   -4.3757    0.8940 C.3       1 <0>        -0.1296
     23 C16        -1.0287   -5.3983    0.9099 C.3       1 <0>        -0.1285
     24 C17        -1.2005   -5.6515    2.4275 C.3       1 <0>         0.1065
     25 O4          4.0944   -8.3060    6.5876 O.3       1 <0>        -0.3069
     26 C18         5.4095   -8.2404    7.1427 C.3       1 <0>         0.0222
     27 H2         -2.2021    0.7409    1.3638 H         1 <0>         0.0685
     28 H3         -2.8380    0.3302   -0.2472 H         1 <0>         0.0827
     29 H4         -3.0098   -0.8228    1.0980 H         1 <0>         0.0673
     30 H5         -1.1824   -1.5065   -0.4323 H         1 <0>         0.0713
     31 H6         -0.3747    0.0572   -0.1665 H         1 <0>         0.0723
     32 H7          3.2213   -2.2215    5.1796 H         1 <0>         0.2247
     33 H8          4.6290   -4.0845    5.1006 H         1 <0>         0.1463
     34 H9          5.4362   -6.0761    6.2812 H         1 <0>         0.1494
     35 H10         1.7571   -8.0737    5.4583 H         1 <0>         0.1541
     36 H11        -0.2267   -3.3673    1.0868 H         1 <0>         0.0813
     37 H12         0.6784   -4.4187   -0.0524 H         1 <0>         0.1051
     38 H13        -1.9326   -4.9655    0.4813 H         1 <0>         0.0967
     39 H14        -0.7520   -6.3154    0.3897 H         1 <0>         0.0872
     40 H15        -1.6445   -6.6321    2.5989 H         1 <0>         0.0902
     41 H16        -1.8200   -4.8728    2.8725 H         1 <0>         0.0762
     42 H17         5.6454   -9.1860    7.6310 H         1 <0>         0.1077
     43 H18         6.1307   -8.0525    6.3472 H         1 <0>         0.0606
     44 H19         5.4557   -7.4328    7.8732 H         1 <0>         0.0611
@<TRIPOS>BOND
     1    1    2 1
     2    1   27 1
     3    1   28 1
     4    1   29 1
     5    2    3 1
     6    2   30 1
     7    2   31 1
     8    3    4 1
     9    4    5 2
    10    4    6 1
    11    6   10 1
    12    6    7 2
    13    7   20 1
    14    7    8 1
    15    8    9 1
    16    8   11 1
    17    9   10 2
    18    9   32 1
    19   11   16 ar
    20   11   12 ar
    21   12   13 ar
    22   12   33 1
    23   13   14 ar
    24   13   34 1
    25   14   15 ar
    26   14   25 1
    27   15   16 ar
    28   15   35 1
    29   16   17 1
    30   17   18 2
    31   17   19 am
    32   19   24 1
    33   19   20 1
    34   20   21 1
    35   20   22 1
    36   22   23 1
    37   22   36 1
    38   22   37 1
    39   23   24 1
    40   23   38 1
    41   23   39 1
    42   24   40 1
    43   24   41 1
    44   25   26 1
    45   26   42 1
    46   26   43 1
    47   26   44 1
@<TRIPOS>MOLECULE
ZINC00968303
   31    31     0     0     0
SMALL
USER_CHARGES

@<TRIPOS>ATOM
      1 C1         -0.0187    1.5258    0.0104 C.3       1 <0>        -0.1426
      2 C2          0.0021   -0.0041    0.0020 C.3       1 <0>        -0.0574
      3 C3          0.7421   -0.5109    1.2415 C.3       1 <0>        -0.1444
      4 C4         -1.4117   -0.5257    0.0127 C.ar      1 <0>        -0.0967
      5 C5         -2.2591   -0.2048    1.0555 C.ar      1 <0>        -0.1067
      6 C6         -3.5563   -0.6832    1.0659 C.ar      1 <0>        -0.1229
      7 C7         -4.0089   -1.4835    0.0333 C.ar      1 <0>        -0.1067
      8 C8         -3.1655   -1.8072   -1.0118 C.ar      1 <0>        -0.0968
      9 C9         -1.8651   -1.3238   -1.0275 C.ar      1 <0>         0.1042
     10 O1         -1.0353   -1.6359   -2.0575 O.3       1 <0>        -0.4921
     11 C10        -3.6593   -2.6796   -2.1370 C.3       1 <0>        -0.0574
     12 C11        -4.0923   -4.0364   -1.5781 C.3       1 <0>        -0.1444
     13 C12        -4.8512   -2.0054   -2.8196 C.3       1 <0>        -0.1426
     14 H1          1.0039    1.9031    0.0027 H         1 <0>         0.0589
     15 H2         -0.5459    1.8868   -0.8726 H         1 <0>         0.0558
     16 H3         -0.5289    1.8773    0.9072 H         1 <0>         0.0557
     17 H4          0.5123   -0.3556   -0.8948 H         1 <0>         0.0842
     18 H5          1.7647   -0.1336    1.2338 H         1 <0>         0.0594
     19 H6          0.2319   -0.1594    2.1383 H         1 <0>         0.0565
     20 H7          0.7568   -1.6008    1.2356 H         1 <0>         0.0537
     21 H8         -1.9078    0.4198    1.8635 H         1 <0>         0.1242
     22 H9         -4.2171   -0.4315    1.8823 H         1 <0>         0.1240
     23 H10        -5.0225   -1.8561    0.0439 H         1 <0>         0.1242
     24 H11        -0.5259   -2.4463   -1.9205 H         1 <0>         0.3861
     25 H12        -2.8591   -2.8242   -2.8628 H         1 <0>         0.0841
     26 H13        -4.8926   -3.8918   -0.8523 H         1 <0>         0.0565
     27 H14        -4.4495   -4.6674   -2.3919 H         1 <0>         0.0594
     28 H15        -3.2432   -4.5167   -1.0918 H         1 <0>         0.0537
     29 H16        -5.6515   -1.8608   -2.0939 H         1 <0>         0.0557
     30 H17        -4.5428   -1.0388   -3.2178 H         1 <0>         0.0558
     31 H18        -5.2084   -2.6364   -3.6335 H         1 <0>         0.0589
@<TRIPOS>BOND
     1    1    2 1
     2    1   14 1
     3    1   15 1
     4    1   16 1
     5    2    3 1
     6    2    4 1
     7    2   17 1
     8    3   18 1
     9    3   19 1
    10    3   20 1
    11    4    9 ar
    12    4    5 ar
    13    5    6 ar
    14    5   21 1
    15    6    7 ar
    16    6   22 1
    17    7    8 ar
    18    7   23 1
    19    8    9 ar
    20    8   11 1
    21    9   10 1
    22   10   24 1
    23   11   12 1
    24   11   13 1
    25   11   25 1
    26   12   26 1
    27   12   27 1
    28   12   28 1
    29   13   29 1
    30   13   30 1
    31   13   31 1
@<TRIPOS>MOLECULE
ZINC03984030
   58    63     0     0     0
SMALL
USER_CHARGES
8-[5-(5,7-dihydroxy-4-oxo-chromen-2-yl)-2-hydroxy-phenyl]-5,7-dihydroxy-2-(4-hydroxyphenyl)chromen-4-one
@<TRIPOS>ATOM
      1 C1         -6.6020    1.8042    6.0990 C.ar      1 <0>        -0.0607
      2 C2         -5.9382    1.4440    7.2507 C.ar      1 <0>        -0.1468
      3 C3         -4.7115    0.7954    7.1742 C.ar      1 <0>         0.1378
      4 C4         -4.1521    0.5021    5.9364 C.ar      1 <0>        -0.1491
      5 C5         -4.8118    0.8534    4.7796 C.ar      1 <0>        -0.0601
      6 C6         -6.0457    1.5059    4.8519 C.ar      1 <0>        -0.0854
      7 C7         -6.7560    1.8841    3.6156 C.2       1 <0>         0.2075
      8 C8         -7.9553    2.5182    3.7175 C.2       1 <0>        -0.3096
      9 C9         -8.6505    2.8878    2.5419 C.2       1 <0>         0.4236
     10 O1         -9.7281    3.4581    2.5954 O.2       1 <0>        -0.4510
     11 C10        -8.0226    2.5578    1.2508 C.ar      1 <0>        -0.2639
     12 C11        -8.6408    2.8871    0.0370 C.ar      1 <0>         0.2260
     13 C12        -8.0238    2.5633   -1.1580 C.ar      1 <0>        -0.2031
     14 C13        -6.7962    1.9146   -1.1593 C.ar      1 <0>         0.2147
     15 C14        -6.1693    1.5806    0.0441 C.ar      1 <0>        -0.1114
     16 C15        -6.7847    1.8965    1.2584 C.ar      1 <0>         0.1942
     17 O2         -6.1949    1.5893    2.4322 O.3       1 <0>        -0.2149
     18 C16        -4.8586    0.8881    0.0326 C.ar      1 <0>        -0.0643
     19 C17        -3.6811    1.6258    0.0345 C.ar      1 <0>        -0.0359
     20 C18        -2.4507    0.9671    0.0193 C.ar      1 <0>        -0.0795
     21 C19        -2.4076   -0.4306    0.0120 C.ar      1 <0>        -0.0561
     22 C20        -3.5773   -1.1593    0.0145 C.ar      1 <0>        -0.1433
     23 C21        -4.8042   -0.5114    0.0247 C.ar      1 <0>         0.1513
     24 O3         -5.9530   -1.2346    0.0276 O.3       1 <0>        -0.4914
     25 C22        -1.1969    1.7446    0.0172 C.2       1 <0>         0.2090
     26 C23        -0.0126    1.0758    0.0080 C.2       1 <0>        -0.3096
     27 C24         1.2002    1.8049    0.0003 C.2       1 <0>         0.4229
     28 O4          2.2808    1.2378   -0.0122 O.2       1 <0>        -0.4531
     29 C25         1.1075    3.2746    0.0085 C.ar      1 <0>        -0.2660
     30 C26         2.2563    4.0758    0.0013 C.ar      1 <0>         0.2193
     31 C27         2.1265    5.4522    0.0089 C.ar      1 <0>        -0.2047
     32 C28         0.8637    6.0348    0.0232 C.ar      1 <0>         0.1929
     33 C29        -0.2774    5.2478    0.0309 C.ar      1 <0>        -0.1830
     34 C30        -0.1673    3.8660    0.0234 C.ar      1 <0>         0.1835
     35 O5         -1.2685    3.0851    0.0294 O.3       1 <0>        -0.2179
     36 O6          0.7475    7.3873    0.0302 O.3       1 <0>        -0.4872
     37 O7          3.4876    3.5054   -0.0136 O.3       1 <0>        -0.4723
     38 O8         -6.2009    1.6021   -2.3382 O.3       1 <0>        -0.4809
     39 O9         -9.8401    3.5219    0.0339 O.3       1 <0>        -0.4713
     40 O10        -4.0576    0.4477    8.3120 O.3       1 <0>        -0.4966
     41 H1         -7.5530    2.3125    6.1593 H         1 <0>         0.1416
     42 H2         -6.3694    1.6701    8.2147 H         1 <0>         0.1417
     43 H3         -3.1984   -0.0018    5.8814 H         1 <0>         0.1389
     44 H4         -4.3761    0.6254    3.8180 H         1 <0>         0.1375
     45 H5         -8.3735    2.7383    4.6886 H         1 <0>         0.1643
     46 H6         -8.4990    2.8165   -2.0942 H         1 <0>         0.1534
     47 H7         -3.7179    2.7051    0.0447 H         1 <0>         0.1398
     48 H8         -1.4554   -0.9401    0.0047 H         1 <0>         0.1436
     49 H9         -3.5389   -2.2386    0.0088 H         1 <0>         0.1450
     50 H10        -6.2808   -1.4486    0.9118 H         1 <0>         0.3974
     51 H11         0.0021   -0.0041    0.0020 H         1 <0>         0.1641
     52 H12         3.0078    6.0765    0.0034 H         1 <0>         0.1502
     53 H13        -1.2527    5.7115    0.0424 H         1 <0>         0.1530
     54 H14         0.7056    7.7831   -0.8511 H         1 <0>         0.4041
     55 H15         3.8358    3.3444   -0.9013 H         1 <0>         0.4032
     56 H16        -6.4413    0.7307   -2.6814 H         1 <0>         0.4051
     57 H17       -10.6010    2.9252    0.0313 H         1 <0>         0.4046
     58 H18        -3.4554    1.1280    8.6431 H         1 <0>         0.3992
@<TRIPOS>BOND
     1    1    6 ar
     2    1    2 ar
     3    1   41 1
     4    2    3 ar
     5    2   42 1
     6    3    4 ar
     7    3   40 1
     8    4    5 ar
     9    4   43 1
    10    5    6 ar
    11    5   44 1
    12    6    7 1
    13    7   17 1
    14    7    8 2
    15    8    9 1
    16    8   45 1
    17    9   10 2
    18    9   11 1
    19   11   16 ar
    20   11   12 ar
    21   12   13 ar
    22   12   39 1
    23   13   14 ar
    24   13   46 1
    25   14   15 ar
    26   14   38 1
    27   15   16 ar
    28   15   18 1
    29   16   17 1
    30   18   23 ar
    31   18   19 ar
    32   19   20 ar
    33   19   47 1
    34   20   21 ar
    35   20   25 1
    36   21   22 ar
    37   21   48 1
    38   22   23 ar
    39   22   49 1
    40   23   24 1
    41   24   50 1
    42   25   35 1
    43   25   26 2
    44   26   27 1
    45   26   51 1
    46   27   28 2
    47   27   29 1
    48   29   34 ar
    49   29   30 ar
    50   30   31 ar
    51   30   37 1
    52   31   32 ar
    53   31   52 1
    54   32   33 ar
    55   32   36 1
    56   33   34 ar
    57   33   53 1
    58   34   35 1
    59   36   54 1
    60   37   55 1
    61   38   56 1
    62   39   57 1
    63   40   58 1
@<TRIPOS>MOLECULE
ZINC00002212
   35    38     0     0     0
SMALL
USER_CHARGES

@<TRIPOS>ATOM
      1 C1         -0.1800    1.6644    0.3442 C.3       1 <0>        -0.0805
      2 C2         -0.0939    0.1664    0.2042 C.2       1 <0>         0.1938
      3 N1         -0.1449   -0.5158   -0.9102 N.2       1 <0>        -0.2798
      4 N2         -0.0224   -1.7733   -0.6608 N.2       1 <0>        -0.2634
      5 C3          0.1215   -1.9531    0.6205 C.2       1 <0>         0.1632
      6 N3          0.0575   -0.7333    1.2116 N.pl3     1 <0>        -0.4256
      7 C4          0.0987   -0.4829    2.5839 C.ar      1 <0>         0.1582
      8 C5         -0.6900    0.5444    3.0915 C.ar      1 <0>        -0.1203
      9 C6         -0.7091    0.8088    4.4449 C.ar      1 <0>        -0.0671
     10 C7          0.0590    0.0461    5.3103 C.ar      1 <0>        -0.0325
     11 C8          0.8551   -0.9653    4.8215 C.ar      1 <0>        -0.0545
     12 C9          0.8992   -1.2357    3.4455 C.ar      1 <0>        -0.0835
     13 C10         1.8245   -2.2729    2.9757 C.2       1 <0>         0.2615
     14 N4          1.6250   -3.1562    2.0605 N.2       1 <0>        -0.4630
     15 C11         0.3412   -3.2568    1.3455 C.3       1 <0>         0.1203
     16 C12         3.1504   -2.3077    3.6344 C.ar      1 <0>        -0.0561
     17 C13         3.5159   -3.4041    4.4157 C.ar      1 <0>        -0.0723
     18 C14         4.7524   -3.4310    5.0264 C.ar      1 <0>        -0.1131
     19 C15         5.6306   -2.3735    4.8658 C.ar      1 <0>        -0.0913
     20 C16         5.2753   -1.2830    4.0933 C.ar      1 <0>        -0.1092
     21 C17         4.0421   -1.2462    3.4716 C.ar      1 <0>        -0.0118
     22 Cl1         3.6000    0.1198    2.4956 Cl        1 <0>        -0.0613
     23 Cl2         0.0177    0.3673    7.0159 Cl        1 <0>        -0.0438
     24 H1          0.8252    2.0836    0.3876 H         1 <0>         0.0905
     25 H2         -0.7101    2.0796   -0.5130 H         1 <0>         0.1053
     26 H3         -0.7174    1.9136    1.2592 H         1 <0>         0.0870
     27 H4         -1.2916    1.1397    2.4206 H         1 <0>         0.1545
     28 H5         -1.3227    1.6096    4.8303 H         1 <0>         0.1541
     29 H6          1.4503   -1.5552    5.5027 H         1 <0>         0.1508
     30 H7         -0.4718   -3.4285    2.0511 H         1 <0>         0.0979
     31 H8          0.3870   -4.0755    0.6275 H         1 <0>         0.1396
     32 H9          2.8318   -4.2302    4.5425 H         1 <0>         0.1375
     33 H10         5.0359   -4.2794    5.6317 H         1 <0>         0.1373
     34 H11         6.5975   -2.3998    5.3463 H         1 <0>         0.1380
     35 H12         5.9647   -0.4605    3.9724 H         1 <0>         0.1395
@<TRIPOS>BOND
     1    1    2 1
     2    1   24 1
     3    1   25 1
     4    1   26 1
     5    2    6 1
     6    2    3 2
     7    3    4 1
     8    4    5 2
     9    5   15 1
    10    5    6 1
    11    6    7 1
    12    7   12 ar
    13    7    8 ar
    14    8    9 ar
    15    8   27 1
    16    9   10 ar
    17    9   28 1
    18   10   11 ar
    19   10   23 1
    20   11   12 ar
    21   11   29 1
    22   12   13 1
    23   13   14 2
    24   13   16 1
    25   14   15 1
    26   15   30 1
    27   15   31 1
    28   16   21 ar
    29   16   17 ar
    30   17   18 ar
    31   17   32 1
    32   18   19 ar
    33   18   33 1
    34   19   20 ar
    35   19   34 1
    36   20   21 ar
    37   20   35 1
    38   21   22 1
@<TRIPOS>MOLECULE
ZINC08022464
   38    40     0     0     0
SMALL
USER_CHARGES

@<TRIPOS>ATOM
      1 C1         -0.0187    1.5258    0.0104 C.3       1 <0>        -0.1527
      2 C2          0.0021   -0.0041    0.0020 C.3       1 <0>         0.0595
      3 O1         -1.3386   -0.4987    0.0122 O.3       1 <0>        -0.3297
      4 C3         -1.4970   -1.8372    0.0065 C.2       1 <0>         0.5595
      5 O2         -0.5232   -2.5645   -0.0067 O.2       1 <0>        -0.5061
      6 C4         -2.8493   -2.4183    0.0163 C.2       1 <0>        -0.0223
      7 C5         -3.1572   -3.7440    0.0176 C.2       1 <0>         0.0529
      8 N1         -4.5098   -3.8422   -0.0019 N.pl3     1 <0>        -0.4007
      9 C6         -5.0125   -2.5749    0.0269 C.2       1 <0>         0.2090
     10 N2         -4.0223   -1.7294    0.0316 N.2       1 <0>        -0.4292
     11 C7         -5.2470   -5.0194   -0.0763 C.ar      1 <0>         0.1269
     12 C8         -6.4275   -4.9909   -0.8316 C.ar      1 <0>        -0.0818
     13 C9         -7.1865   -6.1051   -0.9933 C.ar      1 <0>        -0.1435
     14 C10        -6.7542   -7.3589   -0.3739 C.ar      1 <0>         0.1203
     15 C11        -5.5756   -7.3656    0.4064 C.ar      1 <0>        -0.0319
     16 C12        -4.8343   -6.1951    0.5695 C.ar      1 <0>        -0.0792
     17 C13        -3.6625   -6.2605    1.4492 C.2       1 <0>         0.5508
     18 O3         -3.7869   -6.9116    2.4683 O.2       1 <0>        -0.5250
     19 N3         -2.4776   -5.6856    1.2545 N.am      1 <0>        -0.5961
     20 C14        -2.1928   -4.9017    0.0473 C.3       1 <0>         0.1632
     21 C15        -1.4330   -5.8389    2.2702 C.3       1 <0>         0.0755
     22 N4         -7.4567   -8.4695   -0.5416 N.2       1 <0>        -0.3371
     23 N5         -8.3928   -8.4539   -1.1636 N.1       1 <0>         0.2975
     24 N6         -9.3089   -8.4387   -1.7723 N.1       1 <0>        -0.0989
     25 H1          1.0039    1.9031    0.0027 H         1 <0>         0.0813
     26 H2         -0.5459    1.8868   -0.8726 H         1 <0>         0.0680
     27 H3         -0.5289    1.8773    0.9072 H         1 <0>         0.0679
     28 H4          0.5123   -0.3556   -0.8948 H         1 <0>         0.0705
     29 H5          0.5293   -0.3651    0.8851 H         1 <0>         0.0701
     30 H6         -6.0606   -2.3150    0.0466 H         1 <0>         0.2257
     31 H7         -6.7392   -4.0656   -1.2931 H         1 <0>         0.1496
     32 H8         -8.0979   -6.0666   -1.5715 H         1 <0>         0.1411
     33 H9         -5.2477   -8.2802    0.8780 H         1 <0>         0.1627
     34 H10        -2.3324   -5.5221   -0.8379 H         1 <0>         0.0975
     35 H11        -1.1689   -4.5293    0.0812 H         1 <0>         0.1469
     36 H12        -1.8122   -6.4455    3.0926 H         1 <0>         0.0979
     37 H13        -0.5652   -6.3282    1.8279 H         1 <0>         0.0724
     38 H14        -1.1445   -4.8572    2.6457 H         1 <0>         0.0675
@<TRIPOS>BOND
     1    1    2 1
     2    1   25 1
     3    1   26 1
     4    1   27 1
     5    2    3 1
     6    2   28 1
     7    2   29 1
     8    3    4 1
     9    4    5 2
    10    4    6 1
    11    6   10 1
    12    6    7 2
    13    7   20 1
    14    7    8 1
    15    8    9 1
    16    8   11 1
    17    9   10 2
    18    9   30 1
    19   11   16 ar
    20   11   12 ar
    21   12   13 ar
    22   12   31 1
    23   13   14 ar
    24   13   32 1
    25   14   15 ar
    26   14   22 1
    27   15   16 ar
    28   15   33 1
    29   16   17 1
    30   17   18 2
    31   17   19 am
    32   19   20 1
    33   19   21 1
    34   20   34 1
    35   20   35 1
    36   21   36 1
    37   21   37 1
    38   21   38 1
    39   22   23 2
    40   23   24 2
@<TRIPOS>MOLECULE
ZINC00083341
   33    35     0     0     0
SMALL
USER_CHARGES
2-methyl-6-phenyl-2,5-diazabicyclo[5.4.0]undeca-5,8,10,12-tetraen-3-one
@<TRIPOS>ATOM
      1 C1         -3.5826    3.2178   -0.7940 C.3       1 <0>         0.0595
      2 N1         -2.5207    3.7818    0.0430 N.am      1 <0>        -0.5551
      3 C2         -1.2823    3.1611    0.0074 C.ar      1 <0>         0.1784
      4 C3         -1.2660    1.7652   -0.0293 C.ar      1 <0>        -0.1459
      5 C4         -0.0731    1.0775   -0.0629 C.ar      1 <0>        -0.0739
      6 C5          1.1274    1.7685   -0.0716 C.ar      1 <0>        -0.1331
      7 C6          1.1306    3.1435   -0.0408 C.ar      1 <0>        -0.0604
      8 C7         -0.0763    3.8586   -0.0006 C.ar      1 <0>        -0.1333
      9 C8          0.0019    5.3274    0.0335 C.2       1 <0>         0.2670
     10 N2         -0.7480    6.0874    0.7500 N.2       1 <0>        -0.4952
     11 C9         -1.7880    5.5445    1.6229 C.3       1 <0>         0.0261
     12 C10        -2.8208    4.8509    0.7770 C.2       1 <0>         0.5086
     13 O1         -3.9563    5.2767    0.7639 O.2       1 <0>        -0.5154
     14 C11         1.0206    5.9796   -0.8221 C.ar      1 <0>        -0.0682
     15 C12         1.4867    7.2557   -0.5068 C.ar      1 <0>        -0.0697
     16 C13         2.4386    7.8561   -1.3050 C.ar      1 <0>        -0.1269
     17 C14         2.9233    7.1989   -2.4218 C.ar      1 <0>        -0.1004
     18 C15         2.4613    5.9349   -2.7424 C.ar      1 <0>        -0.1256
     19 C16         1.5130    5.3222   -1.9492 C.ar      1 <0>        -0.0897
     20 H1         -4.4939    3.8025   -0.6679 H         1 <0>         0.1007
     21 H2         -3.2748    3.2456   -1.8392 H         1 <0>         0.0712
     22 H3         -3.7693    2.1856   -0.4975 H         1 <0>         0.0728
     23 H4         -2.1979    1.2194   -0.0271 H         1 <0>         0.1344
     24 H5         -0.0739   -0.0023   -0.0870 H         1 <0>         0.1350
     25 H6          2.0614    1.2271   -0.1029 H         1 <0>         0.1349
     26 H7          2.0695    3.6773   -0.0479 H         1 <0>         0.1370
     27 H8         -1.3456    4.8303    2.3174 H         1 <0>         0.0926
     28 H9         -2.2557    6.3552    2.1816 H         1 <0>         0.1320
     29 H10         1.1058    7.7715    0.3623 H         1 <0>         0.1341
     30 H11         2.8031    8.8427   -1.0598 H         1 <0>         0.1278
     31 H12         3.6656    7.6745   -3.0457 H         1 <0>         0.1257
     32 H13         2.8434    5.4269   -3.6155 H         1 <0>         0.1277
     33 H14         1.1531    4.3354   -2.2005 H         1 <0>         0.1272
@<TRIPOS>BOND
     1    1    2 1
     2    1   20 1
     3    1   21 1
     4    1   22 1
     5    2   12 am
     6    2    3 1
     7    3    8 ar
     8    3    4 ar
     9    4    5 ar
    10    4   23 1
    11    5    6 ar
    12    5   24 1
    13    6    7 ar
    14    6   25 1
    15    7    8 ar
    16    7   26 1
    17    8    9 1
    18    9   10 2
    19    9   14 1
    20   10   11 1
    21   11   12 1
    22   11   27 1
    23   11   28 1
    24   12   13 2
    25   14   19 ar
    26   14   15 ar
    27   15   16 ar
    28   15   29 1
    29   16   17 ar
    30   16   30 1
    31   17   18 ar
    32   17   31 1
    33   18   19 ar
    34   18   32 1
    35   19   33 1
@<TRIPOS>MOLECULE
ZINC03793347
   48    51     0     0     0
SMALL
USER_CHARGES
3-[(1-methylpyrrolidin-2-yl)methyl]-N-(3-nitro-2-pyridyl)-1H-indol-5-amine
@<TRIPOS>ATOM
      1 C1          4.3520    6.6178   -3.8708 C.3       1 <0>        -0.0469
      2 C2          6.4587    5.5578   -4.4389 C.3       1 <0>        -0.0148
      3 C3          7.7401    6.3607   -4.7466 C.3       1 <0>        -0.1406
      4 C4          7.9269    7.2233   -3.4707 C.3       1 <0>        -0.1409
      5 C5          6.4592    7.5390   -3.0889 C.3       1 <0>         0.0313
      6 H1          6.0833    8.3750   -3.6787 H         1 <0>         0.1406
      7 C6          6.3530    7.8521   -1.5950 C.3       1 <0>        -0.0545
      8 C7          4.9267    8.1996   -1.2547 C.2       1 <0>        -0.2290
      9 C8          4.3999    9.4325   -1.1868 C.2       1 <0>         0.0999
     10 N1          3.0760    9.3565   -0.8506 N.pl3     1 <0>        -0.5851
     11 H2          2.4841   10.1172   -0.7414 H         1 <0>         0.4259
     12 C9          2.7086    8.0368   -0.6897 C.ar      1 <0>         0.0869
     13 C10         3.8523    7.2559   -0.9361 C.ar      1 <0>        -0.0893
     14 C11         3.7817    5.8648   -0.8409 C.ar      1 <0>        -0.1398
     15 C12         2.5807    5.2631   -0.5137 C.ar      1 <0>         0.1573
     16 C13         1.4498    6.0405   -0.2700 C.ar      1 <0>        -0.0874
     17 C14         1.5109    7.4133   -0.3568 C.ar      1 <0>        -0.0913
     18 N2          2.5016    3.8681   -0.4213 N.pl3     1 <0>        -0.6429
     19 C15         1.3342    3.2116   -0.7951 C.ar      1 <0>         0.4532
     20 C16         1.2182    1.8402   -0.5896 C.ar      1 <0>        -0.1587
     21 C17         0.0516    1.2001   -0.9662 C.ar      1 <0>         0.0340
     22 C18        -0.9620    1.9545   -1.5428 C.ar      1 <0>        -0.2160
     23 C19        -0.7815    3.3125   -1.7120 C.ar      1 <0>         0.2016
     24 N3          0.3426    3.8970   -1.3432 N.ar      1 <0>        -0.5214
     25 N4          2.3282    1.0771    0.0241 N.pl3     1 <0>         0.0480
     26 O1          2.2658   -0.1372    0.0959 O.2       1 <0>        -0.1292
     27 O2          3.3039    1.6634    0.4573 O.3       1 <0>        -0.1990
     28 H3          4.4051    7.2375   -4.7659 H         1 <0>         0.1176
     29 H4          3.8241    5.6922   -4.1005 H         1 <0>         0.1148
     30 H5          3.8181    7.1558   -3.0875 H         1 <0>         0.1324
     31 H6          6.7219    4.5697   -4.0616 H         1 <0>         0.1267
     32 H7          5.8533    5.4612   -5.3402 H         1 <0>         0.1307
     33 H8          8.5894    5.6921   -4.8875 H         1 <0>         0.1120
     34 H9          7.5973    6.9939   -5.6223 H         1 <0>         0.0982
     35 H10         8.4774    8.1371   -3.6943 H         1 <0>         0.1171
     36 H11         8.4213    6.6541   -2.6835 H         1 <0>         0.0999
     37 H12         7.0000    8.6955   -1.3536 H         1 <0>         0.1178
     38 H13         6.6621    6.9804   -1.0182 H         1 <0>         0.0919
     39 H14         4.9413   10.3489   -1.3700 H         1 <0>         0.1782
     40 H15         4.6588    5.2623   -1.0257 H         1 <0>         0.1143
     41 H16         0.5170    5.5618   -0.0110 H         1 <0>         0.1430
     42 H17         0.6285    8.0060   -0.1659 H         1 <0>         0.1330
     43 H18         3.2612    3.3597   -0.0964 H         1 <0>         0.4334
     44 H19        -0.0668    0.1367   -0.8194 H         1 <0>         0.1700
     45 H20        -1.8839    1.4841   -1.8516 H         1 <0>         0.1637
     46 H21        -1.5688    3.9036   -2.1562 H         1 <0>         0.1838
     47 N5          5.7242    6.2966   -3.3990 N.4       1 <0>        -0.3920
     48 H22         5.6610    5.7189   -2.5525 H         1 <0>         0.4214
@<TRIPOS>BOND
     1    1   28 1
     2    1   29 1
     3    1   30 1
     4    1   47 1
     5    2    3 1
     6    2   31 1
     7    2   32 1
     8    2   47 1
     9    3    4 1
    10    3   33 1
    11    3   34 1
    12    4    5 1
    13    4   35 1
    14    4   36 1
    15    5    6 1
    16    5    7 1
    17    5   47 1
    18    7    8 1
    19    7   37 1
    20    7   38 1
    21    8   13 1
    22    8    9 2
    23    9   10 1
    24    9   39 1
    25   10   11 1
    26   10   12 1
    27   12   17 ar
    28   12   13 ar
    29   13   14 ar
    30   14   15 ar
    31   14   40 1
    32   15   16 ar
    33   15   18 1
    34   16   17 ar
    35   16   41 1
    36   17   42 1
    37   18   19 1
    38   18   43 1
    39   19   24 ar
    40   19   20 ar
    41   20   21 ar
    42   20   25 1
    43   21   22 ar
    44   21   44 1
    45   22   23 ar
    46   22   45 1
    47   23   24 ar
    48   23   46 1
    49   25   26 2
    50   25   27 1
    51   47   48 1
