@<TRIPOS>MOLECULE
ZINC06507046
   30    32     0     0     0
SMALL
USER_CHARGES

@<TRIPOS>ATOM
      1 C1         -0.0187    1.5258    0.0104 C.3       1 <0>        -0.1516
      2 C2          0.0021   -0.0041    0.0020 C.3       1 <0>         0.0576
      3 O1          0.6932   -0.4774    1.1597 O.3       1 <0>        -0.3290
      4 C3          0.8010   -1.8125    1.3044 C.2       1 <0>         0.5310
      5 O2          0.3215   -2.5545    0.4707 O.2       1 <0>        -0.5021
      6 C4          1.5026   -2.3743    2.4772 C.ar      1 <0>         0.0402
      7 C5          1.6143   -3.7553    2.6160 C.ar      1 <0>        -0.0333
      8 C6          2.2792   -4.2624    3.7284 C.ar      1 <0>        -0.0831
      9 C7          2.5953   -5.6144    4.2150 C.ar      1 <0>        -0.1038
     10 C8          2.3393   -6.8954    3.7304 C.ar      1 <0>        -0.0556
     11 C9          2.7783   -7.9949    4.4350 C.ar      1 <0>        -0.1428
     12 C10         3.4736   -7.8308    5.6237 C.ar      1 <0>        -0.0754
     13 C11         3.7339   -6.5702    6.1150 C.ar      1 <0>        -0.1379
     14 C12         3.2989   -5.4466    5.4180 C.ar      1 <0>         0.1403
     15 N1          3.4169   -4.0919    5.6699 N.pl3     1 <0>        -0.5953
     16 C13         2.8128   -3.3630    4.6699 C.ar      1 <0>         0.1173
     17 C14         2.6538   -1.9943    4.4511 C.ar      1 <0>         0.0980
     18 N2          2.0253   -1.5542    3.3864 N.ar      1 <0>        -0.4039
     19 H1          1.0039    1.9031    0.0027 H         1 <0>         0.0677
     20 H2         -0.5459    1.8868   -0.8726 H         1 <0>         0.0803
     21 H3         -0.5289    1.8773    0.9072 H         1 <0>         0.0677
     22 H4         -1.0205   -0.3814    0.0098 H         1 <0>         0.0690
     23 H5          0.5123   -0.3556   -0.8948 H         1 <0>         0.0690
     24 H6          1.1933   -4.4194    1.8756 H         1 <0>         0.1539
     25 H7          1.7978   -7.0261    2.8052 H         1 <0>         0.1310
     26 H8          2.5801   -8.9882    4.0604 H         1 <0>         0.1325
     27 H9          3.8135   -8.6987    6.1693 H         1 <0>         0.1343
     28 H10         4.2762   -6.4537    7.0417 H         1 <0>         0.1294
     29 H11         3.0568   -1.2892    5.1630 H         1 <0>         0.1699
     30 H12         3.8619   -3.7092    6.4422 H         1 <0>         0.4248
@<TRIPOS>BOND
     1    1    2 1
     2    1   19 1
     3    1   20 1
     4    1   21 1
     5    2    3 1
     6    2   22 1
     7    2   23 1
     8    3    4 1
     9    4    5 2
    10    4    6 1
    11    6   18 ar
    12    6    7 ar
    13    7    8 ar
    14    7   24 1
    15    8   16 ar
    16    8    9 1
    17    9   14 ar
    18    9   10 ar
    19   10   11 ar
    20   10   25 1
    21   11   12 ar
    22   11   26 1
    23   12   13 ar
    24   12   27 1
    25   13   14 ar
    26   13   28 1
    27   14   15 1
    28   15   16 1
    29   15   30 1
    30   16   17 ar
    31   17   18 ar
    32   17   29 1
@<TRIPOS>MOLECULE
ZINC06507046
   31    33     0     0     0
SMALL
USER_CHARGES

@<TRIPOS>ATOM
      1 C1         -0.0187    1.5258    0.0104 C.3       1 <0>        -0.1574
      2 C2          0.0021   -0.0041    0.0020 C.3       1 <0>         0.0635
      3 O1          0.6709   -0.4649   -1.1737 O.3       1 <0>        -0.3539
      4 C3          0.7758   -1.7984   -1.3347 C.2       1 <0>         0.5063
      5 O2          0.3122   -2.5493   -0.5000 O.2       1 <0>        -0.4447
      6 C4          1.4548   -2.3474   -2.5266 C.ar      1 <0>         0.0584
      7 C5          1.5538   -3.7270   -2.6880 C.ar      1 <0>         0.0150
      8 C6          2.1974   -4.2220   -3.8182 C.ar      1 <0>        -0.0128
      9 C7          2.4947   -5.5688   -4.3305 C.ar      1 <0>        -0.1156
     10 C8          2.2352   -6.8550   -3.8620 C.ar      1 <0>        -0.0440
     11 C9          2.6535   -7.9469   -4.5907 C.ar      1 <0>        -0.1219
     12 C10         3.3312   -7.7700   -5.7877 C.ar      1 <0>        -0.0454
     13 C11         3.5947   -6.5040   -6.2632 C.ar      1 <0>        -0.1296
     14 C12         3.1805   -5.3879   -5.5419 C.ar      1 <0>         0.1539
     15 N1          3.3056   -4.0304   -5.7748 N.pl3     1 <0>        -0.5653
     16 C13         2.7234   -3.3124   -4.7542 C.ar      1 <0>         0.1319
     17 C14         2.5790   -1.9460   -4.5119 C.ar      1 <0>         0.1494
     18 N2          1.9602   -1.5175   -3.4368 N.ar      1 <0>        -0.3940
     19 H1          1.0039    1.9031    0.0027 H         1 <0>         0.0711
     20 H2         -0.5459    1.8868   -0.8726 H         1 <0>         0.0710
     21 H3         -0.5289    1.8773    0.9072 H         1 <0>         0.0933
     22 H4          0.5293   -0.3651    0.8851 H         1 <0>         0.0826
     23 H5         -1.0205   -0.3814    0.0098 H         1 <0>         0.0826
     24 H6          1.1398   -4.3991   -1.9509 H         1 <0>         0.1968
     25 H7          1.7080   -6.9958   -2.9300 H         1 <0>         0.1443
     26 H8          2.4532   -8.9444   -4.2283 H         1 <0>         0.1478
     27 H9          3.6554   -8.6320   -6.3518 H         1 <0>         0.1500
     28 H10         4.1232   -6.3775   -7.1965 H         1 <0>         0.1440
     29 H11         2.9763   -1.2332   -5.2193 H         1 <0>         0.2207
     30 H12         3.7422   -3.6394   -6.5476 H         1 <0>         0.4401
     31 H13         1.8718   -0.5616   -3.2980 H         1 <0>         0.4618
@<TRIPOS>BOND
     1    1    2 1
     2    1   19 1
     3    1   20 1
     4    1   21 1
     5    2    3 1
     6    2   22 1
     7    2   23 1
     8    3    4 1
     9    4    5 2
    10    4    6 1
    11    6   18 ar
    12    6    7 ar
    13    7    8 ar
    14    7   24 1
    15    8   16 ar
    16    8    9 1
    17    9   14 ar
    18    9   10 ar
    19   10   11 ar
    20   10   25 1
    21   11   12 ar
    22   11   26 1
    23   12   13 ar
    24   12   27 1
    25   13   14 ar
    26   13   28 1
    27   14   15 1
    28   15   16 1
    29   15   30 1
    30   16   17 ar
    31   17   18 ar
    32   17   29 1
    33   18   31 1
@<TRIPOS>MOLECULE
ZINC00006427
   33    35     0     0     0
SMALL
USER_CHARGES

@<TRIPOS>ATOM
      1 C1          0.5645    1.4220    0.1928 C.3       1 <0>         0.0583
      2 N1          0.3235   -0.0204    0.1049 N.am      1 <0>        -0.5555
      3 C2         -0.9927   -0.4531    0.1626 C.ar      1 <0>         0.1844
      4 C3         -1.9457    0.2992   -0.5272 C.ar      1 <0>        -0.1319
      5 C4         -3.2733   -0.0670   -0.5149 C.ar      1 <0>        -0.0651
      6 C5         -3.6777   -1.1917    0.1872 C.ar      1 <0>        -0.0514
      7 C6         -2.7519   -1.9453    0.8726 C.ar      1 <0>        -0.0516
      8 C7         -1.3954   -1.5853    0.8674 C.ar      1 <0>        -0.1200
      9 C8         -0.4607   -2.4388    1.6175 C.2       1 <0>         0.2679
     10 N2          0.7150   -2.7715    1.2168 N.2       1 <0>        -0.4888
     11 C9          1.2537   -2.3110   -0.0624 C.3       1 <0>         0.0242
     12 C10         1.3847   -0.8126   -0.0296 C.2       1 <0>         0.5094
     13 O1          2.4861   -0.3137   -0.1239 O.2       1 <0>        -0.5107
     14 C11        -0.9076   -2.9538    2.9327 C.ar      1 <0>        -0.0709
     15 C12        -0.3330   -4.1079    3.4647 C.ar      1 <0>        -0.0682
     16 C13        -0.7535   -4.5827    4.6901 C.ar      1 <0>        -0.1263
     17 C14        -1.7429   -3.9163    5.3909 C.ar      1 <0>        -0.0986
     18 C15        -2.3166   -2.7710    4.8684 C.ar      1 <0>        -0.1241
     19 C16        -1.9005   -2.2832    3.6466 C.ar      1 <0>        -0.0904
     20 Cl1        -5.3522   -1.6496    0.2025 Cl        1 <0>        -0.0531
     21 H1          1.6353    1.6160    0.1296 H         1 <0>         0.1025
     22 H2          0.0549    1.9262   -0.6283 H         1 <0>         0.0740
     23 H3          0.1827    1.7970    1.1424 H         1 <0>         0.0729
     24 H4         -1.6385    1.1774   -1.0758 H         1 <0>         0.1452
     25 H5         -4.0004    0.5233   -1.0528 H         1 <0>         0.1468
     26 H6         -3.0719   -2.8206    1.4183 H         1 <0>         0.1484
     27 H7          2.2331   -2.7595   -0.2287 H         1 <0>         0.1343
     28 H8          0.5774   -2.5976   -0.8678 H         1 <0>         0.0942
     29 H9          0.4392   -4.6292    2.9184 H         1 <0>         0.1347
     30 H10        -0.3096   -5.4765    5.1029 H         1 <0>         0.1285
     31 H11        -2.0690   -4.2920    6.3495 H         1 <0>         0.1264
     32 H12        -3.0889   -2.2553    5.4199 H         1 <0>         0.1284
     33 H13        -2.3460   -1.3865    3.2417 H         1 <0>         0.1261
@<TRIPOS>BOND
     1    1    2 1
     2    1   21 1
     3    1   22 1
     4    1   23 1
     5    2   12 am
     6    2    3 1
     7    3    8 ar
     8    3    4 ar
     9    4    5 ar
    10    4   24 1
    11    5    6 ar
    12    5   25 1
    13    6    7 ar
    14    6   20 1
    15    7    8 ar
    16    7   26 1
    17    8    9 1
    18    9   10 2
    19    9   14 1
    20   10   11 1
    21   11   12 1
    22   11   27 1
    23   11   28 1
    24   12   13 2
    25   14   19 ar
    26   14   15 ar
    27   15   16 ar
    28   15   29 1
    29   16   17 ar
    30   16   30 1
    31   17   18 ar
    32   17   31 1
    33   18   19 ar
    34   18   32 1
    35   19   33 1
@<TRIPOS>MOLECULE
ZINC04081043
   57    60     0     0     0
SMALL
USER_CHARGES

@<TRIPOS>ATOM
      1 C1          0.4305    0.7603    1.2524 C.3       1 <0>        -0.2078
      2 C2          0.0078   -0.0015    0.0228 C.2       1 <0>         0.3650
      3 O1          0.7078    0.0040   -0.9612 O.2       1 <0>        -0.4549
      4 C3         -1.2884   -0.7702    0.0211 C.3       1 <0>        -0.1328
      5 H1         -2.0398   -0.2439    0.6097 H         1 <0>         0.0964
      6 C4         -1.7897   -0.9743   -1.4305 C.3       1 <0>        -0.1183
      7 C5         -1.9272   -2.5079   -1.6347 C.3       1 <0>        -0.1149
      8 C6         -2.1072   -3.0295   -0.2052 C.3       1 <0>        -0.0793
      9 H2         -3.1163   -2.8214    0.1505 H         1 <0>         0.0755
     10 C7         -1.0709   -2.1744    0.5756 C.3       1 <0>        -0.0481
     11 C8         -1.3419   -2.3680    2.0548 C.3       1 <0>        -0.1049
     12 C9         -1.0702   -3.8465    2.3805 C.3       1 <0>        -0.1183
     13 C10        -1.9287   -4.7704    1.5236 C.3       1 <0>        -0.0686
     14 H3         -2.9773   -4.6095    1.7739 H         1 <0>         0.0643
     15 C11        -1.7608   -4.4900    0.0161 C.3       1 <0>        -0.0751
     16 H4         -0.7249   -4.6704   -0.2710 H         1 <0>         0.0813
     17 C12        -2.7044   -5.3875   -0.7856 C.3       1 <0>        -0.1105
     18 C13        -2.3711   -6.8547   -0.5068 C.3       1 <0>        -0.1180
     19 C14        -2.5419   -7.1428    0.9861 C.3       1 <0>        -0.0667
     20 H5         -3.5728   -6.9432    1.2785 H         1 <0>         0.0777
     21 C15        -1.5715   -6.2298    1.8074 C.3       1 <0>        -0.0444
     22 C16        -1.7484   -6.5168    3.2999 C.3       1 <0>        -0.1052
     23 C17        -1.3974   -7.9783    3.5846 C.3       1 <0>        -0.1524
     24 C18        -2.3218   -8.8919    2.7772 C.3       1 <0>         0.1043
     25 H6         -2.0717   -9.9332    2.9803 H         1 <0>         0.0509
     26 C19        -2.2082   -8.6094    1.2649 C.3       1 <0>        -0.1077
     27 O2         -3.6792   -8.6463    3.1503 O.3       1 <0>        -0.5640
     28 C20        -0.1178   -6.4871    1.4054 C.3       1 <0>        -0.1503
     29 C21         0.3454   -2.6483    0.2431 C.3       1 <0>        -0.1561
     30 H7          1.3866    1.2494    1.0660 H         1 <0>         0.0806
     31 H8         -0.3219    1.5122    1.4904 H         1 <0>         0.0915
     32 H9          0.5324    0.0704    2.0901 H         1 <0>         0.0917
     33 H10        -2.7575   -0.4909   -1.5635 H         1 <0>         0.0668
     34 H11        -1.0668   -0.5662   -2.1368 H         1 <0>         0.0782
     35 H12        -2.8019   -2.7391   -2.2426 H         1 <0>         0.0666
     36 H13        -1.0238   -2.9196   -2.0846 H         1 <0>         0.0687
     37 H14        -0.6781   -1.7314    2.6398 H         1 <0>         0.0628
     38 H15        -2.3810   -2.1244    2.2763 H         1 <0>         0.0664
     39 H16        -0.0182   -4.0648    2.1968 H         1 <0>         0.0686
     40 H17        -1.2924   -4.0268    3.4323 H         1 <0>         0.0640
     41 H18        -3.7345   -5.1866   -0.4913 H         1 <0>         0.0604
     42 H19        -2.5838   -5.1833   -1.8495 H         1 <0>         0.0619
     43 H20        -3.0423   -7.4948   -1.0793 H         1 <0>         0.0598
     44 H21        -1.3405   -7.0550   -0.7997 H         1 <0>         0.0626
     45 H22        -1.0896   -5.8664    3.8754 H         1 <0>         0.0624
     46 H23        -2.7835   -6.3295    3.5856 H         1 <0>         0.0668
     47 H24        -0.3622   -8.1655    3.2996 H         1 <0>         0.0731
     48 H25        -1.5239   -8.1818    4.6480 H         1 <0>         0.0627
     49 H26        -2.8777   -9.2498    0.6907 H         1 <0>         0.0697
     50 H27        -1.1768   -8.8089    0.9743 H         1 <0>         0.0700
     51 H28        -3.8652   -8.8069    4.0856 H         1 <0>         0.3719
     52 H29         0.5391   -5.8341    1.9800 H         1 <0>         0.0555
     53 H30         0.1365   -7.5275    1.6078 H         1 <0>         0.0560
     54 H31         0.0066   -6.2829    0.3420 H         1 <0>         0.0597
     55 H32         1.0693   -2.0312    0.7753 H         1 <0>         0.0491
     56 H33         0.4613   -3.6885    0.5474 H         1 <0>         0.0718
     57 H34         0.5145   -2.5627   -0.8303 H         1 <0>         0.0632
@<TRIPOS>BOND
     1    1    2 1
     2    1   30 1
     3    1   31 1
     4    1   32 1
     5    2    3 2
     6    2    4 1
     7    4    5 1
     8    4   10 1
     9    4    6 1
    10    6    7 1
    11    6   33 1
    12    6   34 1
    13    7    8 1
    14    7   35 1
    15    7   36 1
    16    8    9 1
    17    8   15 1
    18    8   10 1
    19   10   11 1
    20   10   29 1
    21   11   12 1
    22   11   37 1
    23   11   38 1
    24   12   13 1
    25   12   39 1
    26   12   40 1
    27   13   14 1
    28   13   21 1
    29   13   15 1
    30   15   16 1
    31   15   17 1
    32   17   18 1
    33   17   41 1
    34   17   42 1
    35   18   19 1
    36   18   43 1
    37   18   44 1
    38   19   20 1
    39   19   26 1
    40   19   21 1
    41   21   22 1
    42   21   28 1
    43   22   23 1
    44   22   45 1
    45   22   46 1
    46   23   24 1
    47   23   47 1
    48   23   48 1
    49   24   25 1
    50   24   26 1
    51   24   27 1
    52   26   49 1
    53   26   50 1
    54   27   51 1
    55   28   52 1
    56   28   53 1
    57   28   54 1
    58   29   55 1
    59   29   56 1
    60   29   57 1
@<TRIPOS>MOLECULE
ZINC03800039
   57    60     0     0     0
SMALL
USER_CHARGES
1-(3-hydroxy-10,13-dimethyl-2,3,4,5,6,7,8,9,11,12,14,15,16,17-tetradecahydro-1H-cyclopenta[a]phenanthren-17-yl)ethanone
@<TRIPOS>ATOM
      1 C1          1.8452    1.0926   -6.8681 C.3       1 <0>        -0.1979
      2 C2          2.9588    1.0521   -5.8536 C.2       1 <0>         0.3625
      3 O1          3.7958    1.9225   -5.8405 O.2       1 <0>        -0.4547
      4 C3          3.0280   -0.0747   -4.8553 C.3       1 <0>        -0.1247
      5 H1          2.7125   -0.9207   -5.2852 H         1 <0>         0.0884
      6 C4          4.4752   -0.2352   -4.3263 C.3       1 <0>        -0.1195
      7 C5          4.3974   -0.0780   -2.7831 C.3       1 <0>        -0.1138
      8 C6          2.9457   -0.4509   -2.4729 C.3       1 <0>        -0.0783
      9 H2          2.8010   -1.5300   -2.5261 H         1 <0>         0.0765
     10 C7          2.1846    0.2541   -3.6279 C.3       1 <0>        -0.0491
     11 C8          0.7618   -0.2690   -3.6229 C.3       1 <0>        -0.1052
     12 C9          0.1167    0.1737   -2.2987 C.3       1 <0>        -0.1197
     13 C10         0.9088   -0.3327   -1.0984 C.3       1 <0>        -0.0720
     14 H3          0.8553   -1.4213   -1.0879 H         1 <0>         0.0741
     15 C11         2.3843    0.0936   -1.1729 C.3       1 <0>        -0.0757
     16 H4          2.4555    1.1810   -1.1511 H         1 <0>         0.0836
     17 C12         3.1366   -0.4973    0.0205 C.3       1 <0>        -0.1162
     18 C13         2.5231    0.0276    1.3202 C.3       1 <0>        -0.1155
     19 C14         1.0506   -0.3812    1.3933 C.3       1 <0>        -0.0715
     20 H5          0.6139   -0.0035    2.3178 H         1 <0>         0.0698
     21 C15         0.2979    0.2050    0.1965 C.3       1 <0>        -0.0481
     22 C16        -1.1757   -0.1996    0.2743 C.3       1 <0>        -0.1089
     23 C17        -1.2838   -1.7279    0.2433 C.3       1 <0>        -0.1530
     24 C18        -0.5301   -2.3162    1.4377 C.3       1 <0>         0.1048
     25 H6         -0.9657   -1.9396    2.3632 H         1 <0>         0.0511
     26 C19         0.9423   -1.9073    1.3638 C.3       1 <0>        -0.1102
     27 O2         -0.6306   -3.7413    1.4093 O.3       1 <0>        -0.5695
     28 C20         0.4107    1.7306    0.2195 C.3       1 <0>        -0.1493
     29 C21         2.1804    1.7660   -3.3934 C.3       1 <0>        -0.1562
     30 H7          1.2467    0.3022   -6.7378 H         1 <0>         0.0723
     31 H8          1.2697    2.0093   -6.7395 H         1 <0>         0.0906
     32 H9          2.2677    1.0668   -7.8726 H         1 <0>         0.0914
     33 H10         4.8600   -1.2222   -4.5829 H         1 <0>         0.0671
     34 H11         5.1161    0.5383   -4.7494 H         1 <0>         0.0792
     35 H12         5.0863   -0.7640   -2.2903 H         1 <0>         0.0669
     36 H13         4.6042    0.9511   -2.4894 H         1 <0>         0.0695
     37 H14         0.7664   -1.3571   -3.6876 H         1 <0>         0.0659
     38 H15         0.2092    0.1510   -4.4633 H         1 <0>         0.0636
     39 H16        -0.8986   -0.2194   -2.2476 H         1 <0>         0.0637
     40 H17         0.0794    1.2626   -2.2677 H         1 <0>         0.0689
     41 H18         4.1855   -0.2050   -0.0302 H         1 <0>         0.0622
     42 H19         3.0607   -1.5843   -0.0041 H         1 <0>         0.0640
     43 H20         2.5997    1.1147    1.3448 H         1 <0>         0.0669
     44 H21         3.0594   -0.3932    2.1707 H         1 <0>         0.0617
     45 H22        -1.6083    0.1795    1.2002 H         1 <0>         0.0621
     46 H23        -1.7131    0.2195   -0.5764 H         1 <0>         0.0690
     47 H24        -0.8490   -2.1053   -0.6823 H         1 <0>         0.0743
     48 H25        -2.3329   -2.0185    0.2968 H         1 <0>         0.0611
     49 H26         1.3781   -2.2845    0.4387 H         1 <0>         0.0770
     50 H27         1.4787   -2.3260    2.2153 H         1 <0>         0.0662
     51 H28        -1.5380   -4.0726    1.4529 H         1 <0>         0.3770
     52 H29         1.4606    2.0182    0.1644 H         1 <0>         0.0629
     53 H30        -0.1255    2.1475   -0.6330 H         1 <0>         0.0569
     54 H31        -0.0227    2.1131    1.1436 H         1 <0>         0.0530
     55 H32         1.6739    1.9865   -2.4538 H         1 <0>         0.0724
     56 H33         3.2070    2.1293   -3.3468 H         1 <0>         0.0637
     57 H34         1.6572    2.2592   -4.2126 H         1 <0>         0.0490
@<TRIPOS>BOND
     1    1    2 1
     2    1   30 1
     3    1   31 1
     4    1   32 1
     5    2    3 2
     6    2    4 1
     7    4    5 1
     8    4   10 1
     9    4    6 1
    10    6    7 1
    11    6   33 1
    12    6   34 1
    13    7    8 1
    14    7   35 1
    15    7   36 1
    16    8    9 1
    17    8   15 1
    18    8   10 1
    19   10   11 1
    20   10   29 1
    21   11   12 1
    22   11   37 1
    23   11   38 1
    24   12   13 1
    25   12   39 1
    26   12   40 1
    27   13   14 1
    28   13   21 1
    29   13   15 1
    30   15   16 1
    31   15   17 1
    32   17   18 1
    33   17   41 1
    34   17   42 1
    35   18   19 1
    36   18   43 1
    37   18   44 1
    38   19   20 1
    39   19   26 1
    40   19   21 1
    41   21   22 1
    42   21   28 1
    43   22   23 1
    44   22   45 1
    45   22   46 1
    46   23   24 1
    47   23   47 1
    48   23   48 1
    49   24   25 1
    50   24   26 1
    51   24   27 1
    52   26   49 1
    53   26   50 1
    54   27   51 1
    55   28   52 1
    56   28   53 1
    57   28   54 1
    58   29   55 1
    59   29   56 1
    60   29   57 1
@<TRIPOS>MOLECULE
ZINC00025301
   27    29     0     0     0
SMALL
USER_CHARGES

@<TRIPOS>ATOM
      1 C1         -0.0173    1.4248    0.0099 C.3       1 <0>         0.0312
      2 O1          0.0021   -0.0041    0.0020 O.3       1 <0>        -0.3302
      3 C2          0.6204   -0.6130    1.0325 C.2       1 <0>         0.5293
      4 O2          1.1292    0.0507    1.9135 O.2       1 <0>        -0.5011
      5 C3          0.6797   -2.0882    1.0910 C.ar      1 <0>         0.0397
      6 C4          1.3159   -2.7095    2.1626 C.ar      1 <0>        -0.0329
      7 C5          1.3598   -4.1000    2.1971 C.ar      1 <0>        -0.0832
      8 C6          1.9195   -5.0927    3.1278 C.ar      1 <0>        -0.1038
      9 C7          2.6185   -4.9977    4.3293 C.ar      1 <0>        -0.0556
     10 C8          3.0181   -6.1435    4.9819 C.ar      1 <0>        -0.1427
     11 C9          2.7270   -7.3895    4.4472 C.ar      1 <0>        -0.0753
     12 C10         2.0365   -7.4987    3.2600 C.ar      1 <0>        -0.1378
     13 C11         1.6241   -6.3532    2.5853 C.ar      1 <0>         0.1402
     14 N1          0.9310   -6.1684    1.4028 N.pl3     1 <0>        -0.5952
     15 H1          0.6094   -6.8838    0.8322 H         1 <0>         0.4248
     16 C12         0.7612   -4.8255    1.1505 C.ar      1 <0>         0.1174
     17 C13         0.1456   -4.1204    0.1158 C.ar      1 <0>         0.0983
     18 N2          0.1196   -2.8083    0.1213 N.ar      1 <0>        -0.4043
     19 H2          1.0053    1.8021    0.0021 H         1 <0>         0.0622
     20 H3         -0.5445    1.7859   -0.8732 H         1 <0>         0.1054
     21 H4         -0.5275    1.7763    0.9067 H         1 <0>         0.0622
     22 H5          1.7663   -2.1243    2.9506 H         1 <0>         0.1540
     23 H6          2.8469   -4.0286    4.7478 H         1 <0>         0.1310
     24 H7          3.5603   -6.0709    5.9131 H         1 <0>         0.1325
     25 H8          3.0446   -8.2820    4.9658 H         1 <0>         0.1343
     26 H9          1.8151   -8.4740    2.8524 H         1 <0>         0.1294
     27 H10        -0.3191   -4.6604   -0.6960 H         1 <0>         0.1702
@<TRIPOS>BOND
     1    1    2 1
     2    1   19 1
     3    1   20 1
     4    1   21 1
     5    2    3 1
     6    3    4 2
     7    3    5 1
     8    5   18 ar
     9    5    6 ar
    10    6    7 ar
    11    6   22 1
    12    7   16 ar
    13    7    8 1
    14    8   13 ar
    15    8    9 ar
    16    9   10 ar
    17    9   23 1
    18   10   11 ar
    19   10   24 1
    20   11   12 ar
    21   11   25 1
    22   12   13 ar
    23   12   26 1
    24   13   14 1
    25   14   15 1
    26   14   16 1
    27   16   17 ar
    28   17   18 ar
    29   17   27 1
@<TRIPOS>MOLECULE
ZINC00025301
   28    30     0     0     0
SMALL
USER_CHARGES

@<TRIPOS>ATOM
      1 C1         -0.0173    1.4248    0.0099 C.3       1 <0>         0.0337
      2 O1          0.0021   -0.0041    0.0020 O.3       1 <0>        -0.3534
      3 C2          0.6204   -0.6130    1.0325 C.2       1 <0>         0.5041
      4 O2          1.1292    0.0507    1.9135 O.2       1 <0>        -0.4436
      5 C3          0.6797   -2.0882    1.0910 C.ar      1 <0>         0.0580
      6 C4          1.3159   -2.7095    2.1626 C.ar      1 <0>         0.0154
      7 C5          1.3598   -4.1000    2.1971 C.ar      1 <0>        -0.0130
      8 C6          1.9195   -5.0927    3.1278 C.ar      1 <0>        -0.1156
      9 C7          2.6185   -4.9977    4.3293 C.ar      1 <0>        -0.0440
     10 C8          3.0181   -6.1435    4.9819 C.ar      1 <0>        -0.1218
     11 C9          2.7270   -7.3895    4.4472 C.ar      1 <0>        -0.0454
     12 C10         2.0365   -7.4987    3.2600 C.ar      1 <0>        -0.1295
     13 C11         1.6241   -6.3532    2.5853 C.ar      1 <0>         0.1537
     14 N1          0.9310   -6.1684    1.4028 N.pl3     1 <0>        -0.5651
     15 H1          0.6094   -6.8838    0.8322 H         1 <0>         0.4401
     16 C12         0.7612   -4.8255    1.1505 C.ar      1 <0>         0.1320
     17 C13         0.1456   -4.1204    0.1158 C.ar      1 <0>         0.1499
     18 N2          0.1196   -2.8083    0.1213 N.ar      1 <0>        -0.3940
     19 H2          1.0053    1.8021    0.0021 H         1 <0>         0.0760
     20 H3         -0.5445    1.7859   -0.8732 H         1 <0>         0.1206
     21 H4         -0.5275    1.7763    0.9067 H         1 <0>         0.0760
     22 H5          1.7663   -2.1243    2.9506 H         1 <0>         0.1968
     23 H6          2.8469   -4.0286    4.7478 H         1 <0>         0.1444
     24 H7          3.5603   -6.0709    5.9131 H         1 <0>         0.1479
     25 H8          3.0446   -8.2820    4.9658 H         1 <0>         0.1500
     26 H9          1.8151   -8.4740    2.8524 H         1 <0>         0.1441
     27 H10        -0.3191   -4.6604   -0.6960 H         1 <0>         0.2209
     28 H11        -0.3196   -2.3463   -0.6098 H         1 <0>         0.4620
@<TRIPOS>BOND
     1    1    2 1
     2    1   19 1
     3    1   20 1
     4    1   21 1
     5    2    3 1
     6    3    4 2
     7    3    5 1
     8    5   18 ar
     9    5    6 ar
    10    6    7 ar
    11    6   22 1
    12    7   16 ar
    13    7    8 1
    14    8   13 ar
    15    8    9 ar
    16    9   10 ar
    17    9   23 1
    18   10   11 ar
    19   10   24 1
    20   11   12 ar
    21   11   25 1
    22   12   13 ar
    23   12   26 1
    24   13   14 1
    25   14   15 1
    26   14   16 1
    27   16   17 ar
    28   17   18 ar
    29   17   27 1
    30   18   28 1
@<TRIPOS>MOLECULE
ZINC00004220
   42    46     0     0     0
SMALL
USER_CHARGES
(5-cyclopropyl-1,2,4-oxadiazol-3-yl)-isopropyl-BLAHone
@<TRIPOS>ATOM
      1 C1          1.4563    1.5106    0.0573 C.3       1 <0>        -0.1720
      2 C2         -0.0127    1.0858    0.0080 C.3       1 <0>         0.1310
      3 C3         -0.6781    1.6934   -1.2285 C.3       1 <0>        -0.1722
      4 N1         -0.6984    1.5583    1.2133 N.am      1 <0>        -0.5384
      5 C4         -1.3014    0.6393    2.0718 C.ar      1 <0>         0.1697
      6 C5         -1.2368   -0.7186    1.7819 C.ar      1 <0>        -0.1435
      7 C6         -1.8261   -1.6353    2.6290 C.ar      1 <0>        -0.0739
      8 C7         -2.4786   -1.2089    3.7727 C.ar      1 <0>        -0.1216
      9 C8         -2.5440    0.1371    4.0734 C.ar      1 <0>        -0.0857
     10 C9         -1.9546    1.0674    3.2278 C.ar      1 <0>         0.0712
     11 N2         -2.0217    2.4283    3.5333 N.pl3     1 <0>        -0.3776
     12 C10        -2.5723    3.1207    4.5466 C.2       1 <0>         0.2311
     13 N3         -2.3577    4.3989    4.3733 N.2       1 <0>        -0.4412
     14 C11        -1.6598    4.5913    3.2422 C.2       1 <0>         0.1722
     15 C12        -1.4325    3.3440    2.6862 C.2       1 <0>        -0.0588
     16 C13        -0.7466    2.8793    1.4818 C.2       1 <0>         0.5822
     17 O1         -0.2235    3.6783    0.7268 O.2       1 <0>        -0.4616
     18 C14        -1.2167    5.8944    2.6921 C.2       1 <0>         0.2316
     19 N4         -1.4436    7.1134    3.2328 N.2       1 <0>        -0.4486
     20 C15        -0.8755    7.9696    2.4209 C.2       1 <0>         0.2042
     21 O2         -0.3347    7.2656    1.4214 O.3       1 <0>         0.0896
     22 N5         -0.5375    6.0817    1.5896 N.2       1 <0>        -0.3230
     23 C16        -0.8428    9.4678    2.5803 C.3       1 <0>        -0.0809
     24 C17        -0.3047   10.2913    1.4084 C.3       1 <0>        -0.1576
     25 C18         0.5290   10.1376    2.6820 C.3       1 <0>        -0.1524
     26 H1          1.5186    2.5977    0.1083 H         1 <0>         0.0825
     27 H2          1.9303    1.0778    0.9383 H         1 <0>         0.0572
     28 H3          1.9665    1.1591   -0.8395 H         1 <0>         0.0763
     29 H4         -0.0750   -0.0012   -0.0430 H         1 <0>         0.1031
     30 H5         -0.1679    1.3419   -2.1253 H         1 <0>         0.0763
     31 H6         -1.7246    1.3907   -1.2637 H         1 <0>         0.0571
     32 H7         -0.6157    2.7804   -1.1775 H         1 <0>         0.0826
     33 H8         -0.7292   -1.0563    0.8905 H         1 <0>         0.1460
     34 H9         -1.7781   -2.6893    2.3983 H         1 <0>         0.1410
     35 H10        -2.9380   -1.9309    4.4315 H         1 <0>         0.1418
     36 H11        -3.0537    0.4664    4.9669 H         1 <0>         0.1420
     37 H12        -3.1096    2.6870    5.3771 H         1 <0>         0.2279
     38 H13        -1.6567    9.8962    3.1652 H         1 <0>         0.1512
     39 H14         0.0256    9.7494    0.5222 H         1 <0>         0.1083
     40 H15        -0.7648   11.2617    1.2221 H         1 <0>         0.1147
     41 H16         0.6175   11.0070    3.3336 H         1 <0>         0.1152
     42 H17         1.4079    9.4947    2.6337 H         1 <0>         0.1031
@<TRIPOS>BOND
     1    1    2 1
     2    1   26 1
     3    1   27 1
     4    1   28 1
     5    2    3 1
     6    2    4 1
     7    2   29 1
     8    3   30 1
     9    3   31 1
    10    3   32 1
    11    4   16 am
    12    4    5 1
    13    5   10 ar
    14    5    6 ar
    15    6    7 ar
    16    6   33 1
    17    7    8 ar
    18    7   34 1
    19    8    9 ar
    20    8   35 1
    21    9   10 ar
    22    9   36 1
    23   10   11 1
    24   11   15 1
    25   11   12 1
    26   12   13 2
    27   12   37 1
    28   13   14 1
    29   14   15 2
    30   14   18 1
    31   15   16 1
    32   16   17 2
    33   18   22 2
    34   18   19 1
    35   19   20 2
    36   20   21 1
    37   20   23 1
    38   21   22 1
    39   23   25 1
    40   23   24 1
    41   23   38 1
    42   24   25 1
    43   24   39 1
    44   24   40 1
    45   25   41 1
    46   25   42 1
@<TRIPOS>MOLECULE
ZINC00004220
   43    47     0     0     0
SMALL
USER_CHARGES
(5-cyclopropyl-1,2,4-oxadiazol-3-yl)-isopropyl-BLAHone
@<TRIPOS>ATOM
      1 C1          1.4563    1.5106    0.0573 C.3       1 <0>        -0.1753
      2 C2         -0.0127    1.0858    0.0080 C.3       1 <0>         0.1269
      3 C3         -0.6781    1.6934   -1.2285 C.3       1 <0>        -0.1756
      4 N1         -0.6984    1.5583    1.2133 N.am      1 <0>        -0.5255
      5 C4         -1.3014    0.6393    2.0718 C.ar      1 <0>         0.1946
      6 C5         -1.2368   -0.7186    1.7819 C.ar      1 <0>        -0.1392
      7 C6         -1.8261   -1.6353    2.6290 C.ar      1 <0>        -0.0390
      8 C7         -2.4786   -1.2089    3.7727 C.ar      1 <0>        -0.1130
      9 C8         -2.5440    0.1371    4.0734 C.ar      1 <0>        -0.0680
     10 C9         -1.9546    1.0674    3.2278 C.ar      1 <0>         0.0265
     11 N2         -2.0217    2.4283    3.5333 N.pl3     1 <0>        -0.3189
     12 C10        -2.5723    3.1207    4.5466 C.cat     1 <0>         0.3146
     13 C11        -1.6598    4.5913    3.2422 C.2       1 <0>         0.2133
     14 C12        -1.4325    3.3440    2.6862 C.2       1 <0>         0.0125
     15 C13        -0.7466    2.8793    1.4818 C.2       1 <0>         0.5755
     16 O1         -0.2235    3.6783    0.7268 O.2       1 <0>        -0.4287
     17 C14        -1.2167    5.8944    2.6921 C.2       1 <0>         0.1786
     18 N3         -1.4436    7.1134    3.2328 N.2       1 <0>        -0.4744
     19 C15        -0.8755    7.9696    2.4209 C.2       1 <0>         0.2517
     20 O2         -0.3347    7.2656    1.4214 O.3       1 <0>         0.1156
     21 N4         -0.5375    6.0817    1.5896 N.2       1 <0>        -0.2883
     22 C16        -0.8428    9.4678    2.5803 C.3       1 <0>        -0.0999
     23 C17        -0.3047   10.2913    1.4084 C.3       1 <0>        -0.1512
     24 C18         0.5290   10.1376    2.6820 C.3       1 <0>        -0.1456
     25 H1          1.5186    2.5977    0.1083 H         1 <0>         0.0818
     26 H2          1.9303    1.0778    0.9383 H         1 <0>         0.0617
     27 H3          1.9665    1.1591   -0.8395 H         1 <0>         0.0870
     28 H4         -0.0750   -0.0012   -0.0430 H         1 <0>         0.1136
     29 H5         -0.1679    1.3419   -2.1253 H         1 <0>         0.0870
     30 H6         -1.7246    1.3907   -1.2637 H         1 <0>         0.0616
     31 H7         -0.6157    2.7804   -1.1775 H         1 <0>         0.0818
     32 H8         -0.7292   -1.0563    0.8905 H         1 <0>         0.1596
     33 H9         -1.7781   -2.6893    2.3983 H         1 <0>         0.1558
     34 H10        -2.9380   -1.9309    4.4315 H         1 <0>         0.1559
     35 H11        -3.0537    0.4664    4.9669 H         1 <0>         0.1506
     36 H12        -3.1096    2.6870    5.3771 H         1 <0>         0.2790
     37 H13        -1.6567    9.8962    3.1652 H         1 <0>         0.1586
     38 H14         0.0256    9.7494    0.5222 H         1 <0>         0.1120
     39 H15        -0.7648   11.2617    1.2221 H         1 <0>         0.1221
     40 H16         0.6175   11.0070    3.3336 H         1 <0>         0.1221
     41 H17         1.4079    9.4947    2.6337 H         1 <0>         0.1063
     42 N5         -2.3581    4.3999    4.3742 N.pl3     1 <0>        -0.4607
     43 H18        -2.6752    5.1437    5.0070 H         1 <0>         0.4968
@<TRIPOS>BOND
     1    1    2 1
     2    1   25 1
     3    1   26 1
     4    1   27 1
     5    2    3 1
     6    2    4 1
     7    2   28 1
     8    3   29 1
     9    3   30 1
    10    3   31 1
    11    4   15 am
    12    4    5 1
    13    5   10 ar
    14    5    6 ar
    15    6    7 ar
    16    6   32 1
    17    7    8 ar
    18    7   33 1
    19    8    9 ar
    20    8   34 1
    21    9   10 ar
    22    9   35 1
    23   10   11 1
    24   11   14 1
    25   11   12 1
    26   12   36 1
    27   12   42 2
    28   13   14 2
    29   13   17 1
    30   13   42 1
    31   14   15 1
    32   15   16 2
    33   17   21 2
    34   17   18 1
    35   18   19 2
    36   19   20 1
    37   19   22 1
    38   20   21 1
    39   22   24 1
    40   22   23 1
    41   22   37 1
    42   23   24 1
    43   23   38 1
    44   23   39 1
    45   24   40 1
    46   24   41 1
    47   42   43 1
@<TRIPOS>MOLECULE
ZINC06093177
   26    26     0     0     0
SMALL
USER_CHARGES
4-amino-3-(4-fluorophenyl)-butanoic acid
@<TRIPOS>ATOM
      1 C1         -2.2352   -0.4157    1.3904 C.ar      1 <0>        -0.0859
      2 C2         -3.4923   -0.9851    1.4633 C.ar      1 <0>        -0.1475
      3 C3         -4.6175   -0.1784    1.4740 C.ar      1 <0>         0.1059
      4 C4         -4.4816    1.1983    1.4179 C.ar      1 <0>        -0.1489
      5 C5         -3.2232    1.7657    1.3512 C.ar      1 <0>        -0.0881
      6 C6         -2.1005    0.9593    1.3401 C.ar      1 <0>        -0.1278
      7 C7         -0.7288    1.5792    1.2668 C.3       1 <0>        -0.0476
      8 H1         -0.8222    2.6646    1.2299 H         1 <0>         0.1048
      9 C8          0.0786    1.1786    2.5031 C.3       1 <0>        -0.1521
     10 C9          1.4040    1.8956    2.4915 C.2       1 <0>         0.4571
     11 O1          1.6750    2.6498    1.5872 O.co2     1 <0>        -0.6486
     12 C10        -0.0127    1.0858    0.0080 C.3       1 <0>        -0.0039
     13 F1         -5.8472   -0.7343    1.5388 F         1 <0>        -0.1345
     14 H2         -1.3575   -1.0449    1.3769 H         1 <0>         0.1377
     15 H3         -3.5971   -2.0591    1.5074 H         1 <0>         0.1406
     16 H4         -5.3586    1.8285    1.4258 H         1 <0>         0.1404
     17 H5         -3.1170    2.8396    1.3074 H         1 <0>         0.1379
     18 H6         -0.4741    1.4512    3.4021 H         1 <0>         0.0864
     19 H7          0.2479    0.1019    2.4932 H         1 <0>         0.0773
     20 H8          0.0021   -0.0041    0.0020 H         1 <0>         0.1207
     21 H9          1.0099    1.4631    0.0003 H         1 <0>         0.1655
     22 H10        -0.8068    2.5779   -1.1674 H         1 <0>         0.4361
     23 H11        -0.2694    1.2597   -2.0273 H         1 <0>         0.4337
     24 O2          2.2835    1.6966    3.4858 O.co2     1 <0>        -0.7440
     25 N1         -0.7456    1.5611   -1.1787 N.4       1 <0>        -0.6421
     26 H12        -1.6942    1.1683   -1.1693 H         1 <0>         0.4267
@<TRIPOS>BOND
     1    1    6 ar
     2    1    2 ar
     3    1   14 1
     4    2    3 ar
     5    2   15 1
     6    3    4 ar
     7    3   13 1
     8    4    5 ar
     9    4   16 1
    10    5    6 ar
    11    5   17 1
    12    6    7 1
    13    7    8 1
    14    7    9 1
    15    7   12 1
    16    9   10 1
    17    9   18 1
    18    9   19 1
    19   10   11 2
    20   10   24 1
    21   12   20 1
    22   12   21 1
    23   12   25 1
    24   22   25 1
    25   23   25 1
    26   25   26 1
@<TRIPOS>MOLECULE
ZINC04165187
   23    23     0     0     0
SMALL
USER_CHARGES

@<TRIPOS>ATOM
      1 C1         -0.0163    1.3509    0.0095 C.2       1 <0>        -0.1398
      2 C2          1.1836    2.0381    0.0017 C.2       1 <0>        -0.1424
      3 C3          2.3434    1.3347   -0.0131 C.2       1 <0>        -0.1143
      4 S1          1.7533   -0.3502   -0.0166 S.3       1 <0>         0.1015
      5 C4          0.0021   -0.0041    0.0020 C.2       1 <0>        -0.1773
      6 C5         -1.1557   -0.9687    0.0079 C.3       1 <0>         0.0018
      7 H1         -2.0926   -0.4117    0.0198 H         1 <0>         0.1190
      8 C6         -1.0979   -1.8425   -1.2467 C.3       1 <0>        -0.1817
      9 C7         -2.3204   -2.7219   -1.3032 C.2       1 <0>         0.4914
     10 O1         -3.1602   -2.6557   -0.4218 O.co2     1 <0>        -0.7027
     11 O2         -2.4698   -3.4994   -2.2304 O.co2     1 <0>        -0.6721
     12 C8         -1.0740   -1.8560    1.2517 C.3       1 <0>        -0.0089
     13 N1         -1.2496   -1.0308    2.4542 N.4       1 <0>        -0.6333
     14 Cl1         3.9774    1.9208   -0.0256 Cl        1 <0>         0.0258
     15 H2         -0.9542    1.8861    0.0257 H         1 <0>         0.1462
     16 H3          1.1971    3.1180    0.0070 H         1 <0>         0.1463
     17 H4         -1.0665   -1.2065   -2.1313 H         1 <0>         0.0834
     18 H5         -0.2037   -2.4651   -1.2149 H         1 <0>         0.0726
     19 H6         -1.8590   -2.6112    1.2114 H         1 <0>         0.1731
     20 H7         -0.1006   -2.3452    1.2857 H         1 <0>         0.1205
     21 H8         -0.5230   -0.3317    2.4915 H         1 <0>         0.4221
     22 H9         -2.1507   -0.5779    2.4228 H         1 <0>         0.4358
     23 H10        -1.1957   -1.6159    3.2745 H         1 <0>         0.4330
@<TRIPOS>BOND
     1    1    5 2
     2    1    2 1
     3    1   15 1
     4    2    3 2
     5    2   16 1
     6    3    4 1
     7    3   14 1
     8    4    5 1
     9    5    6 1
    10    6    7 1
    11    6    8 1
    12    6   12 1
    13    8    9 1
    14    8   17 1
    15    8   18 1
    16    9   10 2
    17    9   11 1
    18   12   13 1
    19   12   19 1
    20   12   20 1
    21   13   21 1
    22   13   22 1
    23   13   23 1
@<TRIPOS>MOLECULE
ZINC00000061
   26    26     0     0     0
SMALL
USER_CHARGES

@<TRIPOS>ATOM
      1 C1         -0.0167    1.3782    0.0096 C.ar      1 <0>        -0.1063
      2 C2          1.1706    2.0858    0.0021 C.ar      1 <0>        -0.1054
      3 C3          2.3780    1.4104   -0.0130 C.ar      1 <0>        -0.0330
      4 C4          2.3961    0.0270   -0.0206 C.ar      1 <0>        -0.1045
      5 C5          1.2082   -0.6795   -0.0130 C.ar      1 <0>        -0.1032
      6 C6          0.0021   -0.0041    0.0020 C.ar      1 <0>        -0.1110
      7 C7         -1.2928   -0.7750    0.0107 C.3       1 <0>        -0.0437
      8 H1         -2.1306   -0.0778    0.0227 H         1 <0>         0.1039
      9 C8         -1.3745   -1.6489   -1.2425 C.3       1 <0>        -0.1780
     10 C9         -2.7200   -2.3254   -1.2963 C.2       1 <0>         0.4888
     11 O1         -3.5378   -2.1270   -0.4141 O.co2     1 <0>        -0.7038
     12 O2         -2.9907   -3.0712   -2.2221 O.co2     1 <0>        -0.6758
     13 C10        -1.3498   -1.6623    1.2558 C.3       1 <0>        -0.0077
     14 N1         -1.3920   -0.8180    2.4572 N.4       1 <0>        -0.6337
     15 Cl1         3.8696    2.2984   -0.0231 Cl        1 <0>        -0.0609
     16 H2         -0.9592    1.9053    0.0259 H         1 <0>         0.1367
     17 H3          1.1558    3.1656    0.0076 H         1 <0>         0.1377
     18 H4          3.3383   -0.5007   -0.0327 H         1 <0>         0.1377
     19 H5          1.2222   -1.7594   -0.0193 H         1 <0>         0.1361
     20 H6         -1.2448   -1.0269   -2.1282 H         1 <0>         0.0796
     21 H7         -0.5891   -2.4040   -1.2107 H         1 <0>         0.0708
     22 H8         -2.2436   -2.2849    1.2177 H         1 <0>         0.1675
     23 H9         -0.4651   -2.2982    1.2896 H         1 <0>         0.1201
     24 H10        -0.5646   -0.2416    2.4925 H         1 <0>         0.4220
     25 H11        -2.2109   -0.2293    2.4260 H         1 <0>         0.4347
     26 H12        -1.4296   -1.4032    3.2784 H         1 <0>         0.4314
@<TRIPOS>BOND
     1    1    6 ar
     2    1    2 ar
     3    1   16 1
     4    2    3 ar
     5    2   17 1
     6    3    4 ar
     7    3   15 1
     8    4    5 ar
     9    4   18 1
    10    5    6 ar
    11    5   19 1
    12    6    7 1
    13    7    8 1
    14    7    9 1
    15    7   13 1
    16    9   10 1
    17    9   20 1
    18    9   21 1
    19   10   11 2
    20   10   12 1
    21   13   14 1
    22   13   22 1
    23   13   23 1
    24   14   24 1
    25   14   25 1
    26   14   26 1
@<TRIPOS>MOLECULE
ZINC13119575
   38    39     0     0     0
SMALL
USER_CHARGES

@<TRIPOS>ATOM
      1 C1         -0.0173    1.4248    0.0099 C.3       1 <0>         0.0211
      2 O1          0.0021   -0.0041    0.0020 O.3       1 <0>        -0.3091
      3 C2         -1.1999   -0.6373    0.0101 C.ar      1 <0>         0.1673
      4 C3         -2.3736    0.1044    0.0195 C.ar      1 <0>        -0.2122
      5 C4         -3.5951   -0.5353    0.0277 C.ar      1 <0>        -0.0219
      6 C5         -3.6508   -1.9284    0.0261 C.ar      1 <0>        -0.1158
      7 C6         -2.4705   -2.6703    0.0162 C.ar      1 <0>        -0.0414
      8 C7         -1.2521   -2.0247    0.0031 C.ar      1 <0>        -0.1531
      9 C8         -4.9627   -2.6195    0.0354 C.ar      1 <0>         0.1698
     10 C9         -5.0194   -4.0177    0.0397 C.ar      1 <0>        -0.0236
     11 C10        -6.2661   -4.6162    0.0488 C.ar      1 <0>        -0.1326
     12 C11        -7.3905   -3.7887    0.0533 C.ar      1 <0>         0.4141
     13 N1         -7.2418   -2.4721    0.0487 N.ar      1 <0>        -0.2237
     14 N2         -6.0857   -1.9144    0.0453 N.ar      1 <0>        -0.2096
     15 C12        -8.4367   -1.6246    0.0530 C.3       1 <0>         0.0689
     16 C13        -8.8446   -1.3255    1.4970 C.3       1 <0>        -0.1114
     17 C14       -10.0926   -0.4403    1.5015 C.3       1 <0>        -0.1835
     18 C15       -10.4943   -0.1457    2.9237 C.2       1 <0>         0.4896
     19 O2         -9.8429   -0.6014    3.8481 O.co2     1 <0>        -0.6954
     20 O3        -11.4708    0.5484    3.1501 O.co2     1 <0>        -0.6877
     21 N3         -8.6644   -4.3453    0.0620 N.pl3     1 <0>        -0.8043
     22 H1          1.0053    1.8021    0.0021 H         1 <0>         0.1077
     23 H2         -0.5445    1.7859   -0.8732 H         1 <0>         0.0617
     24 H3         -0.5275    1.7763    0.9067 H         1 <0>         0.0628
     25 H4         -2.3298    1.1835    0.0207 H         1 <0>         0.1415
     26 H5         -4.5077    0.0421    0.0357 H         1 <0>         0.1416
     27 H6         -2.5104   -3.7496    0.0153 H         1 <0>         0.1398
     28 H7         -0.3375   -2.5989   -0.0083 H         1 <0>         0.1452
     29 H8         -4.1171   -4.6113    0.0355 H         1 <0>         0.1877
     30 H9         -6.3669   -5.6915    0.0521 H         1 <0>         0.1940
     31 H10        -8.2211   -0.6899   -0.4647 H         1 <0>         0.1354
     32 H11        -9.2508   -2.1418   -0.4548 H         1 <0>         0.1155
     33 H12        -9.0602   -2.2601    2.0147 H         1 <0>         0.0745
     34 H13        -8.0305   -0.8083    2.0048 H         1 <0>         0.0866
     35 H14        -9.8770    0.4943    0.9838 H         1 <0>         0.0703
     36 H15       -10.9067   -0.9576    0.9937 H         1 <0>         0.0659
     37 H16        -8.7725   -5.3093    0.0650 H         1 <0>         0.4374
     38 H17        -9.4452   -3.7697    0.0651 H         1 <0>         0.4271
@<TRIPOS>BOND
     1    1    2 1
     2    1   22 1
     3    1   23 1
     4    1   24 1
     5    2    3 1
     6    3    8 ar
     7    3    4 ar
     8    4    5 ar
     9    4   25 1
    10    5    6 ar
    11    5   26 1
    12    6    7 ar
    13    6    9 1
    14    7    8 ar
    15    7   27 1
    16    8   28 1
    17    9   14 ar
    18    9   10 ar
    19   10   11 ar
    20   10   29 1
    21   11   12 ar
    22   11   30 1
    23   12   13 ar
    24   12   21 1
    25   13   14 ar
    26   13   15 1
    27   15   16 1
    28   15   31 1
    29   15   32 1
    30   16   17 1
    31   16   33 1
    32   16   34 1
    33   17   18 1
    34   17   35 1
    35   17   36 1
    36   18   19 2
    37   18   20 1
    38   21   37 1
    39   21   38 1
@<TRIPOS>MOLECULE
ZINC03635492
   35    37     0     0     0
SMALL
USER_CHARGES
N-[(4-bromophenyl)methyl]-2-(1H-indol-3-yl)-2-oxo-acetamide
@<TRIPOS>ATOM
      1 C1         -0.7100    3.7645    0.0291 C.ar      1 <0>        -0.1294
      2 C2          0.6182    4.1637    0.0185 C.ar      1 <0>        -0.1037
      3 C3          1.6321    3.2303    0.0038 C.ar      1 <0>        -0.1177
      4 C4          1.3268    1.8732   -0.0005 C.ar      1 <0>         0.0702
      5 C5         -0.0179    1.4716    0.0101 C.ar      1 <0>        -0.0547
      6 C6         -1.0324    2.4243    0.0300 C.ar      1 <0>        -0.0763
      7 C7          0.0021   -0.0041    0.0020 C.2       1 <0>        -0.2774
      8 C8          1.3349   -0.3701   -0.0127 C.2       1 <0>         0.1669
      9 N1          2.1053    0.7326   -0.0141 N.pl3     1 <0>        -0.5675
     10 H1          3.0753    0.7274   -0.0229 H         1 <0>         0.4238
     11 C9         -1.1545   -0.8984    0.0087 C.2       1 <0>         0.4210
     12 O1         -2.2791   -0.4374    0.0223 O.2       1 <0>        -0.4384
     13 C10        -0.9545   -2.3766   -0.0012 C.2       1 <0>         0.4910
     14 O2          0.1686   -2.8370   -0.0148 O.2       1 <0>        -0.5175
     15 N2         -2.0207   -3.2010    0.0049 N.am      1 <0>        -0.7015
     16 C11        -1.8242   -4.6527   -0.0048 C.3       1 <0>         0.1569
     17 C12        -3.1647   -5.3411    0.0048 C.ar      1 <0>        -0.0999
     18 C13        -3.7649   -5.6684    1.2064 C.ar      1 <0>        -0.0920
     19 C14        -4.9966   -6.2955    1.2157 C.ar      1 <0>        -0.0918
     20 C15        -5.6239   -6.6051    0.0224 C.ar      1 <0>        -0.0814
     21 C16        -5.0205   -6.2822   -1.1798 C.ar      1 <0>        -0.0918
     22 C17        -3.7912   -5.6504   -1.1881 C.ar      1 <0>        -0.0920
     23 Br1        -7.3060   -7.4689    0.0344 Br        1 <0>        -0.0442
     24 H2         -1.4946    4.5065    0.0402 H         1 <0>         0.1278
     25 H3          0.8603    5.2163    0.0215 H         1 <0>         0.1294
     26 H4          2.6630    3.5523   -0.0046 H         1 <0>         0.1241
     27 H5         -2.0671    2.1151    0.0426 H         1 <0>         0.1319
     28 H6          1.7016   -1.3859   -0.0220 H         1 <0>         0.2029
     29 H7         -2.9181   -2.8331    0.0158 H         1 <0>         0.4137
     30 H8         -1.2751   -4.9390   -0.9018 H         1 <0>         0.0864
     31 H9         -1.2575   -4.9486    0.8780 H         1 <0>         0.0864
     32 H10        -3.2731   -5.4303    2.1380 H         1 <0>         0.1355
     33 H11        -5.4674   -6.5471    2.1545 H         1 <0>         0.1369
     34 H12        -5.5101   -6.5234   -2.1117 H         1 <0>         0.1369
     35 H13        -3.3203   -5.3979   -2.1266 H         1 <0>         0.1355
@<TRIPOS>BOND
     1    1    6 ar
     2    1    2 ar
     3    1   24 1
     4    2    3 ar
     5    2   25 1
     6    3    4 ar
     7    3   26 1
     8    4    9 1
     9    4    5 ar
    10    5    6 ar
    11    5    7 1
    12    6   27 1
    13    7    8 2
    14    7   11 1
    15    8    9 1
    16    8   28 1
    17    9   10 1
    18   11   12 2
    19   11   13 1
    20   13   14 2
    21   13   15 am
    22   15   16 1
    23   15   29 1
    24   16   17 1
    25   16   30 1
    26   16   31 1
    27   17   22 ar
    28   17   18 ar
    29   18   19 ar
    30   18   32 1
    31   19   20 ar
    32   19   33 1
    33   20   21 ar
    34   20   23 1
    35   21   22 ar
    36   21   34 1
    37   22   35 1
@<TRIPOS>MOLECULE
ZINC09227024
   28    30     0     0     0
SMALL
USER_CHARGES

@<TRIPOS>ATOM
      1 C1         -0.0178    1.4608    0.0101 C.3       1 <0>         0.0856
      2 N1          0.0021   -0.0041    0.0020 N.am      1 <0>        -0.7181
      3 C2         -1.1558   -0.6938    0.0094 C.2       1 <0>         0.5778
      4 O1         -2.2166   -0.1004    0.0227 O.2       1 <0>        -0.5353
      5 C3         -1.1358   -2.1723    0.0012 C.ar      1 <0>         0.0270
      6 C4         -2.3364   -2.8766    0.0032 C.ar      1 <0>        -0.0399
      7 C5         -2.2939   -4.2677   -0.0046 C.ar      1 <0>        -0.0794
      8 C6         -3.3100   -5.3319   -0.0055 C.ar      1 <0>        -0.1058
      9 C7         -4.7033   -5.3314    0.0005 C.ar      1 <0>        -0.0549
     10 C8         -5.3888   -6.5264   -0.0033 C.ar      1 <0>        -0.1444
     11 C9         -4.6973   -7.7285   -0.0131 C.ar      1 <0>        -0.0755
     12 C10        -3.3196   -7.7443   -0.0187 C.ar      1 <0>        -0.1397
     13 C11        -2.6085   -6.5477   -0.0154 C.ar      1 <0>         0.1413
     14 N2         -1.2536   -6.2705   -0.0204 N.pl3     1 <0>        -0.5980
     15 C12        -1.0418   -4.9096   -0.0141 C.ar      1 <0>         0.1090
     16 C13         0.1111   -4.1244   -0.0158 C.ar      1 <0>         0.0979
     17 N3          0.0300   -2.8143   -0.0133 N.ar      1 <0>        -0.4295
     18 H1          1.0048    1.8381    0.0023 H         1 <0>         0.0784
     19 H2         -0.5450    1.8219   -0.8730 H         1 <0>         0.0621
     20 H3         -0.5280    1.8123    0.9069 H         1 <0>         0.0622
     21 H4          0.8486   -0.4776   -0.0086 H         1 <0>         0.4122
     22 H5         -3.2817   -2.3543    0.0109 H         1 <0>         0.1516
     23 H6         -5.2444   -4.3967    0.0085 H         1 <0>         0.1307
     24 H7         -6.4688   -6.5271    0.0017 H         1 <0>         0.1320
     25 H8         -5.2434   -8.6602   -0.0160 H         1 <0>         0.1337
     26 H9         -2.7910   -8.6860   -0.0259 H         1 <0>         0.1286
     27 H10         1.0809   -4.5996   -0.0230 H         1 <0>         0.1667
     28 H11        -0.5516   -6.9399   -0.0271 H         1 <0>         0.4235
@<TRIPOS>BOND
     1    1    2 1
     2    1   18 1
     3    1   19 1
     4    1   20 1
     5    2    3 am
     6    2   21 1
     7    3    4 2
     8    3    5 1
     9    5   17 ar
    10    5    6 ar
    11    6    7 ar
    12    6   22 1
    13    7   15 ar
    14    7    8 1
    15    8   13 ar
    16    8    9 ar
    17    9   10 ar
    18    9   23 1
    19   10   11 ar
    20   10   24 1
    21   11   12 ar
    22   11   25 1
    23   12   13 ar
    24   12   26 1
    25   13   14 1
    26   14   15 1
    27   14   28 1
    28   15   16 ar
    29   16   17 ar
    30   16   27 1
@<TRIPOS>MOLECULE
ZINC09227024
   29    31     0     0     0
SMALL
USER_CHARGES

@<TRIPOS>ATOM
      1 C1         -0.0178    1.4608    0.0101 C.3       1 <0>         0.0800
      2 N1          0.0021   -0.0041    0.0020 N.am      1 <0>        -0.7213
      3 C2          0.5851   -0.6645   -1.0180 C.2       1 <0>         0.5560
      4 O1          1.0944   -0.0447   -1.9312 O.2       1 <0>        -0.4749
      5 C3          0.6051   -2.1431   -1.0261 C.ar      1 <0>         0.0435
      6 C4          1.2144   -2.8170   -2.0807 C.ar      1 <0>         0.0088
      7 C5          1.2216   -4.2087   -2.0679 C.ar      1 <0>        -0.0069
      8 C6          1.7467   -5.2470   -2.9684 C.ar      1 <0>        -0.1190
      9 C7          2.4377   -5.2115   -4.1777 C.ar      1 <0>        -0.0422
     10 C8          2.8022   -6.3890   -4.7933 C.ar      1 <0>        -0.1239
     11 C9          2.4839   -7.6080   -4.2137 C.ar      1 <0>        -0.0446
     12 C10         1.8005   -7.6583   -3.0184 C.ar      1 <0>        -0.1316
     13 C11         1.4236   -6.4800   -2.3804 C.ar      1 <0>         0.1560
     14 N2          0.7466   -6.2368   -1.1992 N.pl3     1 <0>        -0.5697
     15 C12         0.6141   -4.8817   -0.9918 C.ar      1 <0>         0.1292
     16 C13         0.0272   -4.1258    0.0229 C.ar      1 <0>         0.1404
     17 N3          0.0452   -2.8140   -0.0223 N.ar      1 <0>        -0.4075
     18 H1          1.0048    1.8381    0.0023 H         1 <0>         0.0768
     19 H2         -0.5450    1.8219   -0.8730 H         1 <0>         0.0768
     20 H3         -0.5280    1.8123    0.9069 H         1 <0>         0.0925
     21 H4         -0.4044   -0.4986    0.7308 H         1 <0>         0.3959
     22 H5          1.6719   -2.2711   -2.8926 H         1 <0>         0.1955
     23 H6          2.6866   -4.2637   -4.6315 H         1 <0>         0.1443
     24 H7          3.3376   -6.3626   -5.7309 H         1 <0>         0.1476
     25 H8          2.7738   -8.5257   -4.7036 H         1 <0>         0.1496
     26 H9          1.5572   -8.6130   -2.5759 H         1 <0>         0.1434
     27 H10        -0.4438   -4.6251    0.8568 H         1 <0>         0.2180
     28 H11         0.4120   -6.9236   -0.6015 H         1 <0>         0.4391
     29 H12        -0.3680   -2.3157    0.7001 H         1 <0>         0.4482
@<TRIPOS>BOND
     1    1    2 1
     2    1   18 1
     3    1   19 1
     4    1   20 1
     5    2    3 am
     6    2   21 1
     7    3    4 2
     8    3    5 1
     9    5   17 ar
    10    5    6 ar
    11    6    7 ar
    12    6   22 1
    13    7   15 ar
    14    7    8 1
    15    8   13 ar
    16    8    9 ar
    17    9   10 ar
    18    9   23 1
    19   10   11 ar
    20   10   24 1
    21   11   12 ar
    22   11   25 1
    23   12   13 ar
    24   12   26 1
    25   13   14 1
    26   14   15 1
    27   14   28 1
    28   15   16 ar
    29   16   17 ar
    30   16   27 1
    31   17   29 1
@<TRIPOS>MOLECULE
ZINC13823770
   23    23     0     0     0
SMALL
USER_CHARGES
(3S)-4-amino-3-(5-bromo-2-thienyl)butanoic acid
@<TRIPOS>ATOM
      1 C1         -0.8657    4.0909    0.0323 C.2       1 <0>        -0.1450
      2 C2         -1.0886    2.7265    0.0211 C.2       1 <0>        -0.1148
      3 C3         -0.0236    1.8867    0.0124 C.2       1 <0>        -0.1696
      4 S1          1.3478    3.0298    0.0055 S.3       1 <0>         0.1123
      5 C4          0.4098    4.5487    0.0226 C.2       1 <0>        -0.1736
      6 C5          0.9075    5.9712    0.0251 C.3       1 <0>        -0.0050
      7 H1          0.0575    6.6534    0.0365 H         1 <0>         0.1201
      8 C6          1.7684    6.2081    1.2674 C.3       1 <0>        -0.1556
      9 C7          2.1646    7.6606    1.3345 C.2       1 <0>         0.4600
     10 O1          1.7961    8.4275    0.4766 O.co2     1 <0>        -0.6474
     11 C8          1.7448    6.2207   -1.2309 C.3       1 <0>        -0.0046
     12 Br1         0.0021   -0.0041    0.0020 Br        1 <0>         0.0492
     13 H2         -1.6958    4.7817    0.0436 H         1 <0>         0.1466
     14 H3         -2.0953    2.3353    0.0229 H         1 <0>         0.1464
     15 H4          1.1996    5.9451    2.1593 H         1 <0>         0.0902
     16 H5          2.6641    5.5894    1.2122 H         1 <0>         0.0793
     17 H6          2.1778    7.2201   -1.1863 H         1 <0>         0.1718
     18 H7          2.5434    5.4810   -1.2881 H         1 <0>         0.1214
     19 H8          0.1042    6.7417   -2.3603 H         1 <0>         0.4374
     20 H9          1.4193    6.2713   -3.2631 H         1 <0>         0.4357
     21 O2          2.9268    8.1023    2.3473 O.co2     1 <0>        -0.7395
     22 N1          0.8819    6.0863   -2.4178 N.4       1 <0>        -0.6420
     23 H10         0.5114    5.1296   -2.4590 H         1 <0>         0.4266
@<TRIPOS>BOND
     1    1    5 2
     2    1    2 1
     3    1   13 1
     4    2    3 2
     5    2   14 1
     6    3    4 1
     7    3   12 1
     8    4    5 1
     9    5    6 1
    10    6    7 1
    11    6    8 1
    12    6   11 1
    13    8    9 1
    14    8   15 1
    15    8   16 1
    16    9   10 2
    17    9   21 1
    18   11   17 1
    19   11   18 1
    20   11   22 1
    21   19   22 1
    22   20   22 1
    23   22   23 1
@<TRIPOS>MOLECULE
ZINC06093614
   23    23     0     0     0
SMALL
USER_CHARGES
(3S)-4-amino-3-(2-thienyl)butanoic acid
@<TRIPOS>ATOM
      1 C1          1.0286    1.9437    0.0027 C.2       1 <0>        -0.1636
      2 C2          0.7697    3.3014    0.0117 C.2       1 <0>        -0.1434
      3 C3         -0.5179    3.7249    0.0255 C.2       1 <0>        -0.1873
      4 S1         -1.4145    2.1811    0.0194 S.3       1 <0>         0.0498
      5 C4         -0.0126    1.0758    0.0080 C.2       1 <0>        -0.1594
      6 C5         -1.0536    5.1335    0.0373 C.3       1 <0>        -0.0027
      7 H1         -0.2222    5.8384    0.0332 H         1 <0>         0.1158
      8 C6         -1.9204    5.3598   -1.2030 C.3       1 <0>        -0.1543
      9 C7         -2.3554    6.8017   -1.2554 C.2       1 <0>         0.4594
     10 O1         -2.0078    7.5695   -0.3896 O.co2     1 <0>        -0.6480
     11 C8         -1.8975    5.3476    1.2954 C.3       1 <0>        -0.0038
     12 H2          2.0454    1.5797   -0.0088 H         1 <0>         0.1383
     13 H3          1.5810    4.0142    0.0081 H         1 <0>         0.1373
     14 H4          0.0021   -0.0041    0.0020 H         1 <0>         0.1892
     15 H5         -1.3445    5.1213   -2.0972 H         1 <0>         0.0885
     16 H6         -2.7991    4.7167   -1.1544 H         1 <0>         0.0786
     17 H7         -2.3572    6.3354    1.2608 H         1 <0>         0.1694
     18 H8         -2.6759    4.5862    1.3447 H         1 <0>         0.1208
     19 H9         -0.2717    5.9009    2.4307 H         1 <0>         0.4365
     20 H10        -1.5738    5.3862    3.3282 H         1 <0>         0.4345
     21 O2         -3.1291    7.2331   -2.2639 O.co2     1 <0>        -0.7413
     22 N1         -1.0315    5.2243    2.4812 N.4       1 <0>        -0.6412
     23 H11        -0.6354    4.2775    2.5129 H         1 <0>         0.4270
@<TRIPOS>BOND
     1    1    5 2
     2    1    2 1
     3    1   12 1
     4    2    3 2
     5    2   13 1
     6    3    4 1
     7    3    6 1
     8    4    5 1
     9    5   14 1
    10    6    7 1
    11    6    8 1
    12    6   11 1
    13    8    9 1
    14    8   15 1
    15    8   16 1
    16    9   10 2
    17    9   21 1
    18   11   17 1
    19   11   18 1
    20   11   22 1
    21   19   22 1
    22   20   22 1
    23   22   23 1
@<TRIPOS>MOLECULE
ZINC03808883
   24    24     0     0     0
SMALL
USER_CHARGES
2-(5-methylmorpholin-2-yl)acetic acid
@<TRIPOS>ATOM
      1 C1          0.0419   -0.0754    2.5005 C.3       1 <0>        -0.1773
      2 C2          0.7721   -0.5054    1.2266 C.3       1 <0>        -0.0076
      3 H1          0.8386   -1.5929    1.1946 H         1 <0>         0.1431
      4 C3          0.0021   -0.0041    0.0020 C.3       1 <0>         0.0385
      5 O1         -0.0173    1.4259    0.0099 O.3       1 <0>        -0.3282
      6 C4          1.2838    2.0194    0.0006 C.3       1 <0>         0.0913
      7 H2          1.8113    1.7259   -0.9069 H         1 <0>         0.0875
      8 C5          2.0669    1.5386    1.2252 C.3       1 <0>        -0.0454
      9 C6          1.1508    3.5430    0.0452 C.3       1 <0>        -0.1579
     10 C7          0.4837    4.0261   -1.2168 C.2       1 <0>         0.4617
     11 O2          0.1491    3.2332   -2.0649 O.co2     1 <0>        -0.6280
     12 H3         -0.9622   -0.4995    2.5045 H         1 <0>         0.1042
     13 H4          0.5906   -0.4326    3.3720 H         1 <0>         0.0762
     14 H5         -0.0229    1.0122    2.5326 H         1 <0>         0.0878
     15 H6         -1.0197   -0.3821    0.0348 H         1 <0>         0.1328
     16 H7          0.4916   -0.3564   -0.9059 H         1 <0>         0.0768
     17 H8          1.5678    1.8783    2.1328 H         1 <0>         0.1372
     18 H9          3.0785    1.9431    1.1930 H         1 <0>         0.1405
     19 H10         0.5486    3.8300    0.9072 H         1 <0>         0.0835
     20 H11         2.1406    3.9919    0.1277 H         1 <0>         0.0916
     21 N1          2.1327    0.0648    1.2173 N.4       1 <0>        -0.5120
     22 H12         2.6260   -0.2483    0.3730 H         1 <0>         0.4315
     23 H13         2.6409   -0.2566    2.0496 H         1 <0>         0.4291
     24 O3          0.2613    5.3373   -1.3988 O.co2     1 <0>        -0.7568
@<TRIPOS>BOND
     1    1    2 1
     2    1   12 1
     3    1   13 1
     4    1   14 1
     5    2    3 1
     6    2    4 1
     7    2   21 1
     8    4    5 1
     9    4   15 1
    10    4   16 1
    11    5    6 1
    12    6    7 1
    13    6    8 1
    14    6    9 1
    15    8   17 1
    16    8   18 1
    17    8   21 1
    18    9   10 1
    19    9   19 1
    20    9   20 1
    21   10   11 2
    22   10   24 1
    23   21   22 1
    24   21   23 1
@<TRIPOS>MOLECULE
ZINC29332890
   24    24     0     0     0
SMALL
USER_CHARGES
2-[(2S,5R)-5-methylmorpholin-2-yl]acetic acid
@<TRIPOS>ATOM
      1 C1          1.2954    3.5343   -0.0278 C.3       1 <0>        -0.1782
      2 C2          1.3496    2.0055   -0.0001 C.3       1 <0>        -0.0016
      3 H1          1.8489    1.6562    0.9157 H         1 <0>         0.1377
      4 C3          2.0838    1.4973   -1.2437 C.3       1 <0>         0.0383
      5 O1          2.0659    0.0673   -1.2506 O.3       1 <0>        -0.3372
      6 C4          0.7497   -0.4921   -1.2417 C.3       1 <0>         0.0876
      7 H2          0.2649   -0.1413   -2.1647 H         1 <0>         0.0886
      8 C5          0.0021   -0.0041    0.0020 C.3       1 <0>        -0.0378
      9 N1         -0.0179    1.4659    0.0101 N.4       1 <0>        -0.5343
     10 C6          0.8437   -2.0190   -1.2149 C.3       1 <0>        -0.1583
     11 C7          1.4698   -2.5062   -2.4962 C.2       1 <0>         0.4614
     12 O2          1.8063   -1.7136   -3.3437 O.co2     1 <0>        -0.6286
     13 O3          1.6536   -3.8208   -2.6958 O.co2     1 <0>        -0.7574
     14 H3          2.3189    3.9374   -0.0354 H         1 <0>         0.1057
     15 H4          0.7645    3.8986    0.8641 H         1 <0>         0.0811
     16 H5          0.7639    3.8660   -0.9320 H         1 <0>         0.0819
     17 H6          1.5822    1.8766   -2.1462 H         1 <0>         0.0767
     18 H7          3.1246    1.8528   -1.2259 H         1 <0>         0.1321
     19 H8         -1.0291   -0.3867   -0.0164 H         1 <0>         0.1415
     20 H9          0.5131   -0.3708    0.9044 H         1 <0>         0.1340
     21 H10        -0.5406    1.8088    0.9152 H         1 <0>         0.4456
     22 H11         1.4627   -2.3333   -0.3616 H         1 <0>         0.0844
     23 H12        -0.1647   -2.4467   -1.1137 H         1 <0>         0.0921
     24 H13        -0.5579    1.8185   -0.8810 H         1 <0>         0.4447
@<TRIPOS>BOND
     1    1    2 1
     2    1   14 1
     3    1   15 1
     4    1   16 1
     5    2    3 1
     6    2    9 1
     7    2    4 1
     8    4    5 1
     9    4   17 1
    10    4   18 1
    11    5    6 1
    12    6    7 1
    13    6    8 1
    14    6   10 1
    15    8    9 1
    16    8   19 1
    17    8   20 1
    18    9   21 1
    19    9   24 1
    20   10   11 1
    21   10   22 1
    22   10   23 1
    23   11   12 2
    24   11   13 1
@<TRIPOS>MOLECULE
ZINC29332894
   24    24     0     0     0
SMALL
USER_CHARGES
2-[(2R,5R)-5-methylmorpholin-2-yl]acetic acid
@<TRIPOS>ATOM
      1 C1         -1.8293   -0.5603    3.7939 C.3       1 <0>        -0.1797
      2 C2         -1.9818    0.9616    3.7544 C.3       1 <0>        -0.0008
      3 H1         -2.4868    1.3199    4.6636 H         1 <0>         0.1402
      4 C3         -2.7685    1.3643    2.5042 C.3       1 <0>         0.0373
      5 O1         -2.0287    0.9874    1.3397 O.3       1 <0>        -0.3342
      6 C4         -0.7288    1.5792    1.2668 C.3       1 <0>         0.0888
      7 H2         -0.8923    2.6663    1.2290 H         1 <0>         0.0884
      8 C5          0.0785    1.1787    2.5044 C.3       1 <0>        -0.0443
      9 N1         -0.6521    1.5873    3.7130 N.4       1 <0>        -0.5334
     10 C6         -0.0127    1.0858    0.0080 C.3       1 <0>        -0.1580
     11 C7         -0.7416    1.5850   -1.2129 C.2       1 <0>         0.4615
     12 O2         -1.7322    2.2656   -1.0889 O.co2     1 <0>        -0.6285
     13 O3         -0.2903    1.2736   -2.4381 O.co2     1 <0>        -0.7575
     14 H3         -2.8245   -1.0278    3.8249 H         1 <0>         0.1032
     15 H4         -1.2607   -0.8487    4.6903 H         1 <0>         0.0758
     16 H5         -1.2931   -0.8985    2.8950 H         1 <0>         0.0879
     17 H6         -3.7426    0.8532    2.5035 H         1 <0>         0.1318
     18 H7         -2.9257    2.4530    2.5047 H         1 <0>         0.0759
     19 H8          0.2220    0.0881    2.5114 H         1 <0>         0.1353
     20 H9          1.0587    1.6773    2.4800 H         1 <0>         0.1405
     21 H10        -0.7619    2.6818    3.7084 H         1 <0>         0.4489
     22 H11         1.0193    1.4666    0.0002 H         1 <0>         0.0917
     23 H12         0.0023   -0.0141    0.0019 H         1 <0>         0.0838
     24 H13        -0.0747    1.2804    4.5976 H         1 <0>         0.4457
@<TRIPOS>BOND
     1    1    2 1
     2    1   14 1
     3    1   15 1
     4    1   16 1
     5    2    3 1
     6    2    9 1
     7    2    4 1
     8    4    5 1
     9    4   17 1
    10    4   18 1
    11    5    6 1
    12    6    7 1
    13    6    8 1
    14    6   10 1
    15    8    9 1
    16    8   19 1
    17    8   20 1
    18    9   21 1
    19    9   24 1
    20   10   11 1
    21   10   22 1
    22   10   23 1
    23   11   12 2
    24   11   13 1
@<TRIPOS>MOLECULE
ZINC29332899
   24    24     0     0     0
SMALL
USER_CHARGES
2-[(2R,5S)-5-methylmorpholin-2-yl]acetic acid
@<TRIPOS>ATOM
      1 C1         -1.4329   -0.5343   -0.0236 C.3       1 <0>        -0.1782
      2 C2          0.0021   -0.0041    0.0020 C.3       1 <0>        -0.0016
      3 H1          0.5157   -0.3321    0.9177 H         1 <0>         0.1377
      4 C3          0.7497   -0.4921   -1.2417 C.3       1 <0>         0.0383
      5 O1          2.0659    0.0673   -1.2506 O.3       1 <0>        -0.3370
      6 C4          2.0838    1.4973   -1.2437 C.3       1 <0>         0.0876
      7 H2          1.5740    1.8114   -2.1664 H         1 <0>         0.0884
      8 C5          1.3496    2.0055   -0.0001 C.3       1 <0>        -0.0378
      9 N1         -0.0179    1.4659    0.0101 N.4       1 <0>        -0.5343
     10 C6          3.5321    1.9901   -1.2202 C.3       1 <0>        -0.1582
     11 C7          4.2199    1.5893   -2.4998 C.2       1 <0>         0.4614
     12 O2          3.6139    0.9729   -3.3440 O.co2     1 <0>        -0.6286
     13 O3          5.5057    1.9172   -2.7017 O.co2     1 <0>        -0.7573
     14 H3         -1.4173   -1.6342   -0.0297 H         1 <0>         0.1057
     15 H4         -1.9424   -0.1698   -0.9278 H         1 <0>         0.0819
     16 H5         -1.9706   -0.1801    0.8683 H         1 <0>         0.0811
     17 H6          0.8159   -1.5899   -1.2225 H         1 <0>         0.1321
     18 H7          0.2075   -0.1732   -2.1441 H         1 <0>         0.0767
     19 H8          1.8837    1.6733    0.9023 H         1 <0>         0.1340
     20 H9          1.3120    3.1047   -0.0201 H         1 <0>         0.1414
     21 H10        -0.5500    1.8303   -0.8810 H         1 <0>         0.4446
     22 H11         3.5450    3.0859   -1.1246 H         1 <0>         0.0921
     23 H12         4.0583    1.5412   -0.3649 H         1 <0>         0.0844
     24 H13        -0.5328    1.8206    0.9151 H         1 <0>         0.4456
@<TRIPOS>BOND
     1    1    2 1
     2    1   14 1
     3    1   15 1
     4    1   16 1
     5    2    3 1
     6    2    9 1
     7    2    4 1
     8    4    5 1
     9    4   17 1
    10    4   18 1
    11    5    6 1
    12    6    7 1
    13    6    8 1
    14    6   10 1
    15    8    9 1
    16    8   19 1
    17    8   20 1
    18    9   21 1
    19    9   24 1
    20   10   11 1
    21   10   22 1
    22   10   23 1
    23   11   12 2
    24   11   13 1
@<TRIPOS>MOLECULE
ZINC03808881
   27    27     0     0     0
SMALL
USER_CHARGES
2-(5-ethylmorpholin-2-yl)acetic acid
@<TRIPOS>ATOM
      1 C1          3.0678   -1.9722    2.2783 C.3       1 <0>        -0.1707
      2 C2          2.9230   -0.4503    2.3393 C.3       1 <0>        -0.1452
      3 C3          2.1519    0.0382    1.1114 C.3       1 <0>        -0.0064
      4 H1          2.6475   -0.3138    0.2066 H         1 <0>         0.1438
      5 C4          2.1096    1.5686    1.1087 C.3       1 <0>         0.0409
      6 O1          1.3249    2.0168    0.0002 O.3       1 <0>        -0.3302
      7 C5         -0.0187    1.5267    0.0104 C.3       1 <0>         0.0904
      8 H2         -0.5278    1.8789    0.9076 H         1 <0>         0.0880
      9 C6          0.0021   -0.0041    0.0020 C.3       1 <0>        -0.0402
     10 C7         -0.7571    2.0345   -1.2296 C.3       1 <0>        -0.1581
     11 C8         -0.8846    3.5344   -1.1593 C.2       1 <0>         0.4617
     12 O2         -0.4314    4.1356   -0.2143 O.co2     1 <0>        -0.6281
     13 H3          3.6103   -2.2497    1.3745 H         1 <0>         0.0712
     14 H4          3.6172   -2.3202    3.1531 H         1 <0>         0.0814
     15 H5          2.0792   -2.4310    2.2639 H         1 <0>         0.0506
     16 H6          3.9117    0.0084    2.3536 H         1 <0>         0.1128
     17 H7          2.3805   -0.1729    3.2430 H         1 <0>         0.0886
     18 H8          1.6624    1.9219    2.0378 H         1 <0>         0.0769
     19 H9          3.1228    1.9605    1.0203 H         1 <0>         0.1333
     20 H10        -1.0181   -0.3823    0.0674 H         1 <0>         0.1411
     21 H11         0.4626   -0.3568   -0.9208 H         1 <0>         0.1364
     22 H12        -0.1979    1.7589   -2.1238 H         1 <0>         0.0842
     23 H13        -1.7502    1.5869   -1.2698 H         1 <0>         0.0920
     24 N1          0.7754   -0.4902    1.1605 N.4       1 <0>        -0.5132
     25 H14         0.3222   -0.1763    2.0267 H         1 <0>         0.4284
     26 H15         0.8050   -1.5164    1.1422 H         1 <0>         0.4269
     27 O3         -1.5017    4.2026   -2.1465 O.co2     1 <0>        -0.7566
@<TRIPOS>BOND
     1    1    2 1
     2    1   13 1
     3    1   14 1
     4    1   15 1
     5    2    3 1
     6    2   16 1
     7    2   17 1
     8    3    4 1
     9    3    5 1
    10    3   24 1
    11    5    6 1
    12    5   18 1
    13    5   19 1
    14    6    7 1
    15    7    8 1
    16    7    9 1
    17    7   10 1
    18    9   20 1
    19    9   21 1
    20    9   24 1
    21   10   11 1
    22   10   22 1
    23   10   23 1
    24   11   12 2
    25   11   27 1
    26   24   25 1
    27   24   26 1
@<TRIPOS>MOLECULE
ZINC29333986
   27    27     0     0     0
SMALL
USER_CHARGES
2-[(2S,5S)-5-ethylmorpholin-2-yl]acetic acid
@<TRIPOS>ATOM
      1 C1         -1.3966   -0.6879   -2.5066 C.3       1 <0>        -0.1696
      2 C2         -0.0089   -0.0464   -2.4480 C.3       1 <0>        -0.1474
      3 C3          0.7138   -0.5089   -1.1812 C.3       1 <0>         0.0011
      4 H1          0.7163   -1.6073   -1.1213 H         1 <0>         0.1406
      5 C4          2.1447    0.0355   -1.1801 C.3       1 <0>         0.0385
      6 O1          2.1057    1.4646   -1.1406 O.3       1 <0>        -0.3339
      7 C5          1.4204    1.9905   -0.0008 C.3       1 <0>         0.0897
      8 H2          1.9817    1.6410    0.8783 H         1 <0>         0.0886
      9 C6         -0.0179    1.4659    0.0101 C.3       1 <0>        -0.0449
     10 N1          0.0021   -0.0041    0.0020 N.4       1 <0>        -0.5338
     11 C7          1.4063    3.5187   -0.0734 C.3       1 <0>        -0.1579
     12 C8          2.8158    4.0400    0.0395 C.2       1 <0>         0.4617
     13 O2          3.7370    3.2684    0.1652 O.co2     1 <0>        -0.6284
     14 O3          3.0477    5.3615    0.0006 O.co2     1 <0>        -0.7577
     15 H3         -1.9161   -0.3553   -3.4174 H         1 <0>         0.0808
     16 H4         -1.9775   -0.3866   -1.6224 H         1 <0>         0.0487
     17 H5         -1.2939   -1.7830   -2.5222 H         1 <0>         0.0693
     18 H6          0.5720   -0.3477   -3.3322 H         1 <0>         0.1094
     19 H7         -0.1115    1.0487   -2.4325 H         1 <0>         0.0945
     20 H8          2.6804   -0.3432   -0.2971 H         1 <0>         0.0764
     21 H9          2.6631   -0.2940   -2.0926 H         1 <0>         0.1320
     22 H10        -0.5314    1.8226    0.9151 H         1 <0>         0.1406
     23 H11        -0.5486    1.8323   -0.8810 H         1 <0>         0.1351
     24 H12        -1.0341   -0.3732   -0.0083 H         1 <0>         0.4424
     25 H13         0.9737    3.8362   -1.0337 H         1 <0>         0.0836
     26 H14         0.7999    3.9194    0.7522 H         1 <0>         0.0915
     27 H15         0.5081   -0.3573    0.9126 H         1 <0>         0.4489
@<TRIPOS>BOND
     1    1    2 1
     2    1   15 1
     3    1   16 1
     4    1   17 1
     5    2    3 1
     6    2   18 1
     7    2   19 1
     8    3    4 1
     9    3   10 1
    10    3    5 1
    11    5    6 1
    12    5   20 1
    13    5   21 1
    14    6    7 1
    15    7    8 1
    16    7    9 1
    17    7   11 1
    18    9   10 1
    19    9   22 1
    20    9   23 1
    21   10   24 1
    22   10   27 1
    23   11   12 1
    24   11   25 1
    25   11   26 1
    26   12   13 2
    27   12   14 1
@<TRIPOS>MOLECULE
ZINC29333991
   27    27     0     0     0
SMALL
USER_CHARGES
2-[(2R,5R)-5-ethylmorpholin-2-yl]acetic acid
@<TRIPOS>ATOM
      1 C1          2.8823   -4.2329    2.2998 C.3       1 <0>        -0.1696
      2 C2          2.7388   -2.7106    2.3531 C.3       1 <0>        -0.1474
      3 C3          3.4961   -2.0856    1.1798 C.3       1 <0>         0.0012
      4 H1          4.5355   -2.4450    1.1595 H         1 <0>         0.1406
      5 C4          3.4536   -0.5598    1.2985 C.3       1 <0>         0.0384
      6 O1          2.0973   -0.1161    1.2041 O.3       1 <0>        -0.3337
      7 C5          1.4513   -0.4944   -0.0145 C.3       1 <0>         0.0897
      8 H2          2.0230   -0.0138   -0.8220 H         1 <0>         0.0885
      9 C6          1.4735   -2.0195   -0.1465 C.3       1 <0>        -0.0449
     10 N1          2.8645   -2.4914   -0.0842 N.4       1 <0>        -0.5338
     11 C7          0.0021   -0.0041    0.0020 C.3       1 <0>        -0.1578
     12 C8         -0.0184    1.5028    0.0103 C.2       1 <0>         0.4617
     13 O2          1.0197    2.1211    0.0037 O.co2     1 <0>        -0.6285
     14 O3         -1.1898    2.1580    0.0194 O.co2     1 <0>        -0.7576
     15 H3          2.3378   -4.6823    3.1434 H         1 <0>         0.0808
     16 H4          3.9466   -4.5033    2.3645 H         1 <0>         0.0693
     17 H5          2.4657   -4.6075    1.3532 H         1 <0>         0.0487
     18 H6          1.6745   -2.4402    2.2884 H         1 <0>         0.0945
     19 H7          3.1554   -2.3359    3.2997 H         1 <0>         0.1094
     20 H8          3.8739   -0.2557    2.2685 H         1 <0>         0.1320
     21 H9          4.0449   -0.1122    0.4861 H         1 <0>         0.0763
     22 H10         0.8953   -2.4671    0.6753 H         1 <0>         0.1351
     23 H11         1.0282   -2.3108   -1.1093 H         1 <0>         0.1407
     24 H12         3.4235   -2.0610   -0.9281 H         1 <0>         0.4489
     25 H13        -0.5200   -0.3730   -0.8932 H         1 <0>         0.0916
     26 H14        -0.5028   -0.3826    0.9030 H         1 <0>         0.0836
     27 H15         2.8709   -3.5887   -0.1616 H         1 <0>         0.4424
@<TRIPOS>BOND
     1    1    2 1
     2    1   15 1
     3    1   16 1
     4    1   17 1
     5    2    3 1
     6    2   18 1
     7    2   19 1
     8    3    4 1
     9    3   10 1
    10    3    5 1
    11    5    6 1
    12    5   20 1
    13    5   21 1
    14    6    7 1
    15    7    8 1
    16    7    9 1
    17    7   11 1
    18    9   10 1
    19    9   22 1
    20    9   23 1
    21   10   24 1
    22   10   27 1
    23   11   12 1
    24   11   25 1
    25   11   26 1
    26   12   13 2
    27   12   14 1
@<TRIPOS>MOLECULE
ZINC29333996
   27    27     0     0     0
SMALL
USER_CHARGES
2-[(2R,5S)-5-ethylmorpholin-2-yl]acetic acid
@<TRIPOS>ATOM
      1 C1          3.5322    3.5779   -1.2762 C.3       1 <0>        -0.1711
      2 C2          3.5277    2.0533   -1.1470 C.3       1 <0>        -0.1444
      3 C3          2.0859    1.5427   -1.1833 C.3       1 <0>         0.0004
      4 H1          1.5647    1.9294   -2.0714 H         1 <0>         0.1385
      5 C4          2.0855    0.0117   -1.1797 C.3       1 <0>         0.0394
      6 O1          0.7359   -0.4596   -1.1379 O.3       1 <0>        -0.3365
      7 C5          0.0021   -0.0041    0.0020 C.3       1 <0>         0.0880
      8 H2          0.5293   -0.4031    0.8811 H         1 <0>         0.0888
      9 C6         -0.0187    1.5267    0.0104 C.3       1 <0>        -0.0378
     10 N1          1.3624    2.0305   -0.0000 N.4       1 <0>        -0.5347
     11 C7         -1.4315   -0.5341   -0.0681 C.3       1 <0>        -0.1582
     12 C8         -1.4178   -2.0366    0.0473 C.2       1 <0>         0.4615
     13 O2         -0.3690   -2.6233    0.1728 O.co2     1 <0>        -0.6286
     14 O3         -2.5706   -2.7231    0.0108 O.co2     1 <0>        -0.7574
     15 H3          4.5688    3.9450   -1.2501 H         1 <0>         0.0812
     16 H4          2.9661    4.0182   -0.4421 H         1 <0>         0.0512
     17 H5          3.0649    3.8665   -2.2293 H         1 <0>         0.0710
     18 H6          4.0938    1.6130   -1.9811 H         1 <0>         0.1116
     19 H7          3.9950    1.7647   -0.1940 H         1 <0>         0.0890
     20 H8          2.5766   -0.3572   -2.0922 H         1 <0>         0.1323
     21 H9          2.6308   -0.3531   -0.2968 H         1 <0>         0.0768
     22 H10        -0.5507    1.8910   -0.8808 H         1 <0>         0.1341
     23 H11        -0.5337    1.8815    0.9154 H         1 <0>         0.1415
     24 H12         1.8734    1.6845    0.9106 H         1 <0>         0.4441
     25 H13        -2.0206   -0.1083    0.7575 H         1 <0>         0.0920
     26 H14        -1.8831   -0.2442   -1.0283 H         1 <0>         0.0844
     27 H15         1.3391    3.1302   -0.0120 H         1 <0>         0.4427
@<TRIPOS>BOND
     1    1    2 1
     2    1   15 1
     3    1   16 1
     4    1   17 1
     5    2    3 1
     6    2   18 1
     7    2   19 1
     8    3    4 1
     9    3   10 1
    10    3    5 1
    11    5    6 1
    12    5   20 1
    13    5   21 1
    14    6    7 1
    15    7    8 1
    16    7    9 1
    17    7   11 1
    18    9   10 1
    19    9   22 1
    20    9   23 1
    21   10   24 1
    22   10   27 1
    23   11   12 1
    24   11   25 1
    25   11   26 1
    26   12   13 2
    27   12   14 1
@<TRIPOS>MOLECULE
ZINC00006164
   27    27     0     0     0
SMALL
USER_CHARGES

@<TRIPOS>ATOM
      1 C1         -0.0187    1.5258    0.0104 C.3       1 <0>        -0.1708
      2 C2          0.0021   -0.0041    0.0020 C.3       1 <0>         0.0174
      3 C3         -1.4338   -0.5343    0.0153 C.3       1 <0>         0.0466
      4 O1         -1.4082   -1.9636    0.0636 O.3       1 <0>        -0.3247
      5 C4         -0.7055   -2.4870    1.1941 C.3       1 <0>         0.0970
      6 H1         -1.2025   -2.1693    2.1107 H         1 <0>         0.0867
      7 C5          0.7317   -1.9604    1.1830 C.3       1 <0>        -0.0508
      8 N1          0.7127   -0.4912    1.1923 N.4       1 <0>        -0.4994
      9 C6         -0.6912   -4.0154    1.1240 C.3       1 <0>        -0.1846
     10 C7         -2.0990   -4.5374    1.2535 C.2       1 <0>         0.4937
     11 O2         -3.0277   -3.7591    1.3893 O.co2     1 <0>        -0.6844
     12 O3         -2.3093   -5.7379    1.2225 O.co2     1 <0>        -0.6884
     13 C8          0.7173   -0.4979   -1.2571 C.3       1 <0>        -0.1698
     14 H2          1.0039    1.9031    0.0027 H         1 <0>         0.0813
     15 H3         -0.5459    1.8868   -0.8726 H         1 <0>         0.1060
     16 H4         -0.5289    1.8773    0.9072 H         1 <0>         0.0815
     17 H5         -1.9557   -0.1498    0.8915 H         1 <0>         0.0762
     18 H6         -1.9500   -0.2098   -0.8882 H         1 <0>         0.1314
     19 H7          1.2586   -2.3229    2.0657 H         1 <0>         0.1402
     20 H8          1.2408   -2.3118    0.2855 H         1 <0>         0.1375
     21 H9          1.6595   -0.1424    1.1852 H         1 <0>         0.4218
     22 H10        -0.2731   -4.3314    0.1683 H         1 <0>         0.0769
     23 H11        -0.0810   -4.4107    1.9361 H         1 <0>         0.0848
     24 H12         1.7399   -0.1207   -1.2657 H         1 <0>         0.0764
     25 H13         0.7319   -1.5878   -1.2629 H         1 <0>         0.0888
     26 H14         0.1896   -0.1370   -2.1399 H         1 <0>         0.1036
     27 H15         0.2405   -0.1661    2.0226 H         1 <0>         0.4250
@<TRIPOS>BOND
     1    1    2 1
     2    1   14 1
     3    1   15 1
     4    1   16 1
     5    2    8 1
     6    2    3 1
     7    2   13 1
     8    3    4 1
     9    3   17 1
    10    3   18 1
    11    4    5 1
    12    5    6 1
    13    5    7 1
    14    5    9 1
    15    7    8 1
    16    7   19 1
    17    7   20 1
    18    8   21 1
    19    8   27 1
    20    9   10 1
    21    9   22 1
    22    9   23 1
    23   10   11 2
    24   10   12 1
    25   13   24 1
    26   13   25 1
    27   13   26 1
@<TRIPOS>MOLECULE
ZINC02546079
   27    27     0     0     0
SMALL
USER_CHARGES

@<TRIPOS>ATOM
      1 C1         -0.0187    1.5258    0.0104 C.3       1 <0>        -0.1698
      2 C2          0.0021   -0.0041    0.0020 C.3       1 <0>         0.0174
      3 C3         -1.4338   -0.5343    0.0153 C.3       1 <0>         0.0466
      4 O1         -2.0799   -0.1158    1.2208 O.3       1 <0>        -0.3247
      5 C4         -1.4110   -0.5462    2.4096 C.3       1 <0>         0.0970
      6 H1         -1.3966   -1.6355    2.4450 H         1 <0>         0.0867
      7 C5          0.0249   -0.0160    2.4007 C.3       1 <0>        -0.0508
      8 N1          0.7127   -0.4912    1.1923 N.4       1 <0>        -0.4994
      9 C6         -2.1490   -0.0048    3.6356 C.3       1 <0>        -0.1846
     10 C7         -3.5230   -0.6197    3.7069 C.2       1 <0>         0.4937
     11 O2         -3.8790   -1.4171    2.8560 O.co2     1 <0>        -0.6843
     12 O3         -4.2787   -0.3199    4.6155 O.co2     1 <0>        -0.6884
     13 C8          0.7173   -0.4979   -1.2571 C.3       1 <0>        -0.1708
     14 H2          1.0039    1.9031    0.0027 H         1 <0>         0.0764
     15 H3         -0.5459    1.8868   -0.8726 H         1 <0>         0.1036
     16 H4         -0.5289    1.8773    0.9072 H         1 <0>         0.0888
     17 H5         -1.9756   -0.1394   -0.8441 H         1 <0>         0.1314
     18 H6         -1.4202   -1.6232   -0.0312 H         1 <0>         0.0762
     19 H7          0.0101    1.0739    2.4058 H         1 <0>         0.1375
     20 H8          0.5513   -0.3769    3.2844 H         1 <0>         0.1402
     21 H9          0.7254   -1.5001    1.1872 H         1 <0>         0.4250
     22 H10        -1.5905   -0.2577    4.5368 H         1 <0>         0.0848
     23 H11        -2.2395    1.0785    3.5562 H         1 <0>         0.0769
     24 H12         1.7399   -0.1207   -1.2657 H         1 <0>         0.0813
     25 H13         0.7319   -1.5878   -1.2629 H         1 <0>         0.0815
     26 H14         0.1896   -0.1370   -2.1399 H         1 <0>         0.1060
     27 H15         1.6596   -0.1427    1.1850 H         1 <0>         0.4218
@<TRIPOS>BOND
     1    1    2 1
     2    1   14 1
     3    1   15 1
     4    1   16 1
     5    2    8 1
     6    2    3 1
     7    2   13 1
     8    3    4 1
     9    3   17 1
    10    3   18 1
    11    4    5 1
    12    5    6 1
    13    5    7 1
    14    5    9 1
    15    7    8 1
    16    7   19 1
    17    7   20 1
    18    8   21 1
    19    8   27 1
    20    9   10 1
    21    9   22 1
    22    9   23 1
    23   10   11 2
    24   10   12 1
    25   13   24 1
    26   13   25 1
    27   13   26 1
@<TRIPOS>MOLECULE
ZINC13823786
   26    26     0     0     0
SMALL
USER_CHARGES
(3R)-4-amino-3-(2-chlorophenyl)butanoic acid
@<TRIPOS>ATOM
      1 C1         -0.0126    1.0758    0.0080 C.ar      1 <0>        -0.1069
      2 C2         -1.2194    1.7505    0.0173 C.ar      1 <0>        -0.1014
      3 C3         -1.2387    3.1322    0.0307 C.ar      1 <0>        -0.1037
      4 C4         -0.0501    3.8406    0.0232 C.ar      1 <0>        -0.0412
      5 C5          1.1570    3.1651    0.0080 C.ar      1 <0>        -0.1071
      6 C6          1.1751    1.7829    0.0004 C.ar      1 <0>        -0.1038
      7 C7          2.4519    3.9358    0.0003 C.3       1 <0>        -0.0601
      8 H1          2.2386    5.0047    0.0080 H         1 <0>         0.1123
      9 C8          3.2705    3.5702    1.2401 C.3       1 <0>        -0.1485
     10 C9          4.5073    4.4293    1.2969 C.2       1 <0>         0.4585
     11 O1          4.7129    5.2499    0.4342 O.co2     1 <0>        -0.6469
     12 C10         3.2476    3.5836   -1.2582 C.3       1 <0>        -0.0017
     13 Cl1        -0.0736    5.5764    0.0321 Cl        1 <0>        -0.0566
     14 H2          0.0021   -0.0041    0.0020 H         1 <0>         0.1347
     15 H3         -2.1471    1.1975    0.0187 H         1 <0>         0.1365
     16 H4         -2.1814    3.6591    0.0422 H         1 <0>         0.1381
     17 H5          2.1174    1.2553   -0.0118 H         1 <0>         0.1372
     18 H6          2.6701    3.7380    2.1343 H         1 <0>         0.0856
     19 H7          3.5594    2.5204    1.1882 H         1 <0>         0.0772
     20 H8          4.2214    4.0717   -1.2209 H         1 <0>         0.1671
     21 H9          3.3843    2.5035   -1.3112 H         1 <0>         0.1219
     22 H10         2.3188    5.0314   -2.3894 H         1 <0>         0.4358
     23 H11         3.0200    3.8221   -3.2904 H         1 <0>         0.4344
     24 O2          5.3804    4.2830    2.3058 O.co2     1 <0>        -0.7441
     25 N1          2.4936    4.0293   -2.4432 N.4       1 <0>        -0.6431
     26 H12         1.5950    3.5338   -2.4776 H         1 <0>         0.4258
@<TRIPOS>BOND
     1    1    6 ar
     2    1    2 ar
     3    1   14 1
     4    2    3 ar
     5    2   15 1
     6    3    4 ar
     7    3   16 1
     8    4    5 ar
     9    4   13 1
    10    5    6 ar
    11    5    7 1
    12    6   17 1
    13    7    8 1
    14    7    9 1
    15    7   12 1
    16    9   10 1
    17    9   18 1
    18    9   19 1
    19   10   11 2
    20   10   24 1
    21   12   20 1
    22   12   21 1
    23   12   25 1
    24   22   25 1
    25   23   25 1
    26   25   26 1
@<TRIPOS>MOLECULE
ZINC04163163
   38    40     0     0     0
SMALL
USER_CHARGES
2-(1H-indol-3-yl)-2-oxo-N-(1-phenylethyl)acetamide
@<TRIPOS>ATOM
      1 C1          1.4074    4.0985    1.4307 C.3       1 <0>        -0.1594
      2 C2          1.1505    3.5924    0.0099 C.3       1 <0>         0.1810
      3 H1          0.1767    3.9443   -0.3307 H         1 <0>         0.1019
      4 C3          1.1709    2.0855    0.0021 C.ar      1 <0>        -0.0974
      5 C4         -0.0167    1.3781    0.0096 C.ar      1 <0>        -0.1061
      6 C5          0.0021   -0.0041    0.0020 C.ar      1 <0>        -0.1153
      7 C6          1.2084   -0.6789   -0.0136 C.ar      1 <0>        -0.1165
      8 C7          2.3961    0.0285   -0.0212 C.ar      1 <0>        -0.1142
      9 C8          2.3773    1.4107   -0.0136 C.ar      1 <0>        -0.1141
     10 N1          2.1935    4.0996   -0.8852 N.am      1 <0>        -0.6994
     11 C9          2.0712    5.3229   -1.4374 C.2       1 <0>         0.4926
     12 O1          1.0969    6.0044   -1.1932 O.2       1 <0>        -0.5181
     13 C10         3.1332    5.8393   -2.3489 C.2       1 <0>         0.4207
     14 O2          4.1089    5.1569   -2.5934 O.2       1 <0>        -0.4393
     15 C11         3.0006    7.1663   -2.9480 C.2       1 <0>        -0.2771
     16 C12         1.9561    8.0551   -2.7749 C.2       1 <0>         0.1670
     17 N2          2.1931    9.1731   -3.4844 N.pl3     1 <0>        -0.5678
     18 H2          1.6014    9.9411   -3.5170 H         1 <0>         0.4237
     19 C13         3.3912    9.0762   -4.1644 C.ar      1 <0>         0.0704
     20 C14         3.9517    7.8246   -3.8645 C.ar      1 <0>        -0.0546
     21 C15         5.1731    7.4544   -4.4188 C.ar      1 <0>        -0.0763
     22 C16         5.8303    8.3231   -5.2641 C.ar      1 <0>        -0.1296
     23 C17         5.2787    9.5598   -5.5617 C.ar      1 <0>        -0.1039
     24 C18         4.0692    9.9385   -5.0191 C.ar      1 <0>        -0.1179
     25 H3          1.3926    5.1884    1.4364 H         1 <0>         0.0672
     26 H4          0.6313    3.7211    2.0967 H         1 <0>         0.0722
     27 H5          2.3811    3.7466    1.7713 H         1 <0>         0.0615
     28 H6         -0.9592    1.9054    0.0170 H         1 <0>         0.1256
     29 H7         -0.9258   -0.5567    0.0079 H         1 <0>         0.1256
     30 H8          1.2231   -1.7588   -0.0196 H         1 <0>         0.1243
     31 H9          3.3386   -0.4987   -0.0327 H         1 <0>         0.1254
     32 H10         3.3052    1.9634   -0.0192 H         1 <0>         0.1214
     33 H11         2.9721    3.5549   -1.0803 H         1 <0>         0.4107
     34 H12         1.0843    7.8796   -2.1620 H         1 <0>         0.2031
     35 H13         5.6044    6.4916   -4.1877 H         1 <0>         0.1319
     36 H14         6.7787    8.0393   -5.6958 H         1 <0>         0.1277
     37 H15         5.8016   10.2331   -6.2248 H         1 <0>         0.1293
     38 H16         3.6487   10.9044   -5.2574 H         1 <0>         0.1240
@<TRIPOS>BOND
     1    1    2 1
     2    1   25 1
     3    1   26 1
     4    1   27 1
     5    2    3 1
     6    2    4 1
     7    2   10 1
     8    4    9 ar
     9    4    5 ar
    10    5    6 ar
    11    5   28 1
    12    6    7 ar
    13    6   29 1
    14    7    8 ar
    15    7   30 1
    16    8    9 ar
    17    8   31 1
    18    9   32 1
    19   10   11 am
    20   10   33 1
    21   11   12 2
    22   11   13 1
    23   13   14 2
    24   13   15 1
    25   15   20 1
    26   15   16 2
    27   16   17 1
    28   16   34 1
    29   17   18 1
    30   17   19 1
    31   19   24 ar
    32   19   20 ar
    33   20   21 ar
    34   21   22 ar
    35   21   35 1
    36   22   23 ar
    37   22   36 1
    38   23   24 ar
    39   23   37 1
    40   24   38 1
@<TRIPOS>MOLECULE
ZINC13863224
   40    42     0     0     0
SMALL
USER_CHARGES
2-(5-nitro-1H-indol-3-yl)-2-oxo-N-[(1R)-1-phenylethyl]acetamide
@<TRIPOS>ATOM
      1 C1          8.2939    4.7655   -1.4840 C.3       1 <0>        -0.1598
      2 C2          8.0847    4.2814   -0.0477 C.3       1 <0>         0.1815
      3 H1          7.6627    5.0892    0.5501 H         1 <0>         0.1029
      4 C3          9.4078    3.8609    0.5385 C.ar      1 <0>        -0.0992
      5 C4          9.9330    2.6179    0.2383 C.ar      1 <0>        -0.1141
      6 C5         11.1487    2.2340    0.7726 C.ar      1 <0>        -0.1136
      7 C6         11.8347    3.0892    1.6146 C.ar      1 <0>        -0.1155
      8 C7         11.3072    4.3303    1.9185 C.ar      1 <0>        -0.1151
      9 C8         10.0935    4.7160    1.3808 C.ar      1 <0>        -0.1058
     10 N1          7.1652    3.1408   -0.0459 N.am      1 <0>        -0.6962
     11 C9          5.8336    3.3487   -0.0328 C.2       1 <0>         0.4945
     12 O1          5.3962    4.4810   -0.0224 O.2       1 <0>        -0.5175
     13 C10         4.8974    2.1874   -0.0309 C.2       1 <0>         0.4186
     14 O2          5.3354    1.0536   -0.0413 O.2       1 <0>        -0.4273
     15 C11         3.4529    2.4129   -0.0166 C.2       1 <0>        -0.2585
     16 C12         2.8029    3.6327   -0.0039 C.2       1 <0>         0.1760
     17 N2          1.4724    3.4345    0.0070 N.pl3     1 <0>        -0.5617
     18 H2          0.8097    4.1428    0.0173 H         1 <0>         0.4319
     19 C13         1.1787    2.0851    0.0020 C.ar      1 <0>         0.1167
     20 C14         2.3948    1.3840   -0.0129 C.ar      1 <0>        -0.0641
     21 C15         2.3999   -0.0073   -0.0204 C.ar      1 <0>         0.0030
     22 C16         1.2044   -0.6943   -0.0132 C.ar      1 <0>        -0.0557
     23 C17         0.0021   -0.0041    0.0020 C.ar      1 <0>        -0.0514
     24 C18        -0.0166    1.3744    0.0096 C.ar      1 <0>        -0.1077
     25 N3          1.2047   -2.1745   -0.0211 N.pl3     1 <0>         0.0313
     26 O3          0.1501   -2.7837   -0.0143 O.2       1 <0>        -0.1591
     27 O4          2.2596   -2.7832   -0.0345 O.3       1 <0>        -0.1586
     28 H3          7.3369    5.0696   -1.9080 H         1 <0>         0.0671
     29 H4          8.9780    5.6140   -1.4853 H         1 <0>         0.0732
     30 H5          8.7159    3.9576   -2.0818 H         1 <0>         0.0621
     31 H6          9.3951    1.9482   -0.4162 H         1 <0>         0.1214
     32 H7         11.5610    1.2645    0.5349 H         1 <0>         0.1260
     33 H8         12.7829    2.7879    2.0346 H         1 <0>         0.1247
     34 H9         11.8431    4.9985    2.5763 H         1 <0>         0.1259
     35 H10         9.6812    5.6854    1.6185 H         1 <0>         0.1256
     36 H11         7.5148    2.2360   -0.0542 H         1 <0>         0.4119
     37 H12         3.2888    4.5972   -0.0028 H         1 <0>         0.2130
     38 H13         3.3356   -0.5465   -0.0323 H         1 <0>         0.1631
     39 H14        -0.9288   -0.5516    0.0083 H         1 <0>         0.1603
     40 H15        -0.9589    1.9020    0.0169 H         1 <0>         0.1501
@<TRIPOS>BOND
     1    1    2 1
     2    1   28 1
     3    1   29 1
     4    1   30 1
     5    2    3 1
     6    2    4 1
     7    2   10 1
     8    4    9 ar
     9    4    5 ar
    10    5    6 ar
    11    5   31 1
    12    6    7 ar
    13    6   32 1
    14    7    8 ar
    15    7   33 1
    16    8    9 ar
    17    8   34 1
    18    9   35 1
    19   10   11 am
    20   10   36 1
    21   11   12 2
    22   11   13 1
    23   13   14 2
    24   13   15 1
    25   15   20 1
    26   15   16 2
    27   16   17 1
    28   16   37 1
    29   17   18 1
    30   17   19 1
    31   19   24 ar
    32   19   20 ar
    33   20   21 ar
    34   21   22 ar
    35   21   38 1
    36   22   23 ar
    37   22   25 1
    38   23   24 ar
    39   23   39 1
    40   24   40 1
    41   25   26 2
    42   25   27 1
@<TRIPOS>MOLECULE
ZINC03875364
   51    54     0     0     0
SMALL
USER_CHARGES

@<TRIPOS>ATOM
      1 C1         -0.0029    1.5259    0.0192 C.3       1 <0>        -0.1496
      2 C2          0.0189   -0.0039    0.0113 C.3       1 <0>        -0.0475
      3 C3         -1.4159   -0.5356    0.0299 C.3       1 <0>        -0.1093
      4 C4         -1.3917   -2.0656    0.0163 C.3       1 <0>        -0.1538
      5 C5         -0.6439   -2.5750    1.2500 C.3       1 <0>         0.1048
      6 H1         -1.1509   -2.2290    2.1507 H         1 <0>         0.0514
      7 C6          0.7896   -2.0408    1.2346 C.3       1 <0>        -0.1107
      8 C7          0.7649   -0.5109    1.2478 C.3       1 <0>        -0.0719
      9 H2          0.2551   -0.1654    2.1472 H         1 <0>         0.0705
     10 C8          2.1980    0.0246    1.2337 C.3       1 <0>        -0.1151
     11 C9          2.9125   -0.4598   -0.0295 C.3       1 <0>        -0.1166
     12 C10         2.1671    0.0502   -1.2638 C.3       1 <0>        -0.0746
     13 H3          2.1452    1.1399   -1.2564 H         1 <0>         0.0850
     14 C11         0.7320   -0.4981   -1.2480 C.3       1 <0>        -0.0731
     15 H4          0.7710   -1.5872   -1.2264 H         1 <0>         0.0749
     16 C12        -0.0453   -0.0718   -2.4886 C.3       1 <0>        -0.1199
     17 C13         0.6939   -0.4716   -3.7769 C.3       1 <0>        -0.0973
     18 C14         2.0671    0.1673   -3.7259 C.3       1 <0>        -0.1241
     19 C15         2.8461   -0.4405   -2.5295 C.3       1 <0>        -0.0786
     20 H5          2.8163   -1.5288   -2.5819 H         1 <0>         0.0798
     21 C16         4.2636    0.0930   -2.7725 C.3       1 <0>        -0.1110
     22 C17         4.4120   -0.0355   -4.3132 C.3       1 <0>        -0.1800
     23 C18         2.9760   -0.0803   -4.8930 C.2       1 <0>         0.3772
     24 O1          2.6530   -0.2367   -6.0461 O.2       1 <0>        -0.4381
     25 C19         1.9251    1.6731   -3.4953 C.3       1 <0>        -0.1434
     26 O2         -0.6199   -4.0038    1.2360 O.3       1 <0>        -0.5697
     27 H6          1.0194    1.9039    0.0067 H         1 <0>         0.0630
     28 H7         -0.5342    1.8863   -0.8617 H         1 <0>         0.0575
     29 H8         -0.5093    1.8775    0.9181 H         1 <0>         0.0538
     30 H9         -1.9207   -0.1880    0.9313 H         1 <0>         0.0625
     31 H10        -1.9495   -0.1726   -0.8486 H         1 <0>         0.0695
     32 H11        -2.4134   -2.4452    0.0283 H         1 <0>         0.0617
     33 H12        -0.8857   -2.4129   -0.8845 H         1 <0>         0.0741
     34 H13         1.3217   -2.4031    2.1142 H         1 <0>         0.0667
     35 H14         1.2971   -2.3881    0.3346 H         1 <0>         0.0768
     36 H15         2.1786    1.1144    1.2447 H         1 <0>         0.0677
     37 H16         2.7298   -0.3379    2.1134 H         1 <0>         0.0626
     38 H17         3.9336   -0.0784   -0.0383 H         1 <0>         0.0637
     39 H18         2.9315   -1.5495   -0.0410 H         1 <0>         0.0651
     40 H19        -1.0253   -0.5487   -2.4770 H         1 <0>         0.0659
     41 H20        -0.1760    1.0102   -2.4734 H         1 <0>         0.0704
     42 H21         0.7912   -1.5561   -3.8273 H         1 <0>         0.0647
     43 H22         0.1473   -0.1066   -4.6465 H         1 <0>         0.0693
     44 H23         4.3438    1.1346   -2.4614 H         1 <0>         0.0780
     45 H24         5.0022   -0.5232   -2.2598 H         1 <0>         0.0775
     46 H25         4.9746    0.8115   -4.7059 H         1 <0>         0.0983
     47 H26         4.9176   -0.9682   -4.5631 H         1 <0>         0.0926
     48 H27         1.3281    1.8490   -2.6005 H         1 <0>         0.0821
     49 H28         2.9128    2.1156   -3.3658 H         1 <0>         0.0626
     50 H29         1.4334    2.1276   -4.3554 H         1 <0>         0.0571
     51 H30        -1.4964   -4.4120    1.2449 H         1 <0>         0.3773
@<TRIPOS>BOND
     1    1    2 1
     2    1   27 1
     3    1   28 1
     4    1   29 1
     5    2    8 1
     6    2   14 1
     7    2    3 1
     8    3    4 1
     9    3   30 1
    10    3   31 1
    11    4    5 1
    12    4   32 1
    13    4   33 1
    14    5    6 1
    15    5    7 1
    16    5   26 1
    17    7    8 1
    18    7   34 1
    19    7   35 1
    20    8    9 1
    21    8   10 1
    22   10   11 1
    23   10   36 1
    24   10   37 1
    25   11   12 1
    26   11   38 1
    27   11   39 1
    28   12   13 1
    29   12   19 1
    30   12   14 1
    31   14   15 1
    32   14   16 1
    33   16   17 1
    34   16   40 1
    35   16   41 1
    36   17   18 1
    37   17   42 1
    38   17   43 1
    39   18   23 1
    40   18   19 1
    41   18   25 1
    42   19   20 1
    43   19   21 1
    44   21   22 1
    45   21   44 1
    46   21   45 1
    47   22   23 1
    48   22   46 1
    49   22   47 1
    50   23   24 2
    51   25   48 1
    52   25   49 1
    53   25   50 1
    54   26   51 1
@<TRIPOS>MOLECULE
ZINC03861550
   51    54     0     0     0
SMALL
USER_CHARGES

@<TRIPOS>ATOM
      1 C1          0.0008    1.5258    0.0212 C.3       1 <0>        -0.1534
      2 C2          0.0228   -0.0040    0.0134 C.3       1 <0>        -0.0433
      3 C3         -1.4120   -0.5354    0.0326 C.3       1 <0>        -0.1058
      4 C4         -2.1211   -0.0467    1.2971 C.3       1 <0>        -0.1546
      5 C5         -1.3727   -0.5559    2.5307 C.3       1 <0>         0.1050
      6 H1         -1.8782   -0.2082    3.4316 H         1 <0>         0.0508
      7 C6          0.0613   -0.0228    2.5122 C.3       1 <0>        -0.1097
      8 C7          0.7701   -0.5102    1.2491 C.3       1 <0>        -0.0687
      9 H2          0.7878   -1.6000    1.2414 H         1 <0>         0.0774
     10 C8          2.2046    0.0211    1.2325 C.3       1 <0>        -0.1180
     11 C9          2.9157   -0.4668   -0.0314 C.3       1 <0>        -0.1126
     12 C10         2.1706    0.0454   -1.2648 C.3       1 <0>        -0.0743
     13 H3          2.1526    1.1353   -1.2579 H         1 <0>         0.0847
     14 C11         0.7334   -0.4977   -1.2475 C.3       1 <0>        -0.0681
     15 H4          0.7685   -1.5870   -1.2284 H         1 <0>         0.0666
     16 C12        -0.0433   -0.0661   -2.4868 C.3       1 <0>        -0.1193
     17 C13         0.6921   -0.4679   -3.7764 C.3       1 <0>        -0.0973
     18 C14         2.0689    0.1634   -3.7269 C.3       1 <0>        -0.1243
     19 C15         2.8458   -0.4483   -2.5312 C.3       1 <0>        -0.0787
     20 H5          2.8101   -1.5365   -2.5838 H         1 <0>         0.0800
     21 C16         4.2661    0.0771   -2.7756 C.3       1 <0>        -0.1110
     22 C17         4.4122   -0.0523   -4.3164 C.3       1 <0>        -0.1799
     23 C18         2.9753   -0.0894   -4.8949 C.2       1 <0>         0.3773
     24 O1          2.6502   -0.2438   -6.0477 O.2       1 <0>        -0.4383
     25 C19         1.9355    1.6700   -3.4964 C.3       1 <0>        -0.1434
     26 O2         -1.3503   -1.9847    2.5183 O.3       1 <0>        -0.5631
     27 H6          1.0230    1.9040    0.0077 H         1 <0>         0.0607
     28 H7         -0.5315    1.8860   -0.8591 H         1 <0>         0.0551
     29 H8         -0.5047    1.8774    0.9207 H         1 <0>         0.0575
     30 H9         -1.9454   -0.1727   -0.8461 H         1 <0>         0.0630
     31 H10        -1.3959   -1.6252    0.0234 H         1 <0>         0.0670
     32 H11        -2.1375    1.0431    1.3063 H         1 <0>         0.0734
     33 H12        -3.1430   -0.4256    1.3100 H         1 <0>         0.0616
     34 H13         0.0440    1.0671    2.5206 H         1 <0>         0.0762
     35 H14         0.5948   -0.3845    3.3913 H         1 <0>         0.0667
     36 H15         2.1884    1.1109    1.2424 H         1 <0>         0.0637
     37 H16         2.7366   -0.3421    2.1118 H         1 <0>         0.0604
     38 H17         3.9382   -0.0893   -0.0417 H         1 <0>         0.0630
     39 H18         2.9305   -1.5567   -0.0423 H         1 <0>         0.0612
     40 H19        -1.0257   -0.5381   -2.4745 H         1 <0>         0.0658
     41 H20        -0.1687    1.0166   -2.4701 H         1 <0>         0.0702
     42 H21         0.7835   -1.5528   -3.8284 H         1 <0>         0.0649
     43 H22         0.1463   -0.0989   -4.6448 H         1 <0>         0.0691
     44 H23         4.3524    1.1182   -2.4646 H         1 <0>         0.0778
     45 H24         5.0017   -0.5433   -2.2635 H         1 <0>         0.0775
     46 H25         4.9795    0.7913   -4.7097 H         1 <0>         0.0982
     47 H26         4.9121   -0.9880   -4.5668 H         1 <0>         0.0925
     48 H27         1.3394    1.8493   -2.6016 H         1 <0>         0.0821
     49 H28         2.9257    2.1068   -3.3669 H         1 <0>         0.0625
     50 H29         1.4464    2.1273   -4.3565 H         1 <0>         0.0570
     51 H30        -2.2272   -2.3920    2.5283 H         1 <0>         0.3749
@<TRIPOS>BOND
     1    1    2 1
     2    1   27 1
     3    1   28 1
     4    1   29 1
     5    2    8 1
     6    2   14 1
     7    2    3 1
     8    3    4 1
     9    3   30 1
    10    3   31 1
    11    4    5 1
    12    4   32 1
    13    4   33 1
    14    5    6 1
    15    5    7 1
    16    5   26 1
    17    7    8 1
    18    7   34 1
    19    7   35 1
    20    8    9 1
    21    8   10 1
    22   10   11 1
    23   10   36 1
    24   10   37 1
    25   11   12 1
    26   11   38 1
    27   11   39 1
    28   12   13 1
    29   12   19 1
    30   12   14 1
    31   14   15 1
    32   14   16 1
    33   16   17 1
    34   16   40 1
    35   16   41 1
    36   17   18 1
    37   17   42 1
    38   17   43 1
    39   18   23 1
    40   18   19 1
    41   18   25 1
    42   19   20 1
    43   19   21 1
    44   21   22 1
    45   21   44 1
    46   21   45 1
    47   22   23 1
    48   22   46 1
    49   22   47 1
    50   23   24 2
    51   25   48 1
    52   25   49 1
    53   25   50 1
    54   26   51 1
@<TRIPOS>MOLECULE
ZINC00003876
   44    46     0     0     0
SMALL
USER_CHARGES

@<TRIPOS>ATOM
      1 C1         -0.9117    1.3819    0.8050 C.3       1 <0>        -0.1169
      2 C2         -0.6965   -0.0986    0.6235 C.ar      1 <0>        -0.0790
      3 C3          0.5861   -0.6161    0.6437 C.ar      1 <0>        -0.1207
      4 C4          0.7890   -1.9712    0.4780 C.ar      1 <0>        -0.0987
      5 C5         -0.3012   -2.8184    0.2904 C.ar      1 <0>        -0.0178
      6 C6         -1.5911   -2.2918    0.2714 C.ar      1 <0>        -0.0819
      7 C7         -1.7827   -0.9357    0.4429 C.ar      1 <0>        -0.1210
      8 C8         -0.0893   -4.2762    0.1112 C.2       1 <0>         0.1167
      9 C9          0.7803   -5.0491    0.8198 C.2       1 <0>        -0.0371
     10 N1          0.6641   -6.3246    0.3429 N.pl3     1 <0>        -0.3454
     11 C10         1.2856   -7.4928    0.6792 C.2       1 <0>         0.0517
     12 C11         0.9826   -8.6418    0.0396 C.2       1 <0>        -0.1050
     13 C12         0.0205   -8.6507   -0.9840 C.2       1 <0>        -0.0971
     14 C13        -0.6066   -7.4944   -1.3295 C.2       1 <0>        -0.0747
     15 C14        -0.2794   -6.3016   -0.6521 C.2       1 <0>         0.2302
     16 N2         -0.7258   -5.0604   -0.7732 N.2       1 <0>        -0.4775
     17 C15         1.6798   -9.9210    0.4248 C.3       1 <0>        -0.1052
     18 C16         1.6977   -4.5850    1.9216 C.3       1 <0>        -0.0616
     19 C17         3.0613   -4.2930    1.3502 C.2       1 <0>         0.5079
     20 O1          3.2678   -4.4466    0.1650 O.2       1 <0>        -0.5213
     21 N3          4.0514   -3.8612    2.1563 N.am      1 <0>        -0.6226
     22 C18         5.3769   -3.5773    1.6009 C.3       1 <0>         0.0837
     23 C19         3.8020   -3.6756    3.5880 C.3       1 <0>         0.0707
     24 H1         -1.0291    1.6046    1.8655 H         1 <0>         0.0717
     25 H2         -0.0517    1.9248    0.4128 H         1 <0>         0.0669
     26 H3         -1.8098    1.6870    0.2680 H         1 <0>         0.0678
     27 H4          1.4304    0.0415    0.7891 H         1 <0>         0.1238
     28 H5          1.7909   -2.3741    0.4932 H         1 <0>         0.1195
     29 H6         -2.4397   -2.9440    0.1264 H         1 <0>         0.1276
     30 H7         -2.7824   -0.5270    0.4324 H         1 <0>         0.1260
     31 H8          2.0271   -7.4974    1.4645 H         1 <0>         0.1559
     32 H9         -0.2198   -9.5716   -1.4945 H         1 <0>         0.1447
     33 H10        -1.3475   -7.4896   -2.1152 H         1 <0>         0.1539
     34 H11         1.1134  -10.4213    1.2103 H         1 <0>         0.0768
     35 H12         1.7486  -10.5737   -0.4455 H         1 <0>         0.0766
     36 H13         2.6819   -9.6934    0.7883 H         1 <0>         0.0691
     37 H14         1.2925   -3.6804    2.3750 H         1 <0>         0.1217
     38 H15         1.7804   -5.3652    2.6783 H         1 <0>         0.1017
     39 H16         5.4240   -2.5342    1.2880 H         1 <0>         0.0572
     40 H17         6.1365   -3.7635    2.3601 H         1 <0>         0.0719
     41 H18         5.5565   -4.2229    0.7412 H         1 <0>         0.0766
     42 H19         2.7674   -3.9347    3.8131 H         1 <0>         0.0792
     43 H20         4.4704   -4.3194    4.1596 H         1 <0>         0.0662
     44 H21         3.9825   -2.6347    3.8563 H         1 <0>         0.0678
@<TRIPOS>BOND
     1    1    2 1
     2    1   24 1
     3    1   25 1
     4    1   26 1
     5    2    7 ar
     6    2    3 ar
     7    3    4 ar
     8    3   27 1
     9    4    5 ar
    10    4   28 1
    11    5    6 ar
    12    5    8 1
    13    6    7 ar
    14    6   29 1
    15    7   30 1
    16    8   16 1
    17    8    9 2
    18    9   10 1
    19    9   18 1
    20   10   15 1
    21   10   11 1
    22   11   12 2
    23   11   31 1
    24   12   13 1
    25   12   17 1
    26   13   14 2
    27   13   32 1
    28   14   15 1
    29   14   33 1
    30   15   16 2
    31   17   34 1
    32   17   35 1
    33   17   36 1
    34   18   19 1
    35   18   37 1
    36   18   38 1
    37   19   20 2
    38   19   21 am
    39   21   22 1
    40   21   23 1
    41   22   39 1
    42   22   40 1
    43   22   41 1
    44   23   42 1
    45   23   43 1
    46   23   44 1
@<TRIPOS>MOLECULE
ZINC00003876
   45    47     0     0     0
SMALL
USER_CHARGES

@<TRIPOS>ATOM
      1 C1         -0.0184    1.5028    0.0103 C.3       1 <0>        -0.1298
      2 C2          0.0021   -0.0041    0.0020 C.ar      1 <0>        -0.0415
      3 C3          0.0057   -0.6865   -1.2011 C.ar      1 <0>        -0.1156
      4 C4          0.0244   -2.0665   -1.2146 C.ar      1 <0>        -0.0824
      5 C5          0.0401   -2.7722   -0.0132 C.ar      1 <0>        -0.0858
      6 C6          0.0368   -2.0796    1.1958 C.ar      1 <0>        -0.0737
      7 C7          0.0229   -0.6995    1.1975 C.ar      1 <0>        -0.1157
      8 C8          0.0597   -4.2561   -0.0214 C.2       1 <0>         0.1702
      9 C9         -0.7101   -5.0684    0.7552 C.2       1 <0>         0.0252
     10 N1         -0.3822   -6.3565    0.4370 N.pl3     1 <0>        -0.3091
     11 C10        -0.8325   -7.5609    0.8964 C.2       1 <0>         0.0725
     12 C11        -0.3332   -8.7143    0.4052 C.2       1 <0>        -0.0702
     13 C12         0.6596   -8.6908   -0.5884 C.2       1 <0>        -0.0204
     14 C13         1.1176   -7.4983   -1.0553 C.2       1 <0>        -0.1164
     15 C14         0.5863   -6.3013   -0.5324 C.cat     1 <0>         0.3049
     16 N2          0.8350   -5.0279   -0.7995 N.pl3     1 <0>        -0.5016
     17 C15        -0.8427  -10.0338    0.9253 C.3       1 <0>        -0.1221
     18 C16        -1.7306   -4.6296    1.7735 C.3       1 <0>        -0.0775
     19 C17        -1.0655   -4.4753    3.1170 C.2       1 <0>         0.5078
     20 O1          0.1204   -4.6997    3.2358 O.2       1 <0>        -0.5296
     21 N3         -1.7885   -4.0881    4.1864 N.am      1 <0>        -0.6101
     22 C18        -1.1420   -3.9381    5.4924 C.3       1 <0>         0.0789
     23 C19        -3.2211   -3.8170    4.0429 C.3       1 <0>         0.0651
     24 H1          1.0042    1.8801    0.0026 H         1 <0>         0.0833
     25 H2         -0.5455    1.8639   -0.8728 H         1 <0>         0.0766
     26 H3         -0.5286    1.8543    0.9071 H         1 <0>         0.0762
     27 H4         -0.0064   -0.1385   -2.1317 H         1 <0>         0.1390
     28 H5          0.0266   -2.5984   -2.1545 H         1 <0>         0.1289
     29 H6          0.0488   -2.6217    2.1299 H         1 <0>         0.1324
     30 H7          0.0244   -0.1616    2.1340 H         1 <0>         0.1378
     31 H8         -1.5953   -7.5907    1.6603 H         1 <0>         0.1924
     32 H9          1.0577   -9.6154   -0.9795 H         1 <0>         0.1759
     33 H10         1.8809   -7.4684   -1.8188 H         1 <0>         0.1817
     34 H11        -1.6926  -10.3574    0.3245 H         1 <0>         0.0964
     35 H12        -0.0496  -10.7791    0.8641 H         1 <0>         0.0930
     36 H13        -1.1542   -9.9192    1.9635 H         1 <0>         0.0856
     37 H14        -2.1604   -3.6752    1.4692 H         1 <0>         0.1397
     38 H15        -2.5200   -5.3780    1.8427 H         1 <0>         0.1237
     39 H16        -0.7740   -2.9178    5.6007 H         1 <0>         0.0640
     40 H17        -1.8635   -4.1498    6.2815 H         1 <0>         0.0798
     41 H18        -0.3073   -4.6352    5.5668 H         1 <0>         0.0805
     42 H19        -3.7840   -4.7329    4.2229 H         1 <0>         0.0675
     43 H20        -3.5214   -3.0581    4.7652 H         1 <0>         0.0860
     44 H21        -3.4237   -3.4585    3.0337 H         1 <0>         0.0751
     45 H22         1.4768   -4.7047   -1.4511 H         1 <0>         0.4614
@<TRIPOS>BOND
     1    1    2 1
     2    1   24 1
     3    1   25 1
     4    1   26 1
     5    2    7 ar
     6    2    3 ar
     7    3    4 ar
     8    3   27 1
     9    4    5 ar
    10    4   28 1
    11    5    6 ar
    12    5    8 1
    13    6    7 ar
    14    6   29 1
    15    7   30 1
    16    8   16 1
    17    8    9 2
    18    9   10 1
    19    9   18 1
    20   10   15 1
    21   10   11 1
    22   11   12 2
    23   11   31 1
    24   12   13 1
    25   12   17 1
    26   13   14 2
    27   13   32 1
    28   14   15 1
    29   14   33 1
    30   15   16 2
    31   16   45 1
    32   17   34 1
    33   17   35 1
    34   17   36 1
    35   18   19 1
    36   18   37 1
    37   18   38 1
    38   19   20 2
    39   19   21 am
    40   21   22 1
    41   21   23 1
    42   22   39 1
    43   22   40 1
    44   22   41 1
    45   23   42 1
    46   23   43 1
    47   23   44 1
