@<TRIPOS>MOLECULE
ZINC02086480
   49    51     0     0     0
SMALL
USER_CHARGES
3-(2,6-dichlorophenyl)-N-(4-diethylaminophenyl)-5-methyl-isoxazole-4-carboxamide
@<TRIPOS>ATOM
      1 C1         -9.8063    4.7648    1.1642 C.3       1 <0>        -0.1735
      2 C2         -9.0587    3.4854    0.7834 C.3       1 <0>         0.1189
      3 N1         -8.4137    3.6661   -0.5195 N.pl3     1 <0>        -0.6280
      4 C3         -9.1333    3.3191   -1.7475 C.3       1 <0>         0.1181
      5 C4         -8.8607    1.8560   -2.1023 C.3       1 <0>        -0.1727
      6 C5         -7.1105    4.1700   -0.5910 C.ar      1 <0>         0.2098
      7 C6         -6.4990    4.3414   -1.8261 C.ar      1 <0>        -0.1783
      8 C7         -5.2131    4.8391   -1.8966 C.ar      1 <0>        -0.0673
      9 C8         -4.5312    5.1684   -0.7326 C.ar      1 <0>         0.0837
     10 C9         -5.1405    4.9918    0.5027 C.ar      1 <0>        -0.0914
     11 C10        -6.4284    4.4994    0.5731 C.ar      1 <0>        -0.1790
     12 N2         -3.2264    5.6735   -0.8042 N.am      1 <0>        -0.6586
     13 C11        -2.8612    6.4520   -1.8419 C.2       1 <0>         0.5994
     14 O1         -3.6866    6.7891   -2.6694 O.2       1 <0>        -0.4913
     15 C12        -1.4629    6.8945   -1.9741 C.2       1 <0>        -0.2332
     16 C13        -0.4541    6.3330   -2.7155 C.2       1 <0>         0.0270
     17 O2          0.6294    7.0872   -2.5168 O.3       1 <0>         0.1133
     18 N3          0.4347    8.0200   -1.7766 N.2       1 <0>        -0.3196
     19 C14        -0.7992    8.0537   -1.3411 C.2       1 <0>         0.0853
     20 C15        -1.4025    9.0444   -0.4176 C.ar      1 <0>        -0.0166
     21 C16        -0.8638    9.2342    0.8550 C.ar      1 <0>        -0.0011
     22 C17        -1.4303   10.1591    1.7106 C.ar      1 <0>        -0.1090
     23 C18        -2.5288   10.8964    1.3075 C.ar      1 <0>        -0.0779
     24 C19        -3.0709   10.7091    0.0490 C.ar      1 <0>        -0.1073
     25 C20        -2.5108    9.7908   -0.8178 C.ar      1 <0>        -0.0063
     26 Cl1        -3.1882    9.5623   -2.3998 Cl        1 <0>        -0.0215
     27 Cl2         0.5157    8.3106    1.3623 Cl        1 <0>        -0.0413
     28 C21        -0.5506    5.1057   -3.5848 C.3       1 <0>        -0.0811
     29 H1        -10.2862    4.6303    2.1336 H         1 <0>         0.0637
     30 H2         -9.1017    5.5946    1.2196 H         1 <0>         0.0586
     31 H3        -10.5637    4.9810    0.4107 H         1 <0>         0.0558
     32 H4         -9.7634    2.6556    0.7280 H         1 <0>         0.0729
     33 H5         -8.3014    3.2692    1.5369 H         1 <0>         0.0748
     34 H6        -10.2029    3.4628   -1.5948 H         1 <0>         0.0728
     35 H7         -8.7932    3.9597   -2.5612 H         1 <0>         0.0754
     36 H8         -7.7911    1.7124   -2.2550 H         1 <0>         0.0586
     37 H9         -9.2008    1.2154   -1.2886 H         1 <0>         0.0556
     38 H10        -9.3961    1.5979   -3.0160 H         1 <0>         0.0639
     39 H11        -7.0291    4.0850   -2.7314 H         1 <0>         0.1253
     40 H12        -4.7377    4.9727   -2.8570 H         1 <0>         0.1324
     41 H13        -4.6085    5.2438    1.4082 H         1 <0>         0.1228
     42 H14        -6.9039    4.3662    1.5337 H         1 <0>         0.1259
     43 H15        -2.5859    5.4628   -0.1069 H         1 <0>         0.4088
     44 H16        -1.0142   10.3071    2.6961 H         1 <0>         0.1476
     45 H17        -2.9681   11.6183    1.9801 H         1 <0>         0.1488
     46 H18        -3.9315   11.2848   -0.2582 H         1 <0>         0.1474
     47 H19        -0.8354    5.3978   -4.5955 H         1 <0>         0.0997
     48 H20         0.4157    4.6021   -3.6108 H         1 <0>         0.0949
     49 H21        -1.3018    4.4296   -3.1766 H         1 <0>         0.0937
@<TRIPOS>BOND
     1    1    2 1
     2    1   29 1
     3    1   30 1
     4    1   31 1
     5    2    3 1
     6    2   32 1
     7    2   33 1
     8    3    4 1
     9    3    6 1
    10    4    5 1
    11    4   34 1
    12    4   35 1
    13    5   36 1
    14    5   37 1
    15    5   38 1
    16    6   11 ar
    17    6    7 ar
    18    7    8 ar
    19    7   39 1
    20    8    9 ar
    21    8   40 1
    22    9   10 ar
    23    9   12 1
    24   10   11 ar
    25   10   41 1
    26   11   42 1
    27   12   13 am
    28   12   43 1
    29   13   14 2
    30   13   15 1
    31   15   19 1
    32   15   16 2
    33   16   17 1
    34   16   28 1
    35   17   18 1
    36   18   19 2
    37   19   20 1
    38   20   25 ar
    39   20   21 ar
    40   21   22 ar
    41   21   27 1
    42   22   23 ar
    43   22   44 1
    44   23   24 ar
    45   23   45 1
    46   24   25 ar
    47   24   46 1
    48   25   26 1
    49   28   47 1
    50   28   48 1
    51   28   49 1
