@<TRIPOS>MOLECULE
ZINC19735373
   22    21     0     0     0
SMALL
USER_CHARGES

@<TRIPOS>ATOM
      1 C1         -0.0226    1.8187    0.0120 C.3       1 <0>        -0.7836
      2 P1          0.0021   -0.0041    0.0020 P.3       1 <0>         2.3241
      3 O1          0.7493   -0.5159    1.2537 O.2       1 <0>        -1.0762
      4 C2         -1.7082   -0.6351    0.0149 C.3       1 <0>        -0.7547
      5 C3         -1.6881   -2.1604    0.1323 C.3       1 <0>        -0.0997
      6 C4         -3.1235   -2.6900    0.1431 C.3       1 <0>        -0.0491
      7 H1         -3.6507   -2.3289   -0.7399 H         1 <0>         0.1240
      8 C5         -3.1031   -4.1968    0.1348 C.2       1 <0>         0.4945
      9 O2         -3.4464   -4.8166    1.1270 O.co2     1 <0>        -0.6834
     10 O3         -2.7432   -4.7961   -0.8641 O.co2     1 <0>        -0.6365
     11 N1         -3.8111   -2.2163    1.3517 N.4       1 <0>        -0.6108
     12 O4          0.7253   -0.5023   -1.2691 O.3       1 <0>        -1.0742
     13 H2          0.9999    2.1960    0.0043 H         1 <0>         0.0855
     14 H3         -0.5498    2.1798   -0.8710 H         1 <0>         0.0626
     15 H4         -0.5328    2.1703    0.9088 H         1 <0>         0.0603
     16 H5         -2.2450   -0.2123    0.8642 H         1 <0>         0.0582
     17 H6         -2.2082   -0.3484   -0.9102 H         1 <0>         0.0821
     18 H7         -1.1513   -2.5831   -0.7170 H         1 <0>         0.1189
     19 H8         -1.1881   -2.4471    1.0574 H         1 <0>         0.0929
     20 H9         -4.7577   -2.5655    1.3589 H         1 <0>         0.4233
     21 H10        -3.3231   -2.5505    2.1692 H         1 <0>         0.4315
     22 H11        -3.8248   -1.2074    1.3573 H         1 <0>         0.4104
@<TRIPOS>BOND
     1    1    2 1
     2    1   13 1
     3    1   14 1
     4    1   15 1
     5    2    3 2
     6    2    4 1
     7    2   12 1
     8    4    5 1
     9    4   16 1
    10    4   17 1
    11    5    6 1
    12    5   18 1
    13    5   19 1
    14    6    7 1
    15    6    8 1
    16    6   11 1
    17    8    9 2
    18    8   10 1
    19   11   20 1
    20   11   21 1
    21   11   22 1
@<TRIPOS>MOLECULE
ZINC19735374
   22    21     0     0     0
SMALL
USER_CHARGES
(2S)-2-amino-4-(hydroxy-methyl-phosphoryl)butanoic acid
@<TRIPOS>ATOM
      1 C1          0.0021   -0.0041    0.0020 C.3       1 <0>        -0.7855
      2 P1         -0.0226    1.8187    0.0120 P.3       1 <0>         2.3278
      3 O1         -0.7154    2.2960    1.2297 O.2       1 <0>        -1.0595
      4 C2         -0.9043    2.4226   -1.4649 C.3       1 <0>        -0.7533
      5 C3         -1.0342    3.9455   -1.3942 C.3       1 <0>        -0.1015
      6 C4         -1.7742    4.4523   -2.6337 C.3       1 <0>        -0.0073
      7 H1         -2.7355    3.9324   -2.7584 H         1 <0>         0.1217
      8 C5         -2.0105    5.9352   -2.5063 C.2       1 <0>         0.4597
      9 O2         -1.2864    6.7138   -3.0803 O.co2     1 <0>        -0.6265
     10 O3         -3.0253    6.3911   -1.7553 O.co2     1 <0>        -0.7103
     11 N1         -0.9645    4.1865   -3.8302 N.4       1 <0>        -0.6624
     12 O4          1.4878    2.3760    0.0006 O.3       1 <0>        -1.0913
     13 H2          0.5170   -0.3588   -0.9030 H         1 <0>         0.0606
     14 H3         -1.0299   -0.3848    0.0098 H         1 <0>         0.0624
     15 H4          0.5341   -0.3685    0.8932 H         1 <0>         0.0857
     16 H5         -0.3409    2.1442   -2.3677 H         1 <0>         0.0618
     17 H6         -1.9064    1.9706   -1.5041 H         1 <0>         0.0794
     18 H7         -1.5976    4.2239   -0.4914 H         1 <0>         0.1199
     19 H8         -0.0322    4.3976   -1.3550 H         1 <0>         0.0931
     20 H9         -1.4966    4.5509   -4.7213 H         1 <0>         0.4412
     21 H10        -0.7920    3.1041   -3.9232 H         1 <0>         0.4318
     22 H11         0.0013    4.7055   -3.7420 H         1 <0>         0.4524
@<TRIPOS>BOND
     1    1    2 1
     2    1   13 1
     3    1   14 1
     4    1   15 1
     5    2    3 2
     6    2    4 1
     7    2   12 1
     8    4    5 1
     9    4   16 1
    10    4   17 1
    11    5    6 1
    12    5   18 1
    13    5   19 1
    14    6    7 1
    15    6    8 1
    16    6   11 1
    17    8    9 2
    18    8   10 1
    19   11   20 1
    20   11   21 1
    21   11   22 1
