@<TRIPOS>MOLECULE
ZINC04658552
   10     9     0     0     0
SMALL
USER_CHARGES

@<TRIPOS>ATOM
      1 C1         -0.0184    1.5028    0.0103 C.3       1 <0>        -0.0856
      2 C2          0.0021   -0.0041    0.0020 C.2       1 <0>         0.4796
      3 O1          1.0661   -0.5992   -0.0113 O.co2     1 <0>        -0.6772
      4 O2         -1.0454   -0.6280    0.0087 O.co2     1 <0>        -0.6399
      5 N1          1.3598    2.0112   -0.0001 N.4       1 <0>        -0.6124
      6 H1         -0.5455    1.8639   -0.8728 H         1 <0>         0.1272
      7 H2         -0.5286    1.8543    0.9071 H         1 <0>         0.1272
      8 H3          1.8478    1.6770    0.8173 H         1 <0>         0.4322
      9 H4          1.8321    1.6858   -0.8303 H         1 <0>         0.4322
     10 H5          1.3461    3.0201    0.0054 H         1 <0>         0.4167
@<TRIPOS>BOND
     1    1    2 1
     2    1    5 1
     3    1    6 1
     4    1    7 1
     5    2    3 2
     6    2    4 1
     7    5    8 1
     8    5    9 1
     9    5   10 1
