@<TRIPOS>MOLECULE
ZINC06716969
   61    64     0     0     0
SMALL
USER_CHARGES
3-(2-amino-2-phenyl-ethyl)-1-[(2,6-difluorophenyl)methyl]-5-(2-fluoro-3-methoxy-phenyl)-6-methyl-pyrimidine-2,4-dione
@<TRIPOS>ATOM
      1 C1         -2.2959    4.3007   -0.3759 C.3       1 <0>        -0.1440
      2 C2         -1.0623    3.4632   -0.1568 C.2       1 <0>         0.2414
      3 C3         -1.1622    2.1079   -0.0500 C.2       1 <0>        -0.2390
      4 C4          0.0668    1.3336    0.1681 C.2       1 <0>         0.5474
      5 O1          0.0263    0.1216    0.2739 O.2       1 <0>        -0.5034
      6 N1          1.2425    1.9921    0.2431 N.am      1 <0>        -0.5731
      7 C5          1.2791    3.3310    0.1244 C.2       1 <0>         0.6861
      8 O2          2.3506    3.9014    0.1951 O.2       1 <0>        -0.4980
      9 N2          0.1654    4.0558   -0.0697 N.am      1 <0>        -0.5177
     10 C6          0.2693    5.5120   -0.1911 C.3       1 <0>         0.1449
     11 C7          0.4413    5.8843   -1.6412 C.ar      1 <0>        -0.2041
     12 C8          1.6925    5.8181   -2.2295 C.ar      1 <0>         0.1500
     13 C9          1.8482    6.1545   -3.5638 C.ar      1 <0>        -0.1682
     14 C10         0.7572    6.5679   -4.3046 C.ar      1 <0>        -0.0421
     15 C11        -0.4915    6.6398   -3.7167 C.ar      1 <0>        -0.1621
     16 C12        -0.6508    6.2980   -2.3843 C.ar      1 <0>         0.1483
     17 F1         -1.8716    6.3679   -1.8100 F         1 <0>        -0.1217
     18 F2          2.7603    5.4203   -1.5038 F         1 <0>        -0.1080
     19 C13         2.4846    1.2447    0.4544 C.3       1 <0>         0.0904
     20 C14         3.0812    0.8539   -0.8991 C.3       1 <0>         0.0789
     21 H1          3.3745    1.7535   -1.4403 H         1 <0>         0.1530
     22 C15         4.2907   -0.0185   -0.6819 C.ar      1 <0>        -0.1459
     23 C16         4.1319   -1.3618   -0.3970 C.ar      1 <0>        -0.1156
     24 C17         5.2414   -2.1629   -0.2021 C.ar      1 <0>        -0.1046
     25 C18         6.5096   -1.6187   -0.2826 C.ar      1 <0>        -0.0852
     26 C19         6.6683   -0.2744   -0.5628 C.ar      1 <0>        -0.1062
     27 C20         5.5589    0.5258   -0.7620 C.ar      1 <0>        -0.0796
     28 C21        -2.4792    1.4328   -0.1457 C.ar      1 <0>        -0.0193
     29 C22        -3.1012    1.2854   -1.3849 C.ar      1 <0>        -0.1157
     30 C23        -4.3265    0.6564   -1.4714 C.ar      1 <0>        -0.0840
     31 C24        -4.9415    0.1705   -0.3318 C.ar      1 <0>        -0.1716
     32 C25        -4.3306    0.3119    0.9056 C.ar      1 <0>         0.1022
     33 C26        -3.0968    0.9384    1.0024 C.ar      1 <0>         0.0923
     34 F3         -2.4976    1.0731    2.2058 F         1 <0>        -0.1252
     35 O3         -4.9388   -0.1681    2.0228 O.3       1 <0>        -0.3072
     36 C27        -6.2053   -0.8065    1.8485 C.3       1 <0>         0.0235
     37 H2         -2.4655    4.4248   -1.4454 H         1 <0>         0.1121
     38 H3         -3.1563    3.8047    0.0733 H         1 <0>         0.1042
     39 H4         -2.1581    5.2783    0.0859 H         1 <0>         0.0972
     40 H5         -0.6379    5.9746    0.1977 H         1 <0>         0.1239
     41 H6          1.1293    5.8637    0.3788 H         1 <0>         0.1283
     42 H7          2.8234    6.0980   -4.0244 H         1 <0>         0.1479
     43 H8          0.8805    6.8346   -5.3439 H         1 <0>         0.1513
     44 H9         -1.3434    6.9629   -4.2966 H         1 <0>         0.1516
     45 H10         3.1950    1.8670    0.9986 H         1 <0>         0.1484
     46 H11         2.2733    0.3447    1.0318 H         1 <0>         0.1304
     47 H12         3.1410   -1.7861   -0.3300 H         1 <0>         0.1232
     48 H13         5.1174   -3.2133    0.0165 H         1 <0>         0.1376
     49 H14         7.3764   -2.2439   -0.1270 H         1 <0>         0.1375
     50 H15         7.6591    0.1508   -0.6258 H         1 <0>         0.1391
     51 H16         5.6829    1.5762   -0.9806 H         1 <0>         0.1367
     52 H17         2.4273   -0.0968   -2.6041 H         1 <0>         0.4410
     53 H18         1.7915   -0.7223   -1.2004 H         1 <0>         0.4406
     54 H19        -2.6242    1.6637   -2.2770 H         1 <0>         0.1325
     55 H20        -4.8065    0.5428   -2.4321 H         1 <0>         0.1392
     56 H21        -5.9004   -0.3208   -0.4057 H         1 <0>         0.1436
     57 H22        -6.5792   -1.1421    2.8158 H         1 <0>         0.1087
     58 H23        -6.9111   -0.1003    1.4113 H         1 <0>         0.0619
     59 H24        -6.0917   -1.6642    1.1855 H         1 <0>         0.0609
     60 N3          2.0613    0.1339   -1.6819 N.4       1 <0>        -0.6436
     61 H25         1.2340    0.7324   -1.7899 H         1 <0>         0.4290
@<TRIPOS>BOND
     1    1    2 1
     2    1   37 1
     3    1   38 1
     4    1   39 1
     5    2    9 1
     6    2    3 2
     7    3    4 1
     8    3   28 1
     9    4    5 2
    10    4    6 am
    11    6    7 am
    12    6   19 1
    13    7    8 2
    14    7    9 am
    15    9   10 1
    16   10   11 1
    17   10   40 1
    18   10   41 1
    19   11   16 ar
    20   11   12 ar
    21   12   13 ar
    22   12   18 1
    23   13   14 ar
    24   13   42 1
    25   14   15 ar
    26   14   43 1
    27   15   16 ar
    28   15   44 1
    29   16   17 1
    30   19   20 1
    31   19   45 1
    32   19   46 1
    33   20   21 1
    34   20   22 1
    35   20   60 1
    36   22   27 ar
    37   22   23 ar
    38   23   24 ar
    39   23   47 1
    40   24   25 ar
    41   24   48 1
    42   25   26 ar
    43   25   49 1
    44   26   27 ar
    45   26   50 1
    46   27   51 1
    47   28   33 ar
    48   28   29 ar
    49   29   30 ar
    50   29   54 1
    51   30   31 ar
    52   30   55 1
    53   31   32 ar
    54   31   56 1
    55   32   33 ar
    56   32   35 1
    57   33   34 1
    58   35   36 1
    59   36   57 1
    60   36   58 1
    61   36   59 1
    62   52   60 1
    63   53   60 1
    64   60   61 1
@<TRIPOS>MOLECULE
ZINC04424097
   85    89     0     0     0
SMALL
USER_CHARGES
isopropyl 9-[(benzyl-methyl-amino)methyl]-5-[(2,6-difluorophenyl)methyl]-8-[4-(2-methylpropanoylamino)phenyl]-2-oxo-7-thia-5-azabicyclo[4.3.0]nona-3,8,10-triene-3-carboxylate
@<TRIPOS>ATOM
      1 C1         -5.0797    1.9357    1.2943 C.3       1 <0>        -0.1370
      2 C2         -4.4826    1.9299   -0.1144 C.3       1 <0>        -0.1141
      3 C3         -4.7815    3.2644   -0.8005 C.3       1 <0>        -0.1486
      4 C4         -2.9911    1.7331   -0.0270 C.2       1 <0>         0.5211
      5 O1         -2.4581    1.6095    1.0555 O.2       1 <0>        -0.5124
      6 N1         -2.2494    1.6943   -1.1516 N.am      1 <0>        -0.6786
      7 C5         -0.8826    1.4060   -1.0785 C.ar      1 <0>         0.1785
      8 C6         -0.4108    0.5231   -0.1142 C.ar      1 <0>        -0.1156
      9 C7          0.9358    0.2402   -0.0365 C.ar      1 <0>        -0.0717
     10 C8          1.8251    0.8338   -0.9344 C.ar      1 <0>        -0.0590
     11 C9          1.3472    1.7165   -1.9049 C.ar      1 <0>        -0.0774
     12 C10        -0.0000    1.9990   -1.9736 C.ar      1 <0>        -0.1423
     13 C11         3.2693    0.5288   -0.8574 C.2       1 <0>        -0.0979
     14 C12         4.3162    1.3904   -0.8162 C.2       1 <0>        -0.1187
     15 C13         5.6296    0.8923   -0.7384 C.2       1 <0>        -0.2252
     16 C14         6.9002    1.6543   -0.6789 C.2       1 <0>         0.4513
     17 O2          6.9016    2.8743   -0.6881 O.2       1 <0>        -0.4753
     18 C15         8.1554    0.8984   -0.6081 C.2       1 <0>        -0.2923
     19 C16         8.1197   -0.4806   -0.5990 C.2       1 <0>         0.2381
     20 N2          6.9499   -1.1386   -0.6548 N.pl3     1 <0>        -0.4257
     21 C17         5.7551   -0.5029   -0.7209 C.2       1 <0>         0.0803
     22 S1          4.0704   -1.0645   -0.8034 S.3       1 <0>         0.2427
     23 C18         6.9665   -2.6034   -0.6417 C.3       1 <0>         0.1247
     24 C19         6.9204   -3.1190   -2.0570 C.ar      1 <0>        -0.2115
     25 C20         5.7018   -3.3744   -2.6618 C.ar      1 <0>         0.1442
     26 C21         5.6606   -3.8422   -3.9645 C.ar      1 <0>        -0.1560
     27 C22         6.8358   -4.0657   -4.6566 C.ar      1 <0>        -0.0383
     28 C23         8.0533   -3.8164   -4.0518 C.ar      1 <0>        -0.1564
     29 C24         8.0968   -3.3427   -2.7513 C.ar      1 <0>         0.1547
     30 F1          9.2870   -3.0987   -2.1605 F         1 <0>        -0.1216
     31 F2          4.5530   -3.1622   -1.9833 F         1 <0>        -0.1158
     32 C25         9.4425    1.6056   -0.5477 C.2       1 <0>         0.5221
     33 O3          9.4693    2.8209   -0.5564 O.2       1 <0>        -0.4799
     34 O4         10.5933    0.9065   -0.4828 O.3       1 <0>        -0.3597
     35 C26        11.8265    1.6708   -0.4257 C.3       1 <0>         0.0867
     36 C27        12.1856    1.9512    1.0350 C.3       1 <0>        -0.1712
     37 C28        12.9530    0.8712   -1.0833 C.3       1 <0>        -0.1522
     38 C29         4.0727    2.8772   -0.8490 C.3       1 <0>         0.0531
     39 C30         2.8876    2.9997    1.2589 C.3       1 <0>        -0.0486
     40 C31         4.2377    4.8684    0.5188 C.3       1 <0>         0.0489
     41 C32         4.4982    5.3494    1.9230 C.ar      1 <0>        -0.1577
     42 C33         3.4401    5.6939    2.7431 C.ar      1 <0>        -0.0965
     43 C34         3.6789    6.1305    4.0327 C.ar      1 <0>        -0.1171
     44 C35         4.9762    6.2321    4.4990 C.ar      1 <0>        -0.0866
     45 C36         6.0347    5.8930    3.6770 C.ar      1 <0>        -0.1147
     46 C37         5.7956    5.4514    2.3891 C.ar      1 <0>        -0.0891
     47 H1         -4.6392    2.7481    1.8723 H         1 <0>         0.0638
     48 H2         -6.1585    2.0781    1.2311 H         1 <0>         0.0691
     49 H3         -4.8667    0.9850    1.7831 H         1 <0>         0.0642
     50 H4         -4.9230    1.1175   -0.6924 H         1 <0>         0.1055
     51 H5         -5.8603    3.4068   -0.8637 H         1 <0>         0.0768
     52 H6         -4.3411    4.0768   -0.2224 H         1 <0>         0.0632
     53 H7         -4.3561    3.2603   -1.8040 H         1 <0>         0.0593
     54 H8         -2.6634    1.8663   -2.0118 H         1 <0>         0.4170
     55 H9         -1.0998    0.0612    0.5775 H         1 <0>         0.1451
     56 H10         1.3022   -0.4433    0.7151 H         1 <0>         0.1336
     57 H11         2.0324    2.1770   -2.6012 H         1 <0>         0.1343
     58 H12        -0.3704    2.6817   -2.7241 H         1 <0>         0.1380
     59 H13         9.0434   -1.0379   -0.5468 H         1 <0>         0.1957
     60 H14         7.8786   -2.9521   -0.1575 H         1 <0>         0.1335
     61 H15         6.0999   -2.9717   -0.0925 H         1 <0>         0.1194
     62 H16         4.7097   -4.0368   -4.4383 H         1 <0>         0.1530
     63 H17         6.8028   -4.4352   -5.6709 H         1 <0>         0.1550
     64 H18         8.9710   -3.9914   -4.5935 H         1 <0>         0.1542
     65 H19        11.6940    2.6145   -0.9548 H         1 <0>         0.0875
     66 H20        13.1114    2.5249    1.0778 H         1 <0>         0.0790
     67 H21        11.3831    2.5208    1.5035 H         1 <0>         0.0604
     68 H22        12.3181    1.0075    1.5641 H         1 <0>         0.0672
     69 H23        12.6972    0.6714   -2.1239 H         1 <0>         0.0653
     70 H24        13.8788    1.4449   -1.0405 H         1 <0>         0.0829
     71 H25        13.0855   -0.0725   -0.5542 H         1 <0>         0.0692
     72 H26         4.8539    3.3605   -1.4357 H         1 <0>         0.1473
     73 H27         3.1018    3.0765   -1.3026 H         1 <0>         0.1365
     74 H28         2.8437    1.9118    1.3106 H         1 <0>         0.1163
     75 H29         2.9239    3.4102    2.2680 H         1 <0>         0.1214
     76 H30         2.0023    3.3750    0.7456 H         1 <0>         0.1225
     77 H31         5.0736    5.1485   -0.1222 H         1 <0>         0.1393
     78 H32         3.3223    5.3248    0.1423 H         1 <0>         0.1344
     79 H33         2.4267    5.6184    2.3774 H         1 <0>         0.1297
     80 H34         2.8520    6.3958    4.6748 H         1 <0>         0.1340
     81 H35         5.1630    6.5768    5.5053 H         1 <0>         0.1337
     82 H36         7.0483    5.9727    4.0412 H         1 <0>         0.1341
     83 H37         6.6226    5.1864    1.7469 H         1 <0>         0.1351
     84 N3          4.1137    3.3956    0.5346 N.4       1 <0>        -0.3853
     85 H38         4.9286    2.9974    1.0159 H         1 <0>         0.4271
@<TRIPOS>BOND
     1    1    2 1
     2    1   47 1
     3    1   48 1
     4    1   49 1
     5    2    3 1
     6    2    4 1
     7    2   50 1
     8    3   51 1
     9    3   52 1
    10    3   53 1
    11    4    5 2
    12    4    6 am
    13    6    7 1
    14    6   54 1
    15    7   12 ar
    16    7    8 ar
    17    8    9 ar
    18    8   55 1
    19    9   10 ar
    20    9   56 1
    21   10   11 ar
    22   10   13 1
    23   11   12 ar
    24   11   57 1
    25   12   58 1
    26   13   22 1
    27   13   14 2
    28   14   15 1
    29   14   38 1
    30   15   21 2
    31   15   16 1
    32   16   17 2
    33   16   18 1
    34   18   19 2
    35   18   32 1
    36   19   20 1
    37   19   59 1
    38   20   21 1
    39   20   23 1
    40   21   22 1
    41   23   24 1
    42   23   60 1
    43   23   61 1
    44   24   29 ar
    45   24   25 ar
    46   25   26 ar
    47   25   31 1
    48   26   27 ar
    49   26   62 1
    50   27   28 ar
    51   27   63 1
    52   28   29 ar
    53   28   64 1
    54   29   30 1
    55   32   33 2
    56   32   34 1
    57   34   35 1
    58   35   36 1
    59   35   37 1
    60   35   65 1
    61   36   66 1
    62   36   67 1
    63   36   68 1
    64   37   69 1
    65   37   70 1
    66   37   71 1
    67   38   72 1
    68   38   73 1
    69   38   84 1
    70   39   74 1
    71   39   75 1
    72   39   76 1
    73   39   84 1
    74   40   41 1
    75   40   77 1
    76   40   78 1
    77   40   84 1
    78   41   46 ar
    79   41   42 ar
    80   42   43 ar
    81   42   79 1
    82   43   44 ar
    83   43   80 1
    84   44   45 ar
    85   44   81 1
    86   45   46 ar
    87   45   82 1
    88   46   83 1
    89   84   85 1
