@<TRIPOS>MOLECULE
ZINC24632618
   31    31     0     0     0
SMALL
USER_CHARGES

@<TRIPOS>ATOM
      1 C1          0.1871    1.5230    0.3906 C.3       1 <0>        -0.1511
      2 C2         -0.0351    0.0093    0.3781 C.3       1 <0>         0.0012
      3 C3          0.7595   -0.6322    1.5174 C.3       1 <0>        -0.1419
      4 C4         -1.5242   -0.2891    0.5637 C.3       1 <0>        -0.1392
      5 C5          0.4301   -0.5558   -0.9392 C.2       1 <0>         0.0805
      6 C6          1.6467   -0.3837   -1.4862 C.2       1 <0>        -0.3365
      7 C7          1.6753   -1.0741   -2.7176 C.2       1 <0>         0.3551
      8 N1          0.5080   -1.6369   -2.8903 N.2       1 <0>        -0.4444
      9 O1         -0.2958   -1.3231   -1.7673 O.3       1 <0>        -0.1209
     10 O2          2.7283   -1.1412   -3.5711 O.3       1 <0>        -0.7290
     11 C8          2.7812    0.4087   -0.8894 C.3       1 <0>        -0.0366
     12 C9          2.7788    1.8225   -1.4742 C.3       1 <0>        -0.0430
     13 H1          1.7969    2.2735   -1.3304 H         1 <0>         0.1229
     14 C10         3.8217    2.6567   -0.7759 C.2       1 <0>         0.4923
     15 O3          4.9600    2.6987   -1.2106 O.co2     1 <0>        -0.6743
     16 O4          3.5272    3.2895    0.2238 O.co2     1 <0>        -0.6505
     17 N2          3.0832    1.7592   -2.9099 N.4       1 <0>        -0.6032
     18 H2          1.2566    1.7332    0.3931 H         1 <0>         0.0801
     19 H3         -0.2679    1.9644   -0.4961 H         1 <0>         0.0538
     20 H4         -0.2692    1.9499    1.2838 H         1 <0>         0.0658
     21 H5          0.3552   -0.3008    2.4739 H         1 <0>         0.0652
     22 H6          0.6835   -1.7173    1.4473 H         1 <0>         0.0582
     23 H7          1.8057   -0.3356    1.4427 H         1 <0>         0.0654
     24 H8         -2.0903    0.1679   -0.2480 H         1 <0>         0.0587
     25 H9         -1.6825   -1.3676    0.5548 H         1 <0>         0.0603
     26 H10        -1.8607    0.1196    1.5165 H         1 <0>         0.0590
     27 H11         2.6572    0.4626    0.1921 H         1 <0>         0.0973
     28 H12         3.7275   -0.0794   -1.1228 H         1 <0>         0.0833
     29 H13         3.1789    2.6949   -3.2750 H         1 <0>         0.4138
     30 H14         3.9455    1.2541   -3.0489 H         1 <0>         0.4346
     31 H15         2.3342    1.2850   -3.3919 H         1 <0>         0.4228
@<TRIPOS>BOND
     1    1    2 1
     2    1   18 1
     3    1   19 1
     4    1   20 1
     5    2    3 1
     6    2    4 1
     7    2    5 1
     8    3   21 1
     9    3   22 1
    10    3   23 1
    11    4   24 1
    12    4   25 1
    13    4   26 1
    14    5    6 2
    15    5    9 1
    16    6    7 1
    17    6   11 1
    18    7    8 2
    19    7   10 1
    20    8    9 1
    21   11   12 1
    22   11   27 1
    23   11   28 1
    24   12   13 1
    25   12   14 1
    26   12   17 1
    27   14   15 2
    28   14   16 1
    29   17   29 1
    30   17   30 1
    31   17   31 1
@<TRIPOS>MOLECULE
ZINC25725205
   31    31     0     0     0
SMALL
USER_CHARGES

@<TRIPOS>ATOM
      1 C1          0.0047    1.7636   -0.5401 C.3       1 <0>        -0.1419
      2 C2         -0.1312    0.2471   -0.3896 C.3       1 <0>         0.0018
      3 C3          0.5298   -0.1970    0.9168 C.3       1 <0>        -0.1526
      4 C4         -1.6132   -0.1323   -0.3660 C.3       1 <0>        -0.1393
      5 C5          0.5436   -0.4355   -1.5514 C.2       1 <0>         0.0813
      6 C6          1.8631   -0.4298   -1.8120 C.2       1 <0>        -0.3376
      7 C7          2.0813   -1.1833   -2.9861 C.2       1 <0>         0.3541
      8 N1          0.9224   -1.6202   -3.4047 N.2       1 <0>        -0.4437
      9 O1         -0.0671   -1.1594   -2.5024 O.3       1 <0>        -0.1206
     10 O2          3.2817   -1.4130   -3.5759 O.3       1 <0>        -0.7287
     11 C8          2.9237    0.2610   -0.9940 C.3       1 <0>        -0.0361
     12 C9          3.5507   -0.7403   -0.0218 C.3       1 <0>        -0.0436
     13 H1          2.7669   -1.2066    0.5752 H         1 <0>         0.1231
     14 C10         4.5142   -0.0218    0.8873 C.2       1 <0>         0.4947
     15 O3          4.0943    0.7478    1.7346 O.co2     1 <0>        -0.6478
     16 O4          5.7136   -0.2101    0.7755 O.co2     1 <0>        -0.6804
     17 N2          4.2697   -1.7735   -0.7790 N.4       1 <0>        -0.6030
     18 H2          1.0550    2.0439   -0.4608 H         1 <0>         0.0666
     19 H3         -0.3801    2.0680   -1.5135 H         1 <0>         0.0579
     20 H4         -0.5641    2.2592    0.2466 H         1 <0>         0.0652
     21 H5         -0.0449    0.1818    1.7619 H         1 <0>         0.0657
     22 H6          0.5601   -1.2858    0.9569 H         1 <0>         0.0530
     23 H7          1.5452    0.1966    0.9623 H         1 <0>         0.0821
     24 H8         -2.0842    0.1841   -1.2967 H         1 <0>         0.0604
     25 H9         -1.7100   -1.2127   -0.2587 H         1 <0>         0.0585
     26 H10        -2.1013    0.3614    0.4743 H         1 <0>         0.0590
     27 H11         3.6942    0.6553   -1.6566 H         1 <0>         0.0800
     28 H12         2.4736    1.0796   -0.4325 H         1 <0>         0.1018
     29 H13         3.6246   -2.2546   -1.3876 H         1 <0>         0.4240
     30 H14         4.9952   -1.3419   -1.3316 H         1 <0>         0.4319
     31 H15         4.6832   -2.4338   -0.1378 H         1 <0>         0.4144
@<TRIPOS>BOND
     1    1    2 1
     2    1   18 1
     3    1   19 1
     4    1   20 1
     5    2    3 1
     6    2    4 1
     7    2    5 1
     8    3   21 1
     9    3   22 1
    10    3   23 1
    11    4   24 1
    12    4   25 1
    13    4   26 1
    14    5    6 2
    15    5    9 1
    16    6    7 1
    17    6   11 1
    18    7    8 2
    19    7   10 1
    20    8    9 1
    21   11   12 1
    22   11   27 1
    23   11   28 1
    24   12   13 1
    25   12   14 1
    26   12   17 1
    27   14   15 2
    28   14   16 1
    29   17   29 1
    30   17   30 1
    31   17   31 1
@<TRIPOS>MOLECULE
ZINC01891930
   32    34     0     0     0
SMALL
USER_CHARGES
2-(7-imidazol-1-yl-6-nitro-2,3-dioxo-4H-quinoxalin-1-yl)acetic acid
@<TRIPOS>ATOM
      1 C1         -1.6701    0.9262   -6.8867 C.2       1 <0>        -0.0077
      2 C2         -2.1552    0.1187   -5.9244 C.2       1 <0>        -0.0436
      3 N1         -2.4313    0.9127   -4.8416 N.pl3     1 <0>        -0.4266
      4 C3         -2.0938    2.1833   -5.1830 C.2       1 <0>         0.2097
      5 N2         -1.6404    2.1783   -6.4070 N.2       1 <0>        -0.4791
      6 C4         -2.9573    0.4916   -3.6113 C.ar      1 <0>         0.1990
      7 C5         -2.2709    0.7590   -2.4377 C.ar      1 <0>        -0.1135
      8 C6         -2.7936    0.3469   -1.2181 C.ar      1 <0>         0.2169
      9 C7         -4.0063   -0.3452   -1.1814 C.ar      1 <0>         0.1229
     10 C8         -4.6884   -0.6087   -2.3644 C.ar      1 <0>        -0.0467
     11 C9         -4.1667   -0.1929   -3.5713 C.ar      1 <0>        -0.0444
     12 N3         -4.8965   -0.4758   -4.8277 N.pl3     1 <0>         0.0288
     13 O1         -4.9047    0.3470   -5.7257 O.2       1 <0>        -0.1312
     14 O2         -5.4890   -1.5313   -4.9634 O.3       1 <0>        -0.1546
     15 N4         -4.5425   -0.7697    0.0317 N.am      1 <0>        -0.6337
     16 H1         -5.4134   -1.2609    0.0480 H         1 <0>         0.4311
     17 C10        -3.8891   -0.5194    1.1844 C.2       1 <0>         0.5193
     18 O3         -4.3528   -0.8881    2.2449 O.2       1 <0>        -0.4617
     19 C11        -2.5915    0.2143    1.1442 C.2       1 <0>         0.5088
     20 O4         -1.9875    0.4491    2.1716 O.2       1 <0>        -0.4429
     21 N5         -2.0950    0.6139   -0.0440 N.am      1 <0>        -0.4961
     22 C12        -0.8212    1.3356   -0.0990 C.3       1 <0>         0.0434
     23 C13         0.3091    0.3493   -0.2430 C.2       1 <0>         0.4539
     24 O5          0.0747   -0.8349   -0.2944 O.co2     1 <0>        -0.6209
     25 H2         -1.3557    0.6183   -7.8730 H         1 <0>         0.1762
     26 H3         -2.3013   -0.9492   -5.9934 H         1 <0>         0.1690
     27 H4         -2.1850    3.0520   -4.5479 H         1 <0>         0.2112
     28 H5         -1.3315    1.2909   -2.4706 H         1 <0>         0.1719
     29 H6         -5.6285   -1.1395   -2.3378 H         1 <0>         0.1690
     30 H7         -0.6886    1.9088    0.8185 H         1 <0>         0.1133
     31 H8         -0.8238    2.0126   -0.9532 H         1 <0>         0.1025
     32 O6          1.5758    0.7867   -0.3197 O.co2     1 <0>        -0.7445
@<TRIPOS>BOND
     1    1    5 1
     2    1    2 2
     3    1   25 1
     4    2    3 1
     5    2   26 1
     6    3    4 1
     7    3    6 1
     8    4    5 2
     9    4   27 1
    10    6   11 ar
    11    6    7 ar
    12    7    8 ar
    13    7   28 1
    14    8   21 1
    15    8    9 ar
    16    9   10 ar
    17    9   15 1
    18   10   11 ar
    19   10   29 1
    20   11   12 1
    21   12   13 2
    22   12   14 1
    23   15   16 1
    24   15   17 am
    25   17   18 2
    26   17   19 1
    27   19   20 2
    28   19   21 am
    29   21   22 1
    30   22   23 1
    31   22   30 1
    32   22   31 1
    33   23   24 2
    34   23   32 1
@<TRIPOS>MOLECULE
ZINC13766121
   23    23     0     0     0
SMALL
USER_CHARGES
(2S)-2-amino-3-(5-chloro-2,4-dioxo-pyrimidin-1-yl)propanoic acid
@<TRIPOS>ATOM
      1 C1         -0.0205    3.7009    0.0221 C.2       1 <0>         0.1772
      2 C2         -1.1969    3.0377    0.0298 C.2       1 <0>        -0.2070
      3 C3         -1.1894    1.6212    0.0165 C.2       1 <0>         0.5525
      4 O1         -2.2375    1.0010    0.0177 O.2       1 <0>        -0.4731
      5 N1         -0.0111    0.9658    0.0074 N.am      1 <0>        -0.6528
      6 H1          0.0025   -0.0341    0.0061 H         1 <0>         0.4489
      7 C4          1.1469    1.6517   -0.0000 C.2       1 <0>         0.6839
      8 O2          2.2016    1.0468   -0.0137 O.2       1 <0>        -0.5352
      9 N2          1.1542    2.9971    0.0071 N.am      1 <0>        -0.5430
     10 C5          2.4308    3.7159   -0.0007 C.3       1 <0>         0.1059
     11 C6          2.8619    3.9739   -1.4459 C.3       1 <0>        -0.0338
     12 H2          2.1493    4.6465   -1.9231 H         1 <0>         0.1473
     13 C7          4.2313    4.6029   -1.4568 C.2       1 <0>         0.4581
     14 O3          5.2058    3.9249   -1.6817 O.co2     1 <0>        -0.6000
     15 Cl1        -2.6981    3.9094    0.0488 Cl        1 <0>         0.0116
     16 H3         -0.0061    4.7807    0.0274 H         1 <0>         0.1976
     17 H4          2.3154    4.6669    0.5193 H         1 <0>         0.1500
     18 H5          3.1887    3.1159    0.5030 H         1 <0>         0.1316
     19 H6          3.5555    2.0605   -1.7564 H         1 <0>         0.4438
     20 H7          1.9817    2.2916   -2.2419 H         1 <0>         0.4103
     21 O4          4.3685    5.9164   -1.2168 O.co2     1 <0>        -0.6903
     22 N3          2.9096    2.7100   -2.2021 N.4       1 <0>        -0.6245
     23 H8          3.2325    2.9006   -3.1579 H         1 <0>         0.4411
@<TRIPOS>BOND
     1    1    9 1
     2    1    2 2
     3    1   16 1
     4    2    3 1
     5    2   15 1
     6    3    4 2
     7    3    5 am
     8    5    6 1
     9    5    7 am
    10    7    8 2
    11    7    9 am
    12    9   10 1
    13   10   11 1
    14   10   17 1
    15   10   18 1
    16   11   12 1
    17   11   13 1
    18   11   22 1
    19   13   14 2
    20   13   21 1
    21   19   22 1
    22   20   22 1
    23   22   23 1
@<TRIPOS>MOLECULE
ZINC02047688
   23    23     0     0     0
SMALL
USER_CHARGES

@<TRIPOS>ATOM
      1 C1         -0.0165    1.3646    0.0095 C.2       1 <0>         0.1753
      2 C2          1.1476    2.0491    0.0021 C.2       1 <0>        -0.2699
      3 C3          2.3685    1.3317   -0.0134 C.2       1 <0>         0.5567
      4 O1          3.4310    1.9268   -0.0200 O.2       1 <0>        -0.4759
      5 N1          2.3437   -0.0164   -0.0204 N.am      1 <0>        -0.6504
      6 H1          3.1758   -0.5148   -0.0310 H         1 <0>         0.4406
      7 C4          1.1690   -0.6735   -0.0123 C.2       1 <0>         0.6916
      8 O2          1.1624   -1.8894   -0.0183 O.2       1 <0>        -0.5046
      9 N2          0.0021   -0.0041    0.0020 N.am      1 <0>        -0.5458
     10 C5         -1.2606   -0.7469    0.0106 C.3       1 <0>         0.1025
     11 C6         -1.7145   -0.9978   -1.4289 C.3       1 <0>        -0.0669
     12 H2         -0.9985   -1.6517   -1.9268 H         1 <0>         0.1455
     13 C7         -3.0717   -1.6527   -1.4207 C.2       1 <0>         0.4937
     14 O3         -4.0796   -0.9668   -1.4384 O.co2     1 <0>        -0.6570
     15 O4         -3.1619   -2.8683   -1.3964 O.co2     1 <0>        -0.6182
     16 N3         -1.7921    0.2809   -2.1477 N.4       1 <0>        -0.6174
     17 I1          1.1474    4.1441    0.0127 I         1 <0>         0.0553
     18 H3         -0.9574    1.8944    0.0259 H         1 <0>         0.1869
     19 H4         -1.1174   -1.7010    0.5179 H         1 <0>         0.1493
     20 H5         -2.0199   -0.1669    0.5351 H         1 <0>         0.1280
     21 H6         -2.4548    0.8862   -1.6868 H         1 <0>         0.4338
     22 H7         -0.8833    0.7194   -2.1532 H         1 <0>         0.4070
     23 H8         -2.0914    0.1155   -3.0970 H         1 <0>         0.4398
@<TRIPOS>BOND
     1    1    9 1
     2    1    2 2
     3    1   18 1
     4    2    3 1
     5    2   17 1
     6    3    4 2
     7    3    5 am
     8    5    6 1
     9    5    7 am
    10    7    8 2
    11    7    9 am
    12    9   10 1
    13   10   11 1
    14   10   19 1
    15   10   20 1
    16   11   12 1
    17   11   13 1
    18   11   16 1
    19   13   14 2
    20   13   15 1
    21   16   21 1
    22   16   22 1
    23   16   23 1
@<TRIPOS>MOLECULE
ZINC02530708
   23    23     0     0     0
SMALL
USER_CHARGES

@<TRIPOS>ATOM
      1 C1         -0.0165    1.3666    0.0096 C.2       1 <0>         0.0908
      2 C2          1.1481    2.0506    0.0021 C.2       1 <0>        -0.0364
      3 C3          2.3695    1.3316   -0.0134 C.2       1 <0>         0.5353
      4 O1          3.4324    1.9260   -0.0200 O.2       1 <0>        -0.4743
      5 N1          2.3438   -0.0164   -0.0204 N.am      1 <0>        -0.6467
      6 H1          3.1758   -0.5151   -0.0307 H         1 <0>         0.4439
      7 C4          1.1691   -0.6733   -0.0127 C.2       1 <0>         0.6890
      8 O2          1.1625   -1.8892   -0.0192 O.2       1 <0>        -0.5038
      9 N2          0.0021   -0.0041    0.0020 N.am      1 <0>        -0.5415
     10 C5         -1.2605   -0.7471    0.0106 C.3       1 <0>         0.1096
     11 C6         -1.7144   -0.9980   -1.4289 C.3       1 <0>        -0.0680
     12 H2         -0.9984   -1.6518   -1.9268 H         1 <0>         0.1455
     13 C7         -3.0716   -1.6530   -1.4207 C.2       1 <0>         0.4953
     14 O3         -4.0505   -1.0319   -1.7982 O.co2     1 <0>        -0.6613
     15 O4         -3.1907   -2.8039   -1.0366 O.co2     1 <0>        -0.6192
     16 N3         -1.7921    0.2807   -2.1477 N.4       1 <0>        -0.6150
     17 F1          1.1488    3.4016    0.0089 F         1 <0>        -0.0924
     18 H3         -0.9573    1.8966    0.0259 H         1 <0>         0.1932
     19 H4         -1.1172   -1.7011    0.5179 H         1 <0>         0.1511
     20 H5         -2.0198   -0.1671    0.5351 H         1 <0>         0.1248
     21 H6         -0.8834    0.7193   -2.1532 H         1 <0>         0.4076
     22 H7         -2.0914    0.1153   -3.0970 H         1 <0>         0.4402
     23 H8         -2.4549    0.8860   -1.6868 H         1 <0>         0.4323
@<TRIPOS>BOND
     1    1    9 1
     2    1    2 2
     3    1   18 1
     4    2    3 1
     5    2   17 1
     6    3    4 2
     7    3    5 am
     8    5    6 1
     9    5    7 am
    10    7    8 2
    11    7    9 am
    12    9   10 1
    13   10   11 1
    14   10   19 1
    15   10   20 1
    16   11   12 1
    17   11   13 1
    18   11   16 1
    19   13   14 2
    20   13   15 1
    21   16   21 1
    22   16   22 1
    23   16   23 1
@<TRIPOS>MOLECULE
ZINC02530708
   22    22     0     0     0
SMALL
USER_CHARGES

@<TRIPOS>ATOM
      1 C1         -0.0164    1.3592    0.0095 C.2       1 <0>         0.0414
      2 C2          1.1582    2.0374    0.0019 C.2       1 <0>        -0.0336
      3 C3          2.3654    1.3112   -0.0135 C.2       1 <0>         0.4523
      4 O1          3.5500    1.9626   -0.0208 O.3       1 <0>        -0.6448
      5 N1          2.3340   -0.0126   -0.0203 N.2       1 <0>        -0.6241
      6 C4          1.1732   -0.6669   -0.0127 C.2       1 <0>         0.6385
      7 O2          1.1721   -1.8868   -0.0189 O.2       1 <0>        -0.5725
      8 N2          0.0021   -0.0041    0.0020 N.am      1 <0>        -0.5571
      9 C5         -1.2584   -0.7506    0.0100 C.3       1 <0>         0.1052
     10 C6         -1.7110   -1.0028   -1.4296 C.3       1 <0>        -0.0616
     11 H1         -0.9930   -1.6546   -1.9273 H         1 <0>         0.1416
     12 C7         -3.0663   -1.6615   -1.4220 C.2       1 <0>         0.4986
     13 O3         -4.0468   -1.0432   -1.7998 O.co2     1 <0>        -0.6767
     14 O4         -3.1824   -2.8129   -1.0379 O.co2     1 <0>        -0.6297
     15 N3         -1.7920    0.2758   -2.1484 N.4       1 <0>        -0.6121
     16 F1          1.1704    3.3883    0.0086 F         1 <0>        -0.1283
     17 H2         -0.9553    1.8927    0.0258 H         1 <0>         0.1573
     18 H3         -1.1127   -1.7043    0.5174 H         1 <0>         0.1363
     19 H4         -2.0196   -0.1728    0.5343 H         1 <0>         0.0971
     20 H5         -0.8846    0.7169   -2.1535 H         1 <0>         0.4147
     21 H6         -2.0905    0.1095   -3.0978 H         1 <0>         0.4308
     22 H7         -2.4567    0.8791   -1.6877 H         1 <0>         0.4267
@<TRIPOS>BOND
     1    1    8 1
     2    1    2 2
     3    1   17 1
     4    2    3 1
     5    2   16 1
     6    3    4 1
     7    3    5 2
     8    5    6 1
     9    6    7 2
    10    6    8 am
    11    8    9 1
    12    9   10 1
    13    9   18 1
    14    9   19 1
    15   10   11 1
    16   10   12 1
    17   10   15 1
    18   12   13 2
    19   12   14 1
    20   15   20 1
    21   15   21 1
    22   15   22 1
@<TRIPOS>MOLECULE
ZINC18118278
   22    23     0     0     0
SMALL
USER_CHARGES

@<TRIPOS>ATOM
      1 C1          0.0496    1.1063    0.6344 C.ar      1 <0>        -0.0815
      2 C2          0.8293    1.9861   -0.1610 C.ar      1 <0>         0.4075
      3 N1          0.4596    3.2355   -0.3488 N.am      1 <0>        -0.4279
      4 C3          1.2172    4.0533   -1.1085 C.2       1 <0>         0.4679
      5 O1          0.8827    5.2069   -1.2858 O.2       1 <0>        -0.1860
      6 C4          2.4726    3.5290   -1.7307 C.2       1 <0>         0.4680
      7 O2          3.1640    4.2540   -2.4164 O.2       1 <0>        -0.1859
      8 N2          2.8311    2.2450   -1.5240 N.am      1 <0>        -0.4280
      9 C5          2.0762    1.4654   -0.7789 C.ar      1 <0>         0.4074
     10 C6          2.4324    0.1113   -0.5464 C.ar      1 <0>        -0.0816
     11 C7          1.6375   -0.6655    0.2237 C.ar      1 <0>         0.1372
     12 C8          0.4549   -0.1716    0.8097 C.ar      1 <0>         0.1371
     13 N3         -0.3677   -1.0785    1.6416 N.pl3     1 <0>        -0.0219
     14 O3         -1.5741   -1.0221    1.5858 O.2       1 <0>        -0.0173
     15 O4          0.1668   -1.8755    2.3769 O.3       1 <0>        -0.0340
     16 N4          2.0208   -2.0759    0.4581 N.pl3     1 <0>        -0.0219
     17 O5          3.1825   -2.3672    0.6234 O.2       1 <0>        -0.0173
     18 O6          1.1722   -2.9366    0.4842 O.3       1 <0>        -0.0339
     19 H1         -0.8595    1.4568    1.1003 H         1 <0>         0.2615
     20 H2          3.3326   -0.2963   -0.9822 H         1 <0>         0.2615
     21 H3         -0.3561    3.5673    0.0580 H         1 <0>         0.4946
     22 H4          3.6434    1.8969   -1.9239 H         1 <0>         0.4946
@<TRIPOS>BOND
     1    1   12 ar
     2    1    2 ar
     3    1   19 1
     4    2    9 ar
     5    2    3 2
     6    3    4 am
     7    3   21 1
     8    4    5 2
     9    4    6 1
    10    6    7 2
    11    6    8 am
    12    8    9 2
    13    8   22 1
    14    9   10 ar
    15   10   11 ar
    16   10   20 1
    17   11   12 ar
    18   11   16 1
    19   12   13 1
    20   13   14 2
    21   13   15 1
    22   16   17 2
    23   16   18 1
@<TRIPOS>MOLECULE
ZINC18118278
   21    22     0     0     0
SMALL
USER_CHARGES

@<TRIPOS>ATOM
      1 C1          0.0417    1.2522    0.5309 C.ar      1 <0>        -0.0473
      2 C2          0.8780    2.0146   -0.2789 C.ar      1 <0>         0.0748
      3 C3          2.0479    1.4409   -0.8068 C.ar      1 <0>         0.2260
      4 C4          2.3544    0.1053   -0.5080 C.ar      1 <0>        -0.0622
      5 C5          1.5202   -0.6244    0.2883 C.ar      1 <0>         0.0219
      6 C6          0.3650   -0.0580    0.8097 C.ar      1 <0>        -0.0602
      7 N1         -0.5259   -0.8673    1.6712 N.pl3     1 <0>         0.0426
      8 O1         -1.7257   -0.7484    1.5809 O.2       1 <0>        -0.1529
      9 O2         -0.0539   -1.6473    2.4653 O.3       1 <0>        -0.1493
     10 N2          1.8502   -2.0336    0.5987 N.pl3     1 <0>         0.0304
     11 O3          2.9984   -2.3560    0.7971 O.2       1 <0>        -0.1355
     12 O4          0.9715   -2.8622    0.6539 O.3       1 <0>        -0.1417
     13 N3          2.8727    2.1624   -1.5937 N.2       1 <0>        -0.5947
     14 C7          2.6068    3.4079   -1.8848 C.2       1 <0>         0.4324
     15 O5          3.4503    4.1124   -2.6771 O.3       1 <0>        -0.5802
     16 C8          1.3904    4.0475   -1.3530 C.2       1 <0>         0.4795
     17 O6          1.1361    5.2074   -1.6209 O.2       1 <0>        -0.4979
     18 N4          0.5617    3.3300   -0.5634 N.am      1 <0>        -0.6270
     19 H1         -0.2442    3.7314   -0.2024 H         1 <0>         0.4104
     20 H2         -0.8563    1.6877    0.9435 H         1 <0>         0.1592
     21 H3          3.2502   -0.3457   -0.9085 H         1 <0>         0.1717
@<TRIPOS>BOND
     1    1    6 ar
     2    1    2 ar
     3    1   20 1
     4    2   18 1
     5    2    3 ar
     6    3    4 ar
     7    3   13 1
     8    4    5 ar
     9    4   21 1
    10    5    6 ar
    11    5   10 1
    12    6    7 1
    13    7    8 2
    14    7    9 1
    15   10   11 2
    16   10   12 1
    17   13   14 2
    18   14   15 1
    19   14   16 1
    20   16   17 2
    21   16   18 am
    22   18   19 1
@<TRIPOS>MOLECULE
ZINC18118278
   22    23     0     0     0
SMALL
USER_CHARGES

@<TRIPOS>ATOM
      1 C1          0.0382    1.2610    0.5152 C.ar      1 <0>        -0.0552
      2 C2          0.8758    2.0183   -0.2964 C.ar      1 <0>         0.1719
      3 C3          2.0393    1.4471   -0.8145 C.ar      1 <0>         0.1720
      4 C4          2.3510    0.1254   -0.5146 C.ar      1 <0>        -0.0553
      5 C5          1.5125   -0.6159    0.2921 C.ar      1 <0>         0.0166
      6 C6          0.3581   -0.0491    0.8060 C.ar      1 <0>         0.0165
      7 N1         -0.5357   -0.8520    1.6707 N.pl3     1 <0>         0.0206
      8 O1         -1.7351   -0.7324    1.5766 O.2       1 <0>        -0.1120
      9 O2         -0.0664   -1.6272    2.4709 O.3       1 <0>        -0.1151
     10 N2          1.8476   -2.0224    0.6091 N.pl3     1 <0>         0.0206
     11 O3          2.9970   -2.3396    0.8090 O.2       1 <0>        -0.1120
     12 O4          0.9720   -2.8539    0.6680 O.3       1 <0>        -0.1151
     13 N3          2.8903    2.1887   -1.6291 N.am      1 <0>        -0.6303
     14 C7          2.5958    3.4709   -1.9250 C.2       1 <0>         0.5137
     15 C8          1.3528    4.0814   -1.3711 C.2       1 <0>         0.5137
     16 N4          0.5461    3.3396   -0.5854 N.am      1 <0>        -0.6303
     17 O5          1.0696    5.2348   -1.6257 O.2       1 <0>        -0.4318
     18 O6          3.3354    4.1221   -2.6351 O.2       1 <0>        -0.4318
     19 H1         -0.8610    1.7001    0.9216 H         1 <0>         0.1865
     20 H2          3.2498   -0.3211   -0.9137 H         1 <0>         0.1866
     21 H3          3.6965    1.7826   -1.9842 H         1 <0>         0.4351
     22 H4         -0.2650    3.7271   -0.2210 H         1 <0>         0.4351
@<TRIPOS>BOND
     1    1    6 ar
     2    1    2 ar
     3    1   19 1
     4    2   16 1
     5    2    3 ar
     6    3    4 ar
     7    3   13 1
     8    4    5 ar
     9    4   20 1
    10    5    6 ar
    11    5   10 1
    12    6    7 1
    13    7    8 2
    14    7    9 1
    15   10   11 2
    16   10   12 1
    17   13   14 am
    18   13   21 1
    19   14   15 1
    20   14   18 2
    21   15   16 am
    22   15   17 2
    23   16   22 1
@<TRIPOS>MOLECULE
ZINC14951272
   26    28     0     0     0
SMALL
USER_CHARGES

@<TRIPOS>ATOM
      1 C1         -0.0425    0.5463   -0.5268 C.2       1 <0>        -0.0251
      2 C2          1.2091    0.3392   -0.9779 C.2       1 <0>        -0.0516
      3 N1          2.0613    0.7198    0.0267 N.pl3     1 <0>        -0.4127
      4 C3          1.2915    1.1481    1.0610 C.2       1 <0>         0.2332
      5 N2          0.0370    1.0395    0.7180 N.2       1 <0>        -0.4915
      6 C4          3.4606    0.6754   -0.0071 C.ar      1 <0>         0.1187
      7 C5          4.1483    1.3667   -0.9903 C.ar      1 <0>        -0.1065
      8 C6          5.5365    1.3226   -1.0230 C.ar      1 <0>         0.0977
      9 C7          6.2341    0.5752   -0.0560 C.ar      1 <0>         0.1863
     10 C8          5.5167   -0.1173    0.9310 C.ar      1 <0>        -0.0500
     11 C9          4.1546   -0.0598    0.9528 C.ar      1 <0>        -0.0329
     12 N3          3.4061   -0.7891    2.0011 N.pl3     1 <0>         0.0380
     13 O1          4.0014   -1.3281    2.9048 O.2       1 <0>        -0.1603
     14 O2          2.1993   -0.8457    1.9536 O.3       1 <0>        -0.1597
     15 N4          7.5814    0.5210   -0.0713 N.2       1 <0>        -0.5990
     16 C10         8.2711    1.1575   -0.9804 C.2       1 <0>         0.4239
     17 O3          9.6246    1.0871   -0.9750 O.3       1 <0>        -0.6032
     18 C11         7.5808    1.9508   -2.0111 C.2       1 <0>         0.4780
     19 O4          8.2180    2.5461   -2.8607 O.2       1 <0>        -0.5055
     20 N5          6.2312    2.0102   -2.0011 N.am      1 <0>        -0.6289
     21 H1          5.7564    2.5270   -2.6707 H         1 <0>         0.4062
     22 H2         -0.9531    0.3530   -1.0745 H         1 <0>         0.1689
     23 H3          1.4883   -0.0519   -1.9451 H         1 <0>         0.1709
     24 H4          1.6565    1.5167    2.0083 H         1 <0>         0.1937
     25 H5          3.6070    1.9381   -1.7299 H         1 <0>         0.1453
     26 H6          6.0442   -0.6933    1.6769 H         1 <0>         0.1660
@<TRIPOS>BOND
     1    1    5 1
     2    1    2 2
     3    1   22 1
     4    2    3 1
     5    2   23 1
     6    3    4 1
     7    3    6 1
     8    4    5 2
     9    4   24 1
    10    6   11 ar
    11    6    7 ar
    12    7    8 ar
    13    7   25 1
    14    8   20 1
    15    8    9 ar
    16    9   10 ar
    17    9   15 1
    18   10   11 ar
    19   10   26 1
    20   11   12 1
    21   12   13 2
    22   12   14 1
    23   15   16 2
    24   16   17 1
    25   16   18 1
    26   18   19 2
    27   18   20 am
    28   20   21 1
@<TRIPOS>MOLECULE
ZINC14951272
   26    28     0     0     0
SMALL
USER_CHARGES

@<TRIPOS>ATOM
      1 C1          0.0021    1.0261    0.6815 C.2       1 <0>        -0.0328
      2 C2          1.2851    1.1518    1.0710 C.2       1 <0>        -0.0035
      3 N1          2.0612    0.7200    0.0269 N.pl3     1 <0>        -0.4186
      4 C3          1.2169    0.3440   -0.9683 C.2       1 <0>         0.1943
      5 N2         -0.0103    0.5316   -0.5652 N.2       1 <0>        -0.4866
      6 C4          3.4631    0.6752   -0.0075 C.ar      1 <0>         0.1872
      7 C5          4.1483    1.3642   -0.9882 C.ar      1 <0>        -0.1214
      8 C6          5.5486    1.3201   -1.0226 C.ar      1 <0>         0.2401
      9 C7          6.2409    0.5716   -0.0537 C.ar      1 <0>         0.0483
     10 C8          5.5325   -0.1160    0.9268 C.ar      1 <0>        -0.0431
     11 C9          4.1569   -0.0597    0.9520 C.ar      1 <0>        -0.1014
     12 N3          3.4100   -0.7888    2.0017 N.pl3     1 <0>         0.0519
     13 O1          4.0069   -1.3273    2.9047 O.2       1 <0>        -0.1911
     14 O2          2.2033   -0.8458    1.9559 O.3       1 <0>        -0.1636
     15 N4          7.6231    0.5201   -0.0760 N.am      1 <0>        -0.6298
     16 C10         8.2893    1.1961   -1.0371 C.2       1 <0>         0.4781
     17 C11         7.5249    1.9678   -2.0326 C.2       1 <0>         0.4315
     18 N5          6.2198    1.9933   -1.9802 N.2       1 <0>        -0.6005
     19 O3          8.1765    2.6523   -3.0035 O.3       1 <0>        -0.5880
     20 O4          9.5056    1.1685   -1.0799 O.2       1 <0>        -0.5063
     21 H1         -0.8666    1.2759    1.2725 H         1 <0>         0.1696
     22 H2          1.6353    1.5219    2.0233 H         1 <0>         0.1635
     23 H3          1.5115   -0.0444   -1.9320 H         1 <0>         0.2051
     24 H4          3.6064    1.9355   -1.7274 H         1 <0>         0.1574
     25 H5          6.0625   -0.6912    1.6715 H         1 <0>         0.1524
     26 H6          8.1069    0.0062    0.5893 H         1 <0>         0.4074
@<TRIPOS>BOND
     1    1    5 1
     2    1    2 2
     3    1   21 1
     4    2    3 1
     5    2   22 1
     6    3    4 1
     7    3    6 1
     8    4    5 2
     9    4   23 1
    10    6   11 ar
    11    6    7 ar
    12    7    8 ar
    13    7   24 1
    14    8   18 1
    15    8    9 ar
    16    9   10 ar
    17    9   15 1
    18   10   11 ar
    19   10   25 1
    20   11   12 1
    21   12   13 2
    22   12   14 1
    23   15   16 am
    24   15   26 1
    25   16   17 1
    26   16   20 2
    27   17   18 2
    28   17   19 1
@<TRIPOS>MOLECULE
ZINC14951272
   27    29     0     0     0
SMALL
USER_CHARGES

@<TRIPOS>ATOM
      1 C1         -0.0420    0.5400   -0.5314 C.2       1 <0>        -0.0063
      2 C2          1.2106    0.3345   -0.9812 C.2       1 <0>        -0.0534
      3 N1          2.0611    0.7160    0.0240 N.pl3     1 <0>        -0.4382
      4 C3          1.2902    1.1432    1.0573 C.2       1 <0>         0.2377
      5 N2          0.0358    1.0332    0.7134 N.2       1 <0>        -0.4758
      6 C4          3.4628    0.6732   -0.0086 C.ar      1 <0>         0.2086
      7 C5          4.1533    1.3638   -0.9916 C.ar      1 <0>        -0.1178
      8 C6          5.5416    1.3220   -1.0247 C.ar      1 <0>         0.1918
      9 C7          6.2365    0.5821   -0.0651 C.ar      1 <0>         0.1277
     10 C8          5.5350   -0.1082    0.9174 C.ar      1 <0>        -0.0389
     11 C9          4.1572   -0.0574    0.9489 C.ar      1 <0>        -0.0426
     12 N3          3.4154   -0.7886    2.0007 N.pl3     1 <0>         0.0306
     13 O1          4.0164   -1.3259    2.9017 O.2       1 <0>        -0.1407
     14 O2          2.2087   -0.8485    1.9587 O.3       1 <0>        -0.1333
     15 N4          7.6280    0.5288   -0.0836 N.am      1 <0>        -0.6314
     16 C10         8.3177    1.1945   -1.0320 C.2       1 <0>         0.5123
     17 C11         7.5754    1.9847   -2.0560 C.2       1 <0>         0.5126
     18 N5          6.2281    2.0184   -2.0154 N.am      1 <0>        -0.6326
     19 O3          8.1785    2.5911   -2.9184 O.2       1 <0>        -0.4391
     20 O4          9.5315    1.1512   -1.0518 O.2       1 <0>        -0.4434
     21 H1         -0.9518    0.3457   -1.0799 H         1 <0>         0.1777
     22 H2          1.4912   -0.0559   -1.9483 H         1 <0>         0.1790
     23 H3          1.6541    1.5121    2.0049 H         1 <0>         0.2004
     24 H4          3.6123    1.9341   -1.7322 H         1 <0>         0.1717
     25 H5          6.0704   -0.6814    1.6599 H         1 <0>         0.1797
     26 H6          5.7364    2.5291   -2.6775 H         1 <0>         0.4318
     27 H7          8.1018    0.0124    0.5870 H         1 <0>         0.4319
@<TRIPOS>BOND
     1    1    5 1
     2    1    2 2
     3    1   21 1
     4    2    3 1
     5    2   22 1
     6    3    4 1
     7    3    6 1
     8    4    5 2
     9    4   23 1
    10    6   11 ar
    11    6    7 ar
    12    7    8 ar
    13    7   24 1
    14    8   18 1
    15    8    9 ar
    16    9   10 ar
    17    9   15 1
    18   10   11 ar
    19   10   25 1
    20   11   12 1
    21   12   13 2
    22   12   14 1
    23   15   16 am
    24   15   27 1
    25   16   17 1
    26   16   20 2
    27   17   18 am
    28   17   19 2
    29   18   26 1
@<TRIPOS>MOLECULE
ZINC14951272
   26    28     0     0     0
SMALL
USER_CHARGES
6-imidazol-1-yl-7-nitro-quinoxaline-2,3-dione
@<TRIPOS>ATOM
      1 C1         -0.9692    2.3670   -0.5011 C.2       1 <0>         0.0203
      2 C2          0.1710    1.8137   -0.9544 C.2       1 <0>         0.0322
      3 N1          1.1010    1.9441    0.0456 N.pl3     1 <0>        -0.3920
      4 C3          0.4856    2.5787    1.0814 C.cat     1 <0>         0.3472
      5 C4          2.4211    1.5101    0.0089 C.ar      1 <0>         0.1649
      6 C5          3.2440    1.9712   -0.9737 C.ar      1 <0>        -0.0242
      7 C6          4.5864    1.5528   -1.0315 C.ar      1 <0>         0.2441
      8 N2          5.3912    2.0023   -1.9805 N.2       1 <0>        -0.4313
      9 C7          6.6689    1.5908   -2.0264 C.2       1 <0>         0.4244
     10 O1          7.4122    2.0008   -2.8957 O.2       1 <0>        -0.2992
     11 C8          7.1712    0.6250   -1.0008 C.2       1 <0>         0.4198
     12 O2          8.3236    0.2452   -1.0318 O.2       1 <0>        -0.2904
     13 N3          6.3332    0.1780   -0.0399 N.2       1 <0>        -0.4107
     14 C9          5.0867    0.5932   -0.0128 C.ar      1 <0>         0.2261
     15 C10         4.1626    0.1193    1.0230 C.ar      1 <0>         0.0707
     16 C11         2.8885    0.5661    1.0223 C.ar      1 <0>        -0.0270
     17 N4          1.9499    0.0920    2.0641 N.pl3     1 <0>         0.0210
     18 O3          2.3570   -0.5958    2.9831 O.2       1 <0>        -0.0756
     19 O4          0.7705    0.3898    2.0022 O.3       1 <0>        -0.1704
     20 H1         -1.9008    2.4314   -1.0437 H         1 <0>         0.2316
     21 H2          0.3244    1.3552   -1.9202 H         1 <0>         0.2287
     22 H3          0.9431    2.8349    2.0255 H         1 <0>         0.2572
     23 H4          2.8653    2.6649   -1.7098 H         1 <0>         0.1988
     24 H5          4.4972   -0.5779    1.7768 H         1 <0>         0.2143
     25 N5         -0.7504    2.8198    0.7433 N.pl3     1 <0>        -0.4696
     26 H6         -1.4480    3.2838    1.3368 H         1 <0>         0.4890
@<TRIPOS>BOND
     1    1    2 2
     2    1   20 1
     3    1   25 1
     4    2    3 1
     5    2   21 1
     6    3    4 1
     7    3    5 1
     8    4   22 1
     9    4   25 2
    10    5   16 ar
    11    5    6 ar
    12    6    7 ar
    13    6   23 1
    14    7   14 ar
    15    7    8 2
    16    8    9 1
    17    9   10 2
    18    9   11 1
    19   11   12 2
    20   11   13 1
    21   13   14 2
    22   14   15 ar
    23   15   16 ar
    24   15   24 1
    25   16   17 1
    26   17   18 2
    27   17   19 1
    28   25   26 1
@<TRIPOS>MOLECULE
ZINC19850499
   22    22     0     0     0
SMALL
USER_CHARGES

@<TRIPOS>ATOM
      1 C1         -0.0127    1.0858    0.0080 C.3       1 <0>        -0.0876
      2 C2         -0.7416    1.5850   -1.2129 C.2       1 <0>         0.0641
      3 C3         -2.0612    1.8307   -1.2988 C.2       1 <0>        -0.3438
      4 C4         -2.3386    2.2827   -2.6074 C.2       1 <0>         0.3550
      5 N1         -1.2135    2.3025   -3.2730 N.2       1 <0>        -0.4446
      6 O1         -0.1856    1.8672   -2.4015 O.3       1 <0>        -0.1265
      7 O2         -3.5577    2.6341   -3.0892 O.3       1 <0>        -0.7249
      8 C5         -3.0681    1.6536   -0.1917 C.3       1 <0>        -0.0323
      9 C6         -3.1832    2.9541    0.6060 C.3       1 <0>        -0.0363
     10 H1         -2.1961    3.2519    0.9598 H         1 <0>         0.1199
     11 C7         -4.0964    2.7408    1.7856 C.2       1 <0>         0.4926
     12 O3         -3.6379    2.3667    2.8516 O.co2     1 <0>        -0.6522
     13 O4         -5.2936    2.9424    1.6740 O.co2     1 <0>        -0.6738
     14 N2         -3.7337    4.0095   -0.2549 N.4       1 <0>        -0.6054
     15 H2          0.0021   -0.0041    0.0020 H         1 <0>         0.0828
     16 H3          1.0099    1.4631    0.0003 H         1 <0>         0.0752
     17 H4         -0.5229    1.4373    0.9048 H         1 <0>         0.0860
     18 H5         -4.0386    1.4030   -0.6199 H         1 <0>         0.0863
     19 H6         -2.7440    0.8496    0.4691 H         1 <0>         0.0924
     20 H7         -3.8095    4.8672    0.2711 H         1 <0>         0.4148
     21 H8         -3.1222    4.1523   -1.0447 H         1 <0>         0.4233
     22 H9         -4.6474    3.7339   -0.5824 H         1 <0>         0.4348
@<TRIPOS>BOND
     1    1   15 1
     2    1   16 1
     3    1   17 1
     4    1    2 1
     5    2    3 2
     6    2    6 1
     7    3    4 1
     8    3    8 1
     9    4    5 2
    10    4    7 1
    11    5    6 1
    12    8    9 1
    13    8   18 1
    14    8   19 1
    15    9   10 1
    16    9   11 1
    17    9   14 1
    18   11   12 2
    19   11   13 1
    20   14   20 1
    21   14   21 1
    22   14   22 1
@<TRIPOS>MOLECULE
ZINC19850502
   22    22     0     0     0
SMALL
USER_CHARGES

@<TRIPOS>ATOM
      1 C1         -0.0127    1.0858    0.0080 C.3       1 <0>        -0.0839
      2 C2         -0.7416    1.5850   -1.2129 C.2       1 <0>         0.0174
      3 C3         -2.0612    1.8307   -1.2988 C.2       1 <0>        -0.3158
      4 C4         -2.3386    2.2827   -2.6074 C.2       1 <0>         0.3643
      5 N1         -1.2135    2.3025   -3.2730 N.2       1 <0>        -0.4463
      6 O1         -0.1856    1.8672   -2.4015 O.3       1 <0>        -0.1249
      7 O2         -3.5577    2.6341   -3.0892 O.3       1 <0>        -0.7045
      8 C5         -3.0681    1.6536   -0.1917 C.3       1 <0>        -0.0320
      9 C6         -3.1832    2.9541    0.6060 C.3       1 <0>        -0.0405
     10 H1         -3.4207    3.7753   -0.0703 H         1 <0>         0.1345
     11 C7         -4.2765    2.8178    1.6341 C.2       1 <0>         0.4959
     12 O3         -3.9950    2.7558    2.8188 O.co2     1 <0>        -0.6885
     13 O4         -5.4426    2.7696    1.2813 O.co2     1 <0>        -0.6350
     14 N2         -1.9077    3.2290    1.2810 N.4       1 <0>        -0.6115
     15 H2          0.0021   -0.0041    0.0020 H         1 <0>         0.0906
     16 H3          1.0099    1.4631    0.0003 H         1 <0>         0.0828
     17 H4         -0.5229    1.4373    0.9048 H         1 <0>         0.0560
     18 H5         -4.0386    1.4030   -0.6199 H         1 <0>         0.1129
     19 H6         -2.7440    0.8496    0.4691 H         1 <0>         0.0690
     20 H7         -1.1757    3.3203    0.5926 H         1 <0>         0.4130
     21 H8         -1.9836    4.0867    1.8070 H         1 <0>         0.4241
     22 H9         -1.6879    2.4688    1.9070 H         1 <0>         0.4225
@<TRIPOS>BOND
     1    1   15 1
     2    1   16 1
     3    1   17 1
     4    1    2 1
     5    2    3 2
     6    2    6 1
     7    3    4 1
     8    3    8 1
     9    4    5 2
    10    4    7 1
    11    5    6 1
    12    8    9 1
    13    8   18 1
    14    8   19 1
    15    9   10 1
    16    9   11 1
    17    9   14 1
    18   11   12 2
    19   11   13 1
    20   14   20 1
    21   14   21 1
    22   14   22 1
@<TRIPOS>MOLECULE
ZINC13491413
   40    42     0     0     0
SMALL
USER_CHARGES

@<TRIPOS>ATOM
      1 C1         -0.0187    1.5261    0.0104 C.3       1 <0>        -0.1238
      2 C2          1.4178    2.0522   -0.0005 C.3       1 <0>        -0.1090
      3 C3          2.1605    1.5450    1.2347 C.3       1 <0>        -0.0988
      4 H1          3.1856    1.9153    1.2176 H         1 <0>         0.0868
      5 C4          1.4628    2.0425    2.5014 C.3       1 <0>        -0.0134
      6 N1          2.1937    1.5679    3.6830 N.4       1 <0>        -0.4785
      7 C5          2.1694    0.1013    3.7306 C.3       1 <0>        -0.0519
      8 H2          1.1357   -0.2442    3.7341 H         1 <0>         0.1318
      9 C6          2.8921   -0.4673    2.5073 C.3       1 <0>        -0.1138
     10 C7          2.1737    0.0143    1.2417 C.3       1 <0>        -0.0947
     11 H3          2.7053   -0.3518    0.3633 H         1 <0>         0.0946
     12 C8          0.7355   -0.5089    1.2457 C.3       1 <0>        -0.1170
     13 C9          0.0021   -0.0041    0.0020 C.3       1 <0>        -0.0847
     14 H4          0.5174   -0.3558   -0.8918 H         1 <0>         0.0750
     15 C10        -1.4332   -0.5339    0.0057 C.3       1 <0>        -0.1042
     16 C11        -2.1288   -0.1316   -1.2963 C.3       1 <0>         0.0018
     17 C12        -3.5425   -0.6535   -1.2927 C.2       1 <0>         0.0495
     18 N2         -4.6155   -0.0251   -0.8348 N.2       1 <0>        -0.3915
     19 N3         -5.6282   -0.8032   -1.0123 N.2       1 <0>        -0.2004
     20 N4         -5.2266   -1.8948   -1.5645 N.2       1 <0>        -0.1995
     21 N5         -3.9528   -1.8267   -1.7520 N.2       1 <0>        -0.3897
     22 C13         2.8601   -0.3710    4.9839 C.2       1 <0>         0.4920
     23 O1          3.3287    0.4400    5.7643 O.co2     1 <0>        -0.6807
     24 O2          2.9504   -1.5643    5.2174 O.co2     1 <0>        -0.6381
     25 H5         -0.5282    1.8780    0.9075 H         1 <0>         0.0620
     26 H6         -0.5452    1.8876   -0.8729 H         1 <0>         0.0774
     27 H7          1.9259    1.7013   -0.8987 H         1 <0>         0.0781
     28 H8          1.4050    3.1421    0.0060 H         1 <0>         0.0687
     29 H9          1.4423    3.1323    2.5006 H         1 <0>         0.1224
     30 H10         0.4423    1.6603    2.5278 H         1 <0>         0.1295
     31 H11         3.1501    1.8859    3.6355 H         1 <0>         0.4200
     32 H12         3.9255   -0.1208    2.5008 H         1 <0>         0.0773
     33 H13         2.8717   -1.5564    2.5456 H         1 <0>         0.1095
     34 H14         0.7457   -1.5988    1.2436 H         1 <0>         0.0759
     35 H15         0.2223   -0.1530    2.1391 H         1 <0>         0.0596
     36 H16        -1.4192   -1.6206    0.0893 H         1 <0>         0.0633
     37 H17        -1.9744   -0.1114    0.8523 H         1 <0>         0.0593
     38 H18        -2.1429    0.9551   -1.3799 H         1 <0>         0.0649
     39 H19        -1.5876   -0.5541   -2.1429 H         1 <0>         0.0636
     40 H20         1.7601    1.9373    4.5159 H         1 <0>         0.4265
@<TRIPOS>BOND
     1    1   13 1
     2    1    2 1
     3    1   25 1
     4    1   26 1
     5    2    3 1
     6    2   27 1
     7    2   28 1
     8    3    4 1
     9    3   10 1
    10    3    5 1
    11    5    6 1
    12    5   29 1
    13    5   30 1
    14    6    7 1
    15    6   31 1
    16    6   40 1
    17    7    8 1
    18    7    9 1
    19    7   22 1
    20    9   10 1
    21    9   32 1
    22    9   33 1
    23   10   11 1
    24   10   12 1
    25   12   13 1
    26   12   34 1
    27   12   35 1
    28   13   14 1
    29   13   15 1
    30   15   16 1
    31   15   36 1
    32   15   37 1
    33   16   38 1
    34   16   39 1
    35   16   17 1
    36   17   18 2
    37   17   21 1
    38   18   19 1
    39   19   20 2
    40   20   21 1
    41   22   23 2
    42   22   24 1
@<TRIPOS>MOLECULE
ZINC13491413
   41    43     0     0     0
SMALL
USER_CHARGES
(3S,4aR,6R,8aR)-6-[2-(1H-tetrazol-5-yl)ethyl]-1,2,3,4,4a,5,6,7,8,8a-decahydroisoquinoline-3-carboxylic acid
@<TRIPOS>ATOM
      1 C1         -0.0203    1.5171    2.5098 C.3       1 <0>        -0.1259
      2 C2         -0.7419    2.0267    1.2607 C.3       1 <0>        -0.1116
      3 C3         -0.0187    1.5266    0.0104 C.3       1 <0>        -0.1025
      4 H1         -0.5502    1.8924   -0.8805 H         1 <0>         0.0911
      5 C4          1.4181    2.0517   -0.0005 C.3       1 <0>        -0.0040
      6 N1          2.1082    1.5636   -1.2016 N.4       1 <0>        -0.5180
      7 C5          2.1773    0.0970   -1.2175 C.3       1 <0>        -0.0118
      8 H2          2.7177   -0.2199   -0.3133 H         1 <0>         0.1294
      9 C6          0.7613   -0.4835   -1.2399 C.3       1 <0>        -0.1191
     10 C7          0.0021   -0.0041    0.0020 C.3       1 <0>        -0.0922
     11 H3         -1.0283   -0.3890   -0.0117 H         1 <0>         0.0971
     12 C8          0.7199   -0.5114    1.2548 C.3       1 <0>        -0.1198
     13 C9         -0.0118   -0.0130    2.5022 C.3       1 <0>        -0.0858
     14 H4         -1.0466   -0.3861    2.4943 H         1 <0>         0.0813
     15 C10         0.7049   -0.5255    3.7530 C.3       1 <0>        -0.1119
     16 C11        -0.0955   -0.1325    4.9964 C.3       1 <0>        -0.0254
     17 C12         0.6105   -0.6373    6.2284 C.2       1 <0>         0.1656
     18 N2          0.9930    0.0939    7.2918 N.2       1 <0>        -0.3188
     19 H5          1.9490   -0.3336    9.0799 H         1 <0>         0.5131
     20 N3          1.5595   -0.7133    8.1238 N.pl3     1 <0>        -0.2272
     21 N4          1.5524   -1.8989    7.6221 N.2       1 <0>        -0.0570
     22 N5          0.9713   -1.8735    6.4725 N.2       1 <0>        -0.2771
     23 C13         2.9251   -0.3568   -2.4446 C.2       1 <0>         0.4555
     24 O1          3.0387    0.3849   -3.3916 O.co2     1 <0>        -0.6198
     25 O2          3.4651   -1.5850   -2.4855 O.co2     1 <0>        -0.7054
     26 H6         -0.5429    1.8764    3.4086 H         1 <0>         0.0750
     27 H7          1.0147    1.8895    2.5141 H         1 <0>         0.0630
     28 H8         -1.7769    1.6543    1.2576 H         1 <0>         0.0803
     29 H9         -0.7480    3.1267    1.2639 H         1 <0>         0.0720
     30 H10         1.4064    3.1516   -0.0056 H         1 <0>         0.1231
     31 H11         1.9458    1.6948    0.8963 H         1 <0>         0.1238
     32 H12         1.5653    1.8983   -2.0979 H         1 <0>         0.4457
     33 H13         0.2397   -0.1429   -2.1465 H         1 <0>         0.0832
     34 H14         0.8153   -1.5822   -1.2390 H         1 <0>         0.1100
     35 H15         0.7297   -1.6114    1.2517 H         1 <0>         0.0797
     36 H16         1.7537   -0.1355    1.2626 H         1 <0>         0.0616
     37 H17         0.7909   -1.6210    3.7033 H         1 <0>         0.0803
     38 H18         1.7096   -0.0810    3.8080 H         1 <0>         0.0643
     39 H19        -0.1815    0.9630    5.0460 H         1 <0>         0.0949
     40 H20        -1.1002   -0.5770    4.9414 H         1 <0>         0.0963
     41 H21         3.1330    1.9627   -1.2233 H         1 <0>         0.4470
@<TRIPOS>BOND
     1    1   13 1
     2    1    2 1
     3    1   26 1
     4    1   27 1
     5    2    3 1
     6    2   28 1
     7    2   29 1
     8    3    4 1
     9    3   10 1
    10    3    5 1
    11    5    6 1
    12    5   30 1
    13    5   31 1
    14    6    7 1
    15    6   32 1
    16    6   41 1
    17    7    8 1
    18    7    9 1
    19    7   23 1
    20    9   10 1
    21    9   33 1
    22    9   34 1
    23   10   11 1
    24   10   12 1
    25   12   13 1
    26   12   35 1
    27   12   36 1
    28   13   14 1
    29   13   15 1
    30   15   16 1
    31   15   37 1
    32   15   38 1
    33   16   17 1
    34   16   39 1
    35   16   40 1
    36   17   18 2
    37   17   22 1
    38   18   20 1
    39   19   20 1
    40   20   21 1
    41   21   22 2
    42   23   24 2
    43   23   25 1
@<TRIPOS>MOLECULE
ZINC04654927
   75    75     0     0     0
SMALL
USER_CHARGES
N-[1-[3-[4-(3-aminopropylamino)butylamino]propylcarbamoyl]-2-(4-hydroxyphenyl)-ethyl]butanamide
@<TRIPOS>ATOM
      1 C1         -2.2797    5.3896    3.9422 C.3       1 <0>        -0.1564
      2 C2         -1.5636    4.8962    2.6834 C.3       1 <0>        -0.1065
      3 C3         -1.5428    3.3664    2.6749 C.3       1 <0>        -0.1424
      4 C4         -0.8375    2.8804    1.4351 C.2       1 <0>         0.5227
      5 O1         -0.3949    3.6790    0.6367 O.2       1 <0>        -0.5129
      6 N1         -0.6984    1.5583    1.2133 N.am      1 <0>        -0.7242
      7 C5         -0.0127    1.0858    0.0080 C.3       1 <0>         0.1458
      8 H1          0.0021   -0.0041    0.0020 H         1 <0>         0.1095
      9 C6         -0.7527    1.5927   -1.2315 C.3       1 <0>        -0.0892
     10 C7         -2.1255    0.9734   -1.2852 C.ar      1 <0>        -0.0984
     11 C8         -2.3173   -0.2233   -1.9507 C.ar      1 <0>        -0.1019
     12 C9         -3.5736   -0.7959   -1.9965 C.ar      1 <0>        -0.1443
     13 C10        -4.6456   -0.1637   -1.3834 C.ar      1 <0>         0.1130
     14 C11        -4.4516    1.0399   -0.7212 C.ar      1 <0>        -0.1408
     15 C12        -3.1923    1.6057   -0.6738 C.ar      1 <0>        -0.0869
     16 O2         -5.8836   -0.7221   -1.4318 O.3       1 <0>        -0.4989
     17 C13         1.4011    1.6074   -0.0027 C.2       1 <0>         0.5046
     18 O3          1.6980    2.5686    0.6748 O.2       1 <0>        -0.4891
     19 N2          2.3356    1.0059   -0.7651 N.am      1 <0>        -0.7427
     20 C14         3.7100    1.5130   -0.7755 C.3       1 <0>         0.1252
     21 C15         4.5620    0.6578   -1.7155 C.3       1 <0>        -0.1641
     22 C16         5.9974    1.1874   -1.7264 C.3       1 <0>        -0.0017
     23 C17         8.2033    0.8465   -2.6648 C.3       1 <0>        -0.0058
     24 C18         9.0224   -0.0314   -3.6130 C.3       1 <0>        -0.1502
     25 C19        10.4678    0.4688   -3.6504 C.3       1 <0>        -0.1504
     26 C20        11.2870   -0.4092   -4.5986 C.3       1 <0>        -0.0057
     27 C21        13.4929   -0.7500   -5.5370 C.3       1 <0>        -0.0009
     28 C22        14.9282   -0.2204   -5.5479 C.3       1 <0>        -0.1889
     29 C23        15.7803   -1.0756   -6.4879 C.3       1 <0>         0.0021
     30 H2         -3.3023    5.0124    3.9499 H         1 <0>         0.0566
     31 H3         -1.7525    5.0286    4.8252 H         1 <0>         0.0549
     32 H4         -2.2945    6.4795    3.9481 H         1 <0>         0.0603
     33 H5         -0.5410    5.2735    2.6756 H         1 <0>         0.0678
     34 H6         -2.0908    5.2573    1.8003 H         1 <0>         0.0683
     35 H7         -2.5654    2.9891    2.6827 H         1 <0>         0.0945
     36 H8         -1.0157    3.0053    3.5580 H         1 <0>         0.0929
     37 H9         -1.0524    0.9196    1.8518 H         1 <0>         0.4087
     38 H10        -0.8452    2.6775   -1.1811 H         1 <0>         0.1044
     39 H11        -0.1944    1.3168   -2.1261 H         1 <0>         0.0788
     40 H12        -1.4833   -0.7129   -2.4316 H         1 <0>         0.1224
     41 H13        -3.7220   -1.7331   -2.5123 H         1 <0>         0.1302
     42 H14        -5.2845    1.5338   -0.2428 H         1 <0>         0.1321
     43 H15        -3.0408    2.5426   -0.1583 H         1 <0>         0.1222
     44 H16        -6.4105   -0.4450   -2.1938 H         1 <0>         0.3965
     45 H17         2.0981    0.2372   -1.3070 H         1 <0>         0.4016
     46 H18         3.7133    2.5466   -1.1215 H         1 <0>         0.0775
     47 H19         4.1223    1.4659    0.2324 H         1 <0>         0.0762
     48 H20         4.5587   -0.3759   -1.3696 H         1 <0>         0.0965
     49 H21         4.1497    0.7049   -2.7235 H         1 <0>         0.0969
     50 H22         6.0007    2.2210   -2.0724 H         1 <0>         0.1386
     51 H23         6.4097    1.1403   -0.7185 H         1 <0>         0.1382
     52 H24         8.2219    1.8778   -3.0173 H         1 <0>         0.1363
     53 H25         8.6308    0.7971   -1.6634 H         1 <0>         0.1361
     54 H26         9.0038   -1.0627   -3.2605 H         1 <0>         0.1006
     55 H27         8.5948    0.0180   -4.6144 H         1 <0>         0.1007
     56 H28        10.4865    1.5000   -4.0029 H         1 <0>         0.1014
     57 H29        10.8954    0.4193   -2.6490 H         1 <0>         0.1013
     58 H30        11.2684   -1.4404   -4.2461 H         1 <0>         0.1391
     59 H31        10.8594   -0.3597   -5.6000 H         1 <0>         0.1392
     60 H32        13.4895   -1.7836   -5.1910 H         1 <0>         0.1444
     61 H33        13.0806   -0.7029   -6.5449 H         1 <0>         0.1445
     62 H34        14.9315    0.8132   -5.8938 H         1 <0>         0.1133
     63 H35        15.3405   -0.2675   -4.5399 H         1 <0>         0.1129
     64 H36        15.7769   -2.1092   -6.1419 H         1 <0>         0.1437
     65 H37        15.3680   -1.0285   -7.4958 H         1 <0>         0.1462
     66 H38        17.7416   -1.1157   -7.1123 H         1 <0>         0.4555
     67 H39        17.1819    0.4087   -6.7537 H         1 <0>         0.4429
     68 N3          6.8117    0.3579   -2.6345 N.4       1 <0>        -0.5197
     69 H40         6.4161    0.4034   -3.5809 H         1 <0>         0.4358
     70 H41         6.8013   -0.6147   -2.3055 H         1 <0>         0.4356
     71 N4         12.6785    0.0795   -4.6289 N.4       1 <0>        -0.5208
     72 H42        13.0741    0.0341   -3.6825 H         1 <0>         0.4386
     73 H43        12.6888    1.0521   -4.9579 H         1 <0>         0.4387
     74 N5         17.1645   -0.5706   -6.4740 N.4       1 <0>        -0.6482
     75 H44        17.5448   -0.6545   -5.5239 H         1 <0>         0.4453
@<TRIPOS>BOND
     1    1    2 1
     2    1   30 1
     3    1   31 1
     4    1   32 1
     5    2    3 1
     6    2   33 1
     7    2   34 1
     8    3    4 1
     9    3   35 1
    10    3   36 1
    11    4    5 2
    12    4    6 am
    13    6    7 1
    14    6   37 1
    15    7    8 1
    16    7    9 1
    17    7   17 1
    18    9   10 1
    19    9   38 1
    20    9   39 1
    21   10   15 ar
    22   10   11 ar
    23   11   12 ar
    24   11   40 1
    25   12   13 ar
    26   12   41 1
    27   13   14 ar
    28   13   16 1
    29   14   15 ar
    30   14   42 1
    31   15   43 1
    32   16   44 1
    33   17   18 2
    34   17   19 am
    35   19   20 1
    36   19   45 1
    37   20   21 1
    38   20   46 1
    39   20   47 1
    40   21   22 1
    41   21   48 1
    42   21   49 1
    43   22   50 1
    44   22   51 1
    45   22   68 1
    46   23   24 1
    47   23   52 1
    48   23   53 1
    49   23   68 1
    50   24   25 1
    51   24   54 1
    52   24   55 1
    53   25   26 1
    54   25   56 1
    55   25   57 1
    56   26   58 1
    57   26   59 1
    58   26   71 1
    59   27   28 1
    60   27   60 1
    61   27   61 1
    62   27   71 1
    63   28   29 1
    64   28   62 1
    65   28   63 1
    66   29   64 1
    67   29   65 1
    68   29   74 1
    69   66   74 1
    70   67   74 1
    71   68   69 1
    72   68   70 1
    73   71   72 1
    74   71   73 1
    75   74   75 1
@<TRIPOS>MOLECULE
ZINC13590038
   40    42     0     0     0
SMALL
USER_CHARGES

@<TRIPOS>ATOM
      1 C1         -0.0187    1.5261    0.0104 C.3       1 <0>        -0.1238
      2 C2          1.4178    2.0522   -0.0005 C.3       1 <0>        -0.1091
      3 C3          2.1368    1.5584   -1.2550 C.3       1 <0>        -0.0986
      4 H1          3.1620    1.9286   -1.2534 H         1 <0>         0.0870
      5 C4          1.4150    2.0694   -2.5027 C.3       1 <0>        -0.0135
      6 N1          2.1231    1.6076   -3.7031 N.4       1 <0>        -0.4788
      7 C5          2.0978    0.1416   -3.7659 C.3       1 <0>        -0.0516
      8 H2          1.0642   -0.2040   -3.7534 H         1 <0>         0.1318
      9 C6          2.8436   -0.4400   -2.5628 C.3       1 <0>        -0.1148
     10 C7          2.1497    0.0278   -1.2787 C.3       1 <0>        -0.0942
     11 H3          2.6978   -0.3476   -0.4146 H         1 <0>         0.0947
     12 C8          0.7115   -0.4954   -1.2608 C.3       1 <0>        -0.1172
     13 C9          0.0021   -0.0041    0.0020 C.3       1 <0>        -0.0847
     14 H4          0.5344   -0.3653    0.8820 H         1 <0>         0.0750
     15 C10        -1.4331   -0.5340    0.0200 C.3       1 <0>        -0.1042
     16 C11        -2.1036   -0.1457    1.3393 C.3       1 <0>         0.0018
     17 C12        -3.5172   -0.6677    1.3571 C.2       1 <0>         0.0495
     18 N2         -3.9180   -1.8481    1.8063 N.2       1 <0>        -0.3896
     19 N3         -5.1959   -1.9122    1.6474 N.2       1 <0>        -0.1995
     20 N4         -5.6079   -0.8145    1.1153 N.2       1 <0>        -0.2004
     21 N5         -4.5995   -0.0323    0.9319 N.2       1 <0>        -0.3915
     22 C13         2.7644   -0.3172   -5.0372 C.2       1 <0>         0.4919
     23 O1          3.3766    0.4804   -5.7267 O.co2     1 <0>        -0.6800
     24 O2          2.6916   -1.4861   -5.3761 O.co2     1 <0>        -0.6385
     25 H5         -0.5282    1.8780    0.9075 H         1 <0>         0.0775
     26 H6         -0.5452    1.8876   -0.8729 H         1 <0>         0.0620
     27 H7          1.4050    3.1421    0.0050 H         1 <0>         0.0688
     28 H8          1.9429    1.6917    0.8841 H         1 <0>         0.0781
     29 H9          0.3942    1.6873   -2.5137 H         1 <0>         0.1295
     30 H10         1.3946    3.1591   -2.4897 H         1 <0>         0.1224
     31 H11         1.6738    1.9859   -4.5235 H         1 <0>         0.4251
     32 H12         2.8225   -1.5287   -2.6124 H         1 <0>         0.1080
     33 H13         3.8771   -0.0936   -2.5723 H         1 <0>         0.0785
     34 H14         0.1815   -0.1300   -2.1404 H         1 <0>         0.0599
     35 H15         0.7217   -1.5853   -1.2706 H         1 <0>         0.0759
     36 H16        -1.9902   -0.1025   -0.8115 H         1 <0>         0.0594
     37 H17        -1.4207   -1.6198   -0.0755 H         1 <0>         0.0634
     38 H18        -1.5465   -0.5773    2.1709 H         1 <0>         0.0636
     39 H19        -2.1160    0.9400    1.4349 H         1 <0>         0.0650
     40 H20         3.0803    1.9251   -3.6704 H         1 <0>         0.4214
@<TRIPOS>BOND
     1    1   13 1
     2    1    2 1
     3    1   25 1
     4    1   26 1
     5    2    3 1
     6    2   27 1
     7    2   28 1
     8    3    4 1
     9    3   10 1
    10    3    5 1
    11    5    6 1
    12    5   29 1
    13    5   30 1
    14    6    7 1
    15    6   31 1
    16    6   40 1
    17    7    8 1
    18    7    9 1
    19    7   22 1
    20    9   10 1
    21    9   32 1
    22    9   33 1
    23   10   11 1
    24   10   12 1
    25   12   13 1
    26   12   34 1
    27   12   35 1
    28   13   14 1
    29   13   15 1
    30   15   16 1
    31   15   36 1
    32   15   37 1
    33   16   38 1
    34   16   39 1
    35   16   17 1
    36   17   18 2
    37   17   21 1
    38   18   19 1
    39   19   20 2
    40   20   21 1
    41   22   23 2
    42   22   24 1
@<TRIPOS>MOLECULE
ZINC13590038
   41    43     0     0     0
SMALL
USER_CHARGES
(3R,4aS,6S,8aS)-6-[2-(2H-tetrazol-5-yl)ethyl]-1,2,3,4,4a,5,6,7,8,8a-decahydroisoquinoline-3-carboxylic acid
@<TRIPOS>ATOM
      1 C1          1.4386    1.6225    2.5100 C.3       1 <0>        -0.1254
      2 C2          0.0080    1.0804    2.5092 C.3       1 <0>        -0.1118
      3 C3         -0.7289    1.5792    1.2665 C.3       1 <0>        -0.1024
      4 H1         -1.7575    1.1896    1.2804 H         1 <0>         0.0912
      5 C4         -0.0127    1.0858    0.0080 C.3       1 <0>        -0.0041
      6 N1         -0.7233    1.5725   -1.1818 N.4       1 <0>        -0.5180
      7 C5         -0.7362    3.0398   -1.2316 C.3       1 <0>        -0.0117
      8 H2          0.3096    3.3806   -1.2471 H         1 <0>         0.1290
      9 C6         -1.4720    3.5889   -0.0070 C.3       1 <0>        -0.1191
     10 C7         -0.7607    3.1097    1.2631 C.3       1 <0>        -0.0922
     11 H3         -1.2932    3.4715    2.1550 H         1 <0>         0.0973
     12 C8          0.6713    3.6497    1.2693 C.3       1 <0>        -0.1198
     13 C9          1.4015    3.1523    2.5179 C.3       1 <0>        -0.0855
     14 H4          0.8722    3.5026    3.4163 H         1 <0>         0.0818
     15 C10         2.8312    3.6973    2.5242 C.3       1 <0>        -0.1116
     16 C11         3.5217    3.3025    3.8312 C.3       1 <0>        -0.0258
     17 C12         4.9298    3.8393    3.8375 C.2       1 <0>         0.1680
     18 N2          5.9999    3.2283    3.3917 N.2       1 <0>        -0.3129
     19 N3          7.0063    4.0148    3.5641 N.pl3     1 <0>        -0.2414
     20 H5          8.0110    3.7004    3.2452 H         1 <0>         0.5114
     21 N4          6.6005    5.1023    4.1218 N.2       1 <0>        -0.0445
     22 N5          5.3248    5.0265    4.2977 N.2       1 <0>        -0.2817
     23 C13        -1.4399    3.4931   -2.4848 C.2       1 <0>         0.4555
     24 O1         -2.1865    2.7404   -3.0643 O.co2     1 <0>        -0.6195
     25 O2         -1.2373    4.7331   -2.9571 O.co2     1 <0>        -0.7057
     26 H6          1.9646    1.2732    1.6093 H         1 <0>         0.0637
     27 H7          1.9671    1.2639    3.4056 H         1 <0>         0.0751
     28 H8          0.0326   -0.0193    2.5026 H         1 <0>         0.0722
     29 H9         -0.5171    1.4300    3.4103 H         1 <0>         0.0804
     30 H10         1.0193    1.4666    0.0003 H         1 <0>         0.1239
     31 H11         0.0023   -0.0141    0.0020 H         1 <0>         0.1234
     32 H12        -0.2240    1.1958   -2.0867 H         1 <0>         0.4471
     33 H13        -1.4690    4.6884   -0.0400 H         1 <0>         0.1098
     34 H14        -2.5100    3.2249   -0.0092 H         1 <0>         0.0834
     35 H15         1.2001    3.2969    0.3716 H         1 <0>         0.0616
     36 H16         0.6485    4.7495    1.2729 H         1 <0>         0.0787
     37 H17         3.3877    3.2765    1.6738 H         1 <0>         0.0668
     38 H18         2.8060    4.7937    2.4394 H         1 <0>         0.0737
     39 H19         2.9651    3.7233    4.6816 H         1 <0>         0.0981
     40 H20         3.5469    2.2061    3.9159 H         1 <0>         0.0951
     41 H21        -1.7629    1.2137   -1.1603 H         1 <0>         0.4458
@<TRIPOS>BOND
     1    1   13 1
     2    1    2 1
     3    1   26 1
     4    1   27 1
     5    2    3 1
     6    2   28 1
     7    2   29 1
     8    3    4 1
     9    3   10 1
    10    3    5 1
    11    5    6 1
    12    5   30 1
    13    5   31 1
    14    6    7 1
    15    6   32 1
    16    6   41 1
    17    7    8 1
    18    7    9 1
    19    7   23 1
    20    9   10 1
    21    9   33 1
    22    9   34 1
    23   10   11 1
    24   10   12 1
    25   12   13 1
    26   12   35 1
    27   12   36 1
    28   13   14 1
    29   13   15 1
    30   15   16 1
    31   15   37 1
    32   15   38 1
    33   16   17 1
    34   16   39 1
    35   16   40 1
    36   17   18 2
    37   17   22 1
    38   18   19 1
    39   19   20 1
    40   19   21 1
    41   21   22 2
    42   23   24 2
    43   23   25 1
@<TRIPOS>MOLECULE
ZINC34031217
   41    43     0     0     0
SMALL
USER_CHARGES
(3S,4aS,6S,8aS)-6-[2-(2H-tetrazol-5-yl)ethyl]-1,2,3,4,4a,5,6,7,8,8a-decahydroisoquinoline-3-carboxylic acid
@<TRIPOS>ATOM
      1 C1          3.3115    5.9960   -3.0937 C.3       1 <0>        -0.1174
      2 C2          3.5146    5.2304   -1.7875 C.3       1 <0>        -0.1341
      3 C3          2.3939    5.6194   -0.8218 C.3       1 <0>        -0.1007
      4 H1          2.3706    6.7125   -0.7012 H         1 <0>         0.1081
      5 C4          2.6391    4.9940    0.5496 C.3       1 <0>         0.0039
      6 N1          2.5577    3.5318    0.4699 N.4       1 <0>        -0.5203
      7 C5          1.2349    3.0936    0.0069 C.3       1 <0>        -0.0107
      8 H2          0.4835    3.4859    0.7080 H         1 <0>         0.1292
      9 C6          1.0066    3.6197   -1.4153 C.3       1 <0>        -0.1215
     10 C7          1.0597    5.1462   -1.3916 C.3       1 <0>        -0.0867
     11 H3          0.2536    5.5113   -0.7382 H         1 <0>         0.0793
     12 C8          0.8002    5.7368   -2.7657 C.3       1 <0>        -0.1074
     13 C9          1.9690    5.6691   -3.7291 C.3       1 <0>        -0.0857
     14 H4          1.7789    6.4644   -4.4649 H         1 <0>         0.0716
     15 C10         2.0240    4.3178   -4.4428 C.3       1 <0>        -0.1192
     16 C11         3.1384    4.3396   -5.4909 C.3       1 <0>        -0.0451
     17 C12         3.1926    3.0079   -6.1942 C.2       1 <0>         0.1699
     18 N2          2.5330    2.6685   -7.2744 N.pl3     1 <0>        -0.3972
     19 N3          2.8416    1.4505   -7.5612 N.2       1 <0>        -0.0974
     20 H5          1.8614    3.3925   -7.7590 H         1 <0>         0.4903
     21 N4          3.6848    1.0135   -6.6914 N.2       1 <0>        -0.0596
     22 N5          3.9207    1.9500   -5.8363 N.2       1 <0>        -0.3053
     23 C13         1.1765    1.5884   -0.0006 C.2       1 <0>         0.4544
     24 O1          2.1986    0.9442   -0.0139 O.co2     1 <0>        -0.6159
     25 O2         -0.0110    0.9628    0.0073 O.co2     1 <0>        -0.7067
     26 H6          4.1212    5.7230   -3.7864 H         1 <0>         0.0765
     27 H7          3.3620    7.0733   -2.8770 H         1 <0>         0.0688
     28 H8          3.4813    4.1492   -1.9873 H         1 <0>         0.0701
     29 H9          4.4917    5.4937   -1.3563 H         1 <0>         0.0767
     30 H10         3.6399    5.2769    0.9080 H         1 <0>         0.1244
     31 H11         1.8799    5.3558    1.2586 H         1 <0>         0.1194
     32 H12         3.3153    3.1603   -0.2358 H         1 <0>         0.4452
     33 H13         1.7912    3.2303   -2.0806 H         1 <0>         0.0880
     34 H14         0.0220    3.2871   -1.7757 H         1 <0>         0.1070
     35 H15        -0.0316    5.1995   -3.2446 H         1 <0>         0.0740
     36 H16         0.5395    6.8006   -2.6643 H         1 <0>         0.0700
     37 H17         2.2262    3.5236   -3.7091 H         1 <0>         0.0800
     38 H18         1.0602    4.1243   -4.9363 H         1 <0>         0.0702
     39 H19         2.9362    5.1338   -6.2246 H         1 <0>         0.0944
     40 H20         4.1022    4.5331   -4.9974 H         1 <0>         0.1112
     41 H21         2.7402    3.0996    1.4648 H         1 <0>         0.4481
@<TRIPOS>BOND
     1    1   13 1
     2    1    2 1
     3    1   26 1
     4    1   27 1
     5    2    3 1
     6    2   28 1
     7    2   29 1
     8    3    4 1
     9    3   10 1
    10    3    5 1
    11    5    6 1
    12    5   30 1
    13    5   31 1
    14    6    7 1
    15    6   32 1
    16    6   41 1
    17    7    8 1
    18    7    9 1
    19    7   23 1
    20    9   10 1
    21    9   33 1
    22    9   34 1
    23   10   11 1
    24   10   12 1
    25   12   13 1
    26   12   35 1
    27   12   36 1
    28   13   14 1
    29   13   15 1
    30   15   16 1
    31   15   37 1
    32   15   38 1
    33   16   17 1
    34   16   39 1
    35   16   40 1
    36   17   18 1
    37   17   22 2
    38   18   20 1
    39   18   19 1
    40   19   21 2
    41   21   22 1
    42   23   24 2
    43   23   25 1
@<TRIPOS>MOLECULE
ZINC34031217
   40    42     0     0     0
SMALL
USER_CHARGES
(3S,4aS,6S,8aS)-6-[2-(2H-tetrazol-5-yl)ethyl]-1,2,3,4,4a,5,6,7,8,8a-decahydroisoquinoline-3-carboxylic acid
@<TRIPOS>ATOM
      1 C1          3.3115    5.9960   -3.0937 C.3       1 <0>        -0.1142
      2 C2          3.5146    5.2304   -1.7875 C.3       1 <0>        -0.1324
      3 C3          2.3939    5.6194   -0.8218 C.3       1 <0>        -0.1000
      4 H1          2.3706    6.7125   -0.7012 H         1 <0>         0.1047
      5 C4          2.6391    4.9940    0.5496 C.3       1 <0>         0.0064
      6 N1          2.5577    3.5318    0.4699 N.4       1 <0>        -0.5202
      7 C5          1.2349    3.0936    0.0069 C.3       1 <0>        -0.0080
      8 H2          0.4835    3.4859    0.7080 H         1 <0>         0.1259
      9 C6          1.0066    3.6197   -1.4153 C.3       1 <0>        -0.1260
     10 C7          1.0597    5.1462   -1.3916 C.3       1 <0>        -0.0814
     11 H3          0.2536    5.5113   -0.7382 H         1 <0>         0.0731
     12 C8          0.8002    5.7368   -2.7657 C.3       1 <0>        -0.1069
     13 C9          1.9690    5.6691   -3.7291 C.3       1 <0>        -0.0873
     14 H4          1.7789    6.4644   -4.4649 H         1 <0>         0.0647
     15 C10         2.0240    4.3178   -4.4428 C.3       1 <0>        -0.1058
     16 C11         3.1384    4.3396   -5.4909 C.3       1 <0>        -0.0005
     17 C12         3.1926    3.0079   -6.1942 C.2       1 <0>         0.0508
     18 N2          2.5330    2.6685   -7.2744 N.2       1 <0>        -0.3886
     19 N3          2.8416    1.4505   -7.5612 N.2       1 <0>        -0.2059
     20 N4          3.6848    1.0135   -6.6914 N.2       1 <0>        -0.1923
     21 N5          3.9207    1.9500   -5.8363 N.2       1 <0>        -0.3934
     22 C13         1.1765    1.5884   -0.0006 C.2       1 <0>         0.4562
     23 O1          2.1986    0.9442   -0.0139 O.co2     1 <0>        -0.6153
     24 O2         -0.0110    0.9628    0.0073 O.co2     1 <0>        -0.7111
     25 H5          4.1212    5.7230   -3.7864 H         1 <0>         0.0804
     26 H6          3.3620    7.0733   -2.8770 H         1 <0>         0.0591
     27 H7          3.4813    4.1492   -1.9873 H         1 <0>         0.0726
     28 H8          4.4917    5.4937   -1.3563 H         1 <0>         0.0713
     29 H9          3.6399    5.2769    0.9080 H         1 <0>         0.1213
     30 H10         1.8799    5.3558    1.2586 H         1 <0>         0.1158
     31 H11         3.3153    3.1603   -0.2358 H         1 <0>         0.4485
     32 H12         1.7912    3.2303   -2.0806 H         1 <0>         0.0955
     33 H13         0.0220    3.2871   -1.7757 H         1 <0>         0.1072
     34 H14        -0.0316    5.1995   -3.2446 H         1 <0>         0.0736
     35 H15         0.5395    6.8006   -2.6643 H         1 <0>         0.0624
     36 H16         2.2262    3.5236   -3.7091 H         1 <0>         0.0644
     37 H17         1.0602    4.1243   -4.9363 H         1 <0>         0.0633
     38 H18         2.9362    5.1338   -6.2246 H         1 <0>         0.0628
     39 H19         4.1022    4.5331   -4.9974 H         1 <0>         0.0663
     40 H20         2.7402    3.0996    1.4648 H         1 <0>         0.4431
@<TRIPOS>BOND
     1    1   13 1
     2    1    2 1
     3    1   25 1
     4    1   26 1
     5    2    3 1
     6    2   27 1
     7    2   28 1
     8    3    4 1
     9    3   10 1
    10    3    5 1
    11    5    6 1
    12    5   29 1
    13    5   30 1
    14    6    7 1
    15    6   31 1
    16    6   40 1
    17    7    8 1
    18    7    9 1
    19    7   22 1
    20    9   10 1
    21    9   32 1
    22    9   33 1
    23   10   11 1
    24   10   12 1
    25   12   13 1
    26   12   34 1
    27   12   35 1
    28   13   14 1
    29   13   15 1
    30   15   16 1
    31   15   36 1
    32   15   37 1
    33   16   17 1
    34   16   38 1
    35   16   39 1
    36   17   18 1
    37   17   21 2
    38   18   19 1
    39   19   20 2
    40   20   21 1
    41   22   23 2
    42   22   24 1
@<TRIPOS>MOLECULE
ZINC34031218
   41    43     0     0     0
SMALL
USER_CHARGES
(3S,4aS,6S,8aR)-6-[2-(2H-tetrazol-5-yl)ethyl]-1,2,3,4,4a,5,6,7,8,8a-decahydroisoquinoline-3-carboxylic acid
@<TRIPOS>ATOM
      1 C1         -2.1687    1.0561    1.2760 C.3       1 <0>        -0.1196
      2 C2         -2.9075    1.5539    0.0313 C.3       1 <0>        -0.1113
      3 C3         -2.1857    1.0500   -1.2190 C.3       1 <0>        -0.1052
      4 H1         -2.1718   -0.0499   -1.2080 H         1 <0>         0.0915
      5 C4         -2.9149    1.5310   -2.4742 C.3       1 <0>         0.0020
      6 N1         -2.2014    1.0506   -3.6652 N.4       1 <0>        -0.5191
      7 C5         -0.8345    1.5832   -3.7216 C.3       1 <0>        -0.0097
      8 H2         -0.9085    2.6805   -3.7419 H         1 <0>         0.1278
      9 C6         -0.0449    1.1125   -2.4972 C.3       1 <0>        -0.1190
     10 C7         -0.7540    1.5932   -1.2294 C.3       1 <0>        -0.0922
     11 H3         -0.7674    2.6930   -1.2150 H         1 <0>         0.0863
     12 C8         -0.0127    1.0858    0.0080 C.3       1 <0>        -0.1107
     13 C9         -0.7309    1.5803    1.2661 C.3       1 <0>        -0.0858
     14 H4         -0.7438    2.6802    1.2717 H         1 <0>         0.0807
     15 C10         0.0066    1.0721    2.5065 C.3       1 <0>        -0.1142
     16 C11        -0.6357    1.6670    3.7612 C.3       1 <0>        -0.0436
     17 C12         0.0907    1.1664    4.9830 C.2       1 <0>         0.1728
     18 N2         -0.1891    0.0855    5.6690 N.pl3     1 <0>        -0.3979
     19 N3          0.6618   -0.0035    6.6330 N.2       1 <0>        -0.0983
     20 H5         -1.0331   -0.5530    5.3694 H         1 <0>         0.4902
     21 N4          1.4637    1.0028    6.5816 N.2       1 <0>        -0.0614
     22 N5          1.1407    1.7386    5.5724 N.2       1 <0>        -0.3067
     23 C13        -0.1564    1.0922   -4.9747 C.2       1 <0>         0.4552
     24 O1         -0.5800    0.1168   -5.5483 O.co2     1 <0>        -0.6191
     25 O2          0.9182    1.7385   -5.4535 O.co2     1 <0>        -0.7046
     26 H6         -2.1579   -0.0438    1.2783 H         1 <0>         0.0673
     27 H7         -2.6853    1.4196    2.1766 H         1 <0>         0.0721
     28 H8         -3.9392    1.1724    0.0402 H         1 <0>         0.0724
     29 H9         -2.9233    2.6538    0.0296 H         1 <0>         0.0730
     30 H10        -3.9415    1.1359   -2.4759 H         1 <0>         0.1240
     31 H11        -2.9452    2.6306   -2.4820 H         1 <0>         0.1202
     32 H12        -2.1474   -0.0478   -3.6421 H         1 <0>         0.4464
     33 H13         0.0101    0.0139   -2.4966 H         1 <0>         0.0824
     34 H14         0.9719    1.5305   -2.5337 H         1 <0>         0.1100
     35 H15         0.0025   -0.0141    0.0009 H         1 <0>         0.0686
     36 H16         1.0192    1.4668   -0.0008 H         1 <0>         0.0761
     37 H17        -0.0572   -0.0253    2.5471 H         1 <0>         0.0670
     38 H18         1.0625    1.3763    2.4557 H         1 <0>         0.0793
     39 H19        -0.5719    2.7644    3.7206 H         1 <0>         0.1096
     40 H20        -1.6916    1.3628    3.8121 H         1 <0>         0.0946
     41 H21        -2.7390    1.3723   -4.5694 H         1 <0>         0.4485
@<TRIPOS>BOND
     1    1   13 1
     2    1    2 1
     3    1   26 1
     4    1   27 1
     5    2    3 1
     6    2   28 1
     7    2   29 1
     8    3    4 1
     9    3   10 1
    10    3    5 1
    11    5    6 1
    12    5   30 1
    13    5   31 1
    14    6    7 1
    15    6   32 1
    16    6   41 1
    17    7    8 1
    18    7    9 1
    19    7   23 1
    20    9   10 1
    21    9   33 1
    22    9   34 1
    23   10   11 1
    24   10   12 1
    25   12   13 1
    26   12   35 1
    27   12   36 1
    28   13   14 1
    29   13   15 1
    30   15   16 1
    31   15   37 1
    32   15   38 1
    33   16   17 1
    34   16   39 1
    35   16   40 1
    36   17   18 1
    37   17   22 2
    38   18   20 1
    39   18   19 1
    40   19   21 2
    41   21   22 1
    42   23   24 2
    43   23   25 1
@<TRIPOS>MOLECULE
ZINC34031218
   40    42     0     0     0
SMALL
USER_CHARGES
(3S,4aS,6S,8aR)-6-[2-(2H-tetrazol-5-yl)ethyl]-1,2,3,4,4a,5,6,7,8,8a-decahydroisoquinoline-3-carboxylic acid
@<TRIPOS>ATOM
      1 C1         -2.1687    1.0561    1.2760 C.3       1 <0>        -0.1183
      2 C2         -2.9075    1.5539    0.0313 C.3       1 <0>        -0.1086
      3 C3         -2.1857    1.0500   -1.2190 C.3       1 <0>        -0.1048
      4 H1         -2.1718   -0.0499   -1.2080 H         1 <0>         0.0911
      5 C4         -2.9149    1.5310   -2.4742 C.3       1 <0>         0.0030
      6 N1         -2.2014    1.0506   -3.6652 N.4       1 <0>        -0.5179
      7 C5         -0.8345    1.5832   -3.7216 C.3       1 <0>        -0.0087
      8 H2         -0.9085    2.6805   -3.7419 H         1 <0>         0.1267
      9 C6         -0.0449    1.1125   -2.4972 C.3       1 <0>        -0.1189
     10 C7         -0.7540    1.5932   -1.2294 C.3       1 <0>        -0.0911
     11 H3         -0.7674    2.6930   -1.2150 H         1 <0>         0.0839
     12 C8         -0.0127    1.0858    0.0080 C.3       1 <0>        -0.1097
     13 C9         -0.7309    1.5803    1.2661 C.3       1 <0>        -0.0838
     14 H4         -0.7438    2.6802    1.2717 H         1 <0>         0.0714
     15 C10         0.0066    1.0721    2.5065 C.3       1 <0>        -0.1043
     16 C11        -0.6357    1.6670    3.7612 C.3       1 <0>         0.0001
     17 C12         0.0907    1.1664    4.9830 C.2       1 <0>         0.0531
     18 N2         -0.1891    0.0855    5.6690 N.2       1 <0>        -0.3887
     19 N3          0.6618   -0.0035    6.6330 N.2       1 <0>        -0.2064
     20 N4          1.4637    1.0028    6.5816 N.2       1 <0>        -0.1943
     21 N5          1.1407    1.7386    5.5724 N.2       1 <0>        -0.3951
     22 C13        -0.1564    1.0922   -4.9747 C.2       1 <0>         0.4574
     23 O1         -0.5800    0.1168   -5.5483 O.co2     1 <0>        -0.6221
     24 O2          0.9182    1.7385   -5.4535 O.co2     1 <0>        -0.7082
     25 H5         -2.1579   -0.0438    1.2783 H         1 <0>         0.0660
     26 H6         -2.6853    1.4196    2.1766 H         1 <0>         0.0759
     27 H7         -3.9392    1.1724    0.0402 H         1 <0>         0.0681
     28 H8         -2.9233    2.6538    0.0296 H         1 <0>         0.0695
     29 H9         -3.9415    1.1359   -2.4759 H         1 <0>         0.1226
     30 H10        -2.9452    2.6306   -2.4820 H         1 <0>         0.1190
     31 H11        -2.1474   -0.0478   -3.6421 H         1 <0>         0.4460
     32 H12         0.0101    0.0139   -2.4966 H         1 <0>         0.0819
     33 H13         0.9719    1.5305   -2.5337 H         1 <0>         0.1088
     34 H14         0.0025   -0.0141    0.0009 H         1 <0>         0.0667
     35 H15         1.0192    1.4668   -0.0008 H         1 <0>         0.0724
     36 H16        -0.0572   -0.0253    2.5471 H         1 <0>         0.0612
     37 H17         1.0625    1.3763    2.4557 H         1 <0>         0.0628
     38 H18        -0.5719    2.7644    3.7206 H         1 <0>         0.0633
     39 H19        -1.6916    1.3628    3.8121 H         1 <0>         0.0655
     40 H20        -2.7390    1.3723   -4.5694 H         1 <0>         0.4443
@<TRIPOS>BOND
     1    1   13 1
     2    1    2 1
     3    1   25 1
     4    1   26 1
     5    2    3 1
     6    2   27 1
     7    2   28 1
     8    3    4 1
     9    3   10 1
    10    3    5 1
    11    5    6 1
    12    5   29 1
    13    5   30 1
    14    6    7 1
    15    6   31 1
    16    6   40 1
    17    7    8 1
    18    7    9 1
    19    7   22 1
    20    9   10 1
    21    9   32 1
    22    9   33 1
    23   10   11 1
    24   10   12 1
    25   12   13 1
    26   12   34 1
    27   12   35 1
    28   13   14 1
    29   13   15 1
    30   15   16 1
    31   15   36 1
    32   15   37 1
    33   16   17 1
    34   16   38 1
    35   16   39 1
    36   17   18 1
    37   17   21 2
    38   18   19 1
    39   19   20 2
    40   20   21 1
    41   22   23 2
    42   22   24 1
@<TRIPOS>MOLECULE
ZINC34031219
   41    43     0     0     0
SMALL
USER_CHARGES
(3R,4aS,6S,8aR)-6-[2-(2H-tetrazol-5-yl)ethyl]-1,2,3,4,4a,5,6,7,8,8a-decahydroisoquinoline-3-carboxylic acid
@<TRIPOS>ATOM
      1 C1         -0.8765    3.4775   -1.2124 C.3       1 <0>        -0.1176
      2 C2         -0.8231    1.9478   -1.2242 C.3       1 <0>        -0.1125
      3 C3         -0.0645    1.4602    0.0107 C.3       1 <0>        -0.0984
      4 H1         -0.5857    1.8092    0.9143 H         1 <0>         0.0827
      5 C4         -0.0085   -0.0680    0.0214 C.3       1 <0>        -0.0171
      6 N1          0.7345   -0.5190    1.2060 N.4       1 <0>        -0.5103
      7 C5          2.1187   -0.0301    1.1877 C.3       1 <0>        -0.0187
      8 H2          2.6233   -0.4328    2.0783 H         1 <0>         0.1319
      9 C6          2.1256    1.5009    1.2016 C.3       1 <0>        -0.1139
     10 C7          1.3621    2.0161   -0.0202 C.3       1 <0>        -0.0933
     11 H3          1.8761    1.6884   -0.9358 H         1 <0>         0.0935
     12 C8          1.3086    3.5441    0.0036 C.3       1 <0>        -0.1065
     13 C9          0.5450    4.0419   -1.2260 C.3       1 <0>        -0.0866
     14 H4          1.0614    3.7057   -2.1372 H         1 <0>         0.0793
     15 C10         0.4862    5.5707   -1.2044 C.3       1 <0>        -0.1125
     16 C11        -0.1665    6.0742   -2.4934 C.3       1 <0>        -0.0457
     17 C12        -0.2245    7.5799   -2.4721 C.2       1 <0>         0.1750
     18 N2          0.6931    8.4025   -2.9177 N.pl3     1 <0>        -0.3974
     19 N3          0.2779    9.6060   -2.7167 N.2       1 <0>        -0.0989
     20 H5          1.6164    8.0063   -3.3655 H         1 <0>         0.4921
     21 N4         -0.8826    9.5640   -2.1600 N.2       1 <0>        -0.0637
     22 N5         -1.2190    8.3295   -1.9964 N.2       1 <0>        -0.3090
     23 C13         2.8082   -0.5233   -0.0583 C.2       1 <0>         0.4620
     24 O1          2.2273   -1.2615   -0.8182 O.co2     1 <0>        -0.6197
     25 O2          4.0677   -0.1426   -0.3237 O.co2     1 <0>        -0.7035
     26 H6         -1.3974    3.8176   -0.3052 H         1 <0>         0.0676
     27 H7         -1.4198    3.8307   -2.1013 H         1 <0>         0.0729
     28 H8         -1.8466    1.5451   -1.2109 H         1 <0>         0.0712
     29 H9         -0.3064    1.6059   -2.1331 H         1 <0>         0.0743
     30 H10        -1.0311   -0.4722    0.0525 H         1 <0>         0.1151
     31 H11         0.4985   -0.4227   -0.8881 H         1 <0>         0.1599
     32 H12         0.2423   -0.1400    2.1138 H         1 <0>         0.4266
     33 H13         1.6401    1.8614    2.1204 H         1 <0>         0.0735
     34 H14         3.1637    1.8632    1.1691 H         1 <0>         0.1112
     35 H15         0.7949    3.8788    0.9169 H         1 <0>         0.0657
     36 H16         2.3320    3.9471   -0.0100 H         1 <0>         0.0720
     37 H17        -0.1066    5.9026   -0.3393 H         1 <0>         0.0759
     38 H18         1.5060    5.9758   -1.1273 H         1 <0>         0.0680
     39 H19         0.4264    5.7423   -3.3585 H         1 <0>         0.0955
     40 H20        -1.1862    5.6690   -2.5706 H         1 <0>         0.1107
     41 H21         0.7528   -1.6186    1.2307 H         1 <0>         0.4488
@<TRIPOS>BOND
     1    1   13 1
     2    1    2 1
     3    1   26 1
     4    1   27 1
     5    2    3 1
     6    2   28 1
     7    2   29 1
     8    3    4 1
     9    3   10 1
    10    3    5 1
    11    5    6 1
    12    5   30 1
    13    5   31 1
    14    6    7 1
    15    6   32 1
    16    6   41 1
    17    7    8 1
    18    7    9 1
    19    7   23 1
    20    9   10 1
    21    9   33 1
    22    9   34 1
    23   10   11 1
    24   10   12 1
    25   12   13 1
    26   12   35 1
    27   12   36 1
    28   13   14 1
    29   13   15 1
    30   15   16 1
    31   15   37 1
    32   15   38 1
    33   16   17 1
    34   16   39 1
    35   16   40 1
    36   17   18 1
    37   17   22 2
    38   18   20 1
    39   18   19 1
    40   19   21 2
    41   21   22 1
    42   23   24 2
    43   23   25 1
@<TRIPOS>MOLECULE
ZINC34031219
   40    42     0     0     0
SMALL
USER_CHARGES
(3R,4aS,6S,8aR)-6-[2-(2H-tetrazol-5-yl)ethyl]-1,2,3,4,4a,5,6,7,8,8a-decahydroisoquinoline-3-carboxylic acid
@<TRIPOS>ATOM
      1 C1         -0.8765    3.4775   -1.2124 C.3       1 <0>        -0.1152
      2 C2         -0.8231    1.9478   -1.2242 C.3       1 <0>        -0.1103
      3 C3         -0.0645    1.4602    0.0107 C.3       1 <0>        -0.0972
      4 H1         -0.5857    1.8092    0.9143 H         1 <0>         0.0812
      5 C4         -0.0085   -0.0680    0.0214 C.3       1 <0>        -0.0163
      6 N1          0.7345   -0.5190    1.2060 N.4       1 <0>        -0.5089
      7 C5          2.1187   -0.0301    1.1877 C.3       1 <0>        -0.0173
      8 H2          2.6233   -0.4328    2.0783 H         1 <0>         0.1291
      9 C6          2.1256    1.5009    1.2016 C.3       1 <0>        -0.1139
     10 C7          1.3621    2.0161   -0.0202 C.3       1 <0>        -0.0930
     11 H3          1.8761    1.6884   -0.9358 H         1 <0>         0.0920
     12 C8          1.3086    3.5441    0.0036 C.3       1 <0>        -0.1052
     13 C9          0.5450    4.0419   -1.2260 C.3       1 <0>        -0.0862
     14 H4          1.0614    3.7057   -2.1372 H         1 <0>         0.0731
     15 C10         0.4862    5.5707   -1.2044 C.3       1 <0>        -0.1019
     16 C11        -0.1665    6.0742   -2.4934 C.3       1 <0>        -0.0015
     17 C12        -0.2245    7.5799   -2.4721 C.2       1 <0>         0.0552
     18 N2          0.6931    8.4025   -2.9177 N.2       1 <0>        -0.3872
     19 N3          0.2779    9.6060   -2.7167 N.2       1 <0>        -0.2069
     20 N4         -0.8826    9.5640   -2.1600 N.2       1 <0>        -0.1965
     21 N5         -1.2190    8.3295   -1.9964 N.2       1 <0>        -0.3967
     22 C13         2.8082   -0.5233   -0.0583 C.2       1 <0>         0.4630
     23 O1          2.2273   -1.2615   -0.8182 O.co2     1 <0>        -0.6221
     24 O2          4.0677   -0.1426   -0.3237 O.co2     1 <0>        -0.7037
     25 H5         -1.3974    3.8176   -0.3052 H         1 <0>         0.0633
     26 H6         -1.4198    3.8307   -2.1013 H         1 <0>         0.0748
     27 H7         -1.8466    1.5451   -1.2109 H         1 <0>         0.0662
     28 H8         -0.3064    1.6059   -2.1331 H         1 <0>         0.0722
     29 H9         -1.0311   -0.4722    0.0525 H         1 <0>         0.1130
     30 H10         0.4985   -0.4227   -0.8881 H         1 <0>         0.1592
     31 H11         0.2423   -0.1400    2.1138 H         1 <0>         0.4254
     32 H12         1.6401    1.8614    2.1204 H         1 <0>         0.0726
     33 H13         3.1637    1.8632    1.1691 H         1 <0>         0.1108
     34 H14         0.7949    3.8788    0.9169 H         1 <0>         0.0620
     35 H15         2.3320    3.9471   -0.0100 H         1 <0>         0.0705
     36 H16        -0.1066    5.9026   -0.3393 H         1 <0>         0.0595
     37 H17         1.5060    5.9758   -1.1273 H         1 <0>         0.0620
     38 H18         0.4264    5.7423   -3.3585 H         1 <0>         0.0645
     39 H19        -1.1862    5.6690   -2.5706 H         1 <0>         0.0657
     40 H20         0.7528   -1.6186    1.2307 H         1 <0>         0.4446
@<TRIPOS>BOND
     1    1   13 1
     2    1    2 1
     3    1   25 1
     4    1   26 1
     5    2    3 1
     6    2   27 1
     7    2   28 1
     8    3    4 1
     9    3   10 1
    10    3    5 1
    11    5    6 1
    12    5   29 1
    13    5   30 1
    14    6    7 1
    15    6   31 1
    16    6   40 1
    17    7    8 1
    18    7    9 1
    19    7   22 1
    20    9   10 1
    21    9   32 1
    22    9   33 1
    23   10   11 1
    24   10   12 1
    25   12   13 1
    26   12   34 1
    27   12   35 1
    28   13   14 1
    29   13   15 1
    30   15   16 1
    31   15   36 1
    32   15   37 1
    33   16   17 1
    34   16   38 1
    35   16   39 1
    36   17   18 1
    37   17   21 2
    38   18   19 1
    39   19   20 2
    40   20   21 1
    41   22   23 2
    42   22   24 1
@<TRIPOS>MOLECULE
ZINC28226478
   41    43     0     0     0
SMALL
USER_CHARGES

@<TRIPOS>ATOM
      1 C1         -0.0168    1.3864    0.0097 C.ar      1 <0>        -0.0683
      2 C2          1.1664    2.0948    0.0022 C.ar      1 <0>        -0.1951
      3 C3          2.3839    1.4220   -0.0135 C.ar      1 <0>         0.2393
      4 C4          2.4120    0.0361   -0.0217 C.ar      1 <0>        -0.1042
      5 C5          1.2229   -0.6825   -0.0138 C.ar      1 <0>         0.1823
      6 C6          0.0021   -0.0041    0.0020 C.ar      1 <0>         0.1035
      7 N1         -1.1997   -0.7093    0.0097 N.am      1 <0>        -0.6317
      8 H1         -2.0427   -0.2296    0.0203 H         1 <0>         0.4209
      9 C7         -1.1923   -2.0576    0.0019 C.2       1 <0>         0.5190
     10 O1         -2.2375   -2.6769    0.0078 O.2       1 <0>        -0.4729
     11 C8          0.1113   -2.7810   -0.0144 C.2       1 <0>         0.4966
     12 O2          0.1389   -3.9953   -0.0219 O.2       1 <0>        -0.4392
     13 N2          1.2594   -2.0739   -0.0221 N.am      1 <0>        -0.4929
     14 C9          2.5476   -2.7714   -0.0396 C.3       1 <0>        -0.5004
     15 P1          3.1000   -3.0706    1.6718 P.3       1 <0>         2.2143
     16 O3          3.1345   -1.7323    2.4431 O.2       1 <0>        -1.0646
     17 O4          2.1192   -4.0408    2.3674 O.3       1 <0>        -1.0668
     18 O5          4.5738   -3.7182    1.6546 O.3       1 <0>        -0.9003
     19 N3          3.5806    2.1445   -0.0216 N.pl3     1 <0>        -0.6819
     20 C10         4.2448    2.5239    1.2355 C.3       1 <0>         0.1097
     21 C11         5.7158    2.1009    1.1519 C.3       1 <0>         0.0440
     22 O6          6.2876    2.6215   -0.0505 O.3       1 <0>        -0.3833
     23 C12         5.6861    2.1235   -1.2480 C.3       1 <0>         0.0455
     24 C13         4.2165    2.5427   -1.2874 C.3       1 <0>         0.1103
     25 C14         1.1404    3.6016    0.0105 C.3       1 <0>         0.5244
     26 F1         -0.1864    4.0450    0.0256 F         1 <0>        -0.1833
     27 F2          1.8026    4.0731    1.1491 F         1 <0>        -0.1714
     28 F3          1.7808    4.0854   -1.1353 F         1 <0>        -0.1759
     29 H2         -0.9598    1.9125    0.0260 H         1 <0>         0.1517
     30 H3          3.3579   -0.4849   -0.0346 H         1 <0>         0.1441
     31 H4          2.4379   -3.7241   -0.5577 H         1 <0>         0.1064
     32 H5          3.2854   -2.1589   -0.5577 H         1 <0>         0.0951
     33 H6          4.9319   -3.9045    2.5333 H         1 <0>         0.4170
     34 H7          4.1804    3.6032    1.3735 H         1 <0>         0.0631
     35 H8          3.7640    2.0170    2.0722 H         1 <0>         0.0927
     36 H9          6.2572    2.4940    2.0124 H         1 <0>         0.1011
     37 H10         5.7820    1.0129    1.1452 H         1 <0>         0.0606
     38 H11         6.2061    2.5329   -2.1141 H         1 <0>         0.0972
     39 H12         5.7522    1.0356   -1.2635 H         1 <0>         0.0516
     40 H13         3.7171    2.0484   -2.1206 H         1 <0>         0.0770
     41 H14         4.1492    3.6240   -1.4077 H         1 <0>         0.0650
@<TRIPOS>BOND
     1    1    6 ar
     2    1    2 ar
     3    1   29 1
     4    2    3 ar
     5    2   25 1
     6    3    4 ar
     7    3   19 1
     8    4    5 ar
     9    4   30 1
    10    5   13 1
    11    5    6 ar
    12    6    7 1
    13    7    8 1
    14    7    9 am
    15    9   10 2
    16    9   11 1
    17   11   12 2
    18   11   13 am
    19   13   14 1
    20   14   15 1
    21   14   31 1
    22   14   32 1
    23   15   16 2
    24   15   17 1
    25   15   18 1
    26   18   33 1
    27   19   24 1
    28   19   20 1
    29   20   21 1
    30   20   34 1
    31   20   35 1
    32   21   22 1
    33   21   36 1
    34   21   37 1
    35   22   23 1
    36   23   24 1
    37   23   38 1
    38   23   39 1
    39   24   40 1
    40   24   41 1
    41   25   26 1
    42   25   27 1
    43   25   28 1
@<TRIPOS>MOLECULE
ZINC08585017
   31    33     0     0     0
SMALL
USER_CHARGES

@<TRIPOS>ATOM
      1 C1          0.2332    1.3841    0.6570 C.ar      1 <0>        -0.1163
      2 C2          1.3450    2.1030    0.3352 C.ar      1 <0>        -0.0461
      3 C3          2.5286    1.4337   -0.0104 C.ar      1 <0>        -0.0508
      4 C4          2.5507    0.0178   -0.0197 C.ar      1 <0>         0.0703
      5 C5          1.3858   -0.6903    0.3181 C.ar      1 <0>        -0.6623
      6 C6          0.2539   -0.0082    0.6481 C.ar      1 <0>         0.0100
      7 S1          1.3881   -2.4523    0.3133 S.o2      1 <0>         2.6604
      8 O1          1.2671   -2.8548   -1.0441 O.2       1 <0>        -0.9037
      9 O2          2.4738   -2.8593    1.1348 O.2       1 <0>        -0.9426
     10 N1          0.0047   -2.9457    1.0783 N.pl3     1 <0>        -1.2465
     11 C7          3.7370   -0.6553   -0.3670 C.ar      1 <0>        -0.0313
     12 C8          4.8514    0.0498   -0.6900 C.ar      1 <0>        -0.0208
     13 C9          4.8498    1.4521   -0.6862 C.ar      1 <0>         0.1138
     14 C10         3.6989    2.1491   -0.3497 C.ar      1 <0>         0.1787
     15 N2          3.6832    3.5358   -0.3424 N.am      1 <0>        -0.6274
     16 H1          2.8706    4.0090   -0.1045 H         1 <0>         0.4261
     17 C11         4.7946    4.2283   -0.6646 C.2       1 <0>         0.5118
     18 O3          4.7862    5.4433   -0.6593 O.2       1 <0>        -0.4441
     19 C12         6.0334    3.4831   -1.0268 C.2       1 <0>         0.5112
     20 O4          7.0481    4.0831   -1.3210 O.2       1 <0>        -0.4495
     21 N3          6.0144    2.1351   -1.0235 N.am      1 <0>        -0.6258
     22 H2          6.8149    1.6397   -1.2576 H         1 <0>         0.4304
     23 N4          3.7698   -2.1354   -0.3796 N.pl3     1 <0>        -0.0336
     24 O5          4.3500   -2.7346    0.4957 O.2       1 <0>        -0.0101
     25 O6          3.2166   -2.7448   -1.2651 O.3       1 <0>        -0.1547
     26 H3         -0.6756    1.9014    0.9270 H         1 <0>         0.1537
     27 H4          1.3152    3.1825    0.3457 H         1 <0>         0.1466
     28 H5         -0.6405   -0.5552    0.9075 H         1 <0>         0.1465
     29 H6         -0.6187   -2.2884    1.4249 H         1 <0>         0.4109
     30 H7         -0.1821   -3.8921    1.1798 H         1 <0>         0.4276
     31 H8          5.7553   -0.4788   -0.9543 H         1 <0>         0.1677
@<TRIPOS>BOND
     1    1    6 ar
     2    1    2 ar
     3    1   26 1
     4    2    3 ar
     5    2   27 1
     6    3   14 ar
     7    3    4 ar
     8    4    5 ar
     9    4   11 ar
    10    5    6 ar
    11    5    7 1
    12    6   28 1
    13    7    8 2
    14    7    9 2
    15    7   10 1
    16   10   29 1
    17   10   30 1
    18   11   12 ar
    19   11   23 1
    20   12   13 ar
    21   12   31 1
    22   13   21 1
    23   13   14 ar
    24   14   15 1
    25   15   16 1
    26   15   17 am
    27   17   18 2
    28   17   19 1
    29   19   20 2
    30   19   21 am
    31   21   22 1
    32   23   24 2
    33   23   25 1
@<TRIPOS>MOLECULE
ZINC08585017
   30    32     0     0     0
SMALL
USER_CHARGES

@<TRIPOS>ATOM
      1 C1         -0.6276    0.4370   -1.7736 C.ar      1 <0>        -0.1731
      2 C2          0.3567    1.2003   -2.3318 C.ar      1 <0>         0.0069
      3 C3          1.6968    0.8795   -2.0978 C.ar      1 <0>        -0.0630
      4 C4          2.0190   -0.2327   -1.2850 C.ar      1 <0>         0.0918
      5 C5          0.9824   -0.9962   -0.7260 C.ar      1 <0>        -0.6997
      6 C6         -0.3146   -0.6572   -0.9739 C.ar      1 <0>         0.0068
      7 S1          1.3554   -2.3868    0.2896 S.o2      1 <0>         2.6622
      8 O1          1.7041   -3.4487   -0.5879 O.2       1 <0>        -0.9158
      9 O2          2.2299   -1.9224    1.3088 O.2       1 <0>        -0.9452
     10 N1         -0.0506   -2.8358    1.0407 N.pl3     1 <0>        -1.2459
     11 C7          3.3708   -0.5559   -1.0503 C.ar      1 <0>        -0.1204
     12 C8          4.3691    0.1831   -1.5919 C.ar      1 <0>         0.0054
     13 C9          4.1065    1.2943   -2.4040 C.ar      1 <0>        -0.0110
     14 C10         2.7853    1.6709   -2.6771 C.ar      1 <0>         0.2503
     15 N2          2.5158    2.7321   -3.4521 N.2       1 <0>        -0.5968
     16 C11         3.4796    3.4477   -3.9760 C.2       1 <0>         0.4326
     17 O3          3.1851    4.5165   -4.7560 O.3       1 <0>        -0.5869
     18 C12         4.8815    3.0897   -3.7160 C.2       1 <0>         0.4736
     19 O4          5.7864    3.7475   -4.1978 O.2       1 <0>        -0.5174
     20 N3          5.1522    2.0207   -2.9364 N.am      1 <0>        -0.6182
     21 H1          6.0702    1.7673   -2.7519 H         1 <0>         0.4056
     22 N4          3.7049   -1.7200   -0.1990 N.pl3     1 <0>        -0.0190
     23 O5          4.1212   -1.5487    0.9230 O.2       1 <0>        -0.0412
     24 O6          3.5614   -2.8420   -0.6258 O.3       1 <0>        -0.1772
     25 H2         -1.6628    0.6885   -1.9514 H         1 <0>         0.1355
     26 H3          0.1015    2.0474   -2.9513 H         1 <0>         0.1531
     27 H4         -1.1104   -1.2463   -0.5426 H         1 <0>         0.1338
     28 H5         -0.4520   -3.6967    0.8440 H         1 <0>         0.4197
     29 H6         -0.4727   -2.2379    1.6772 H         1 <0>         0.4165
     30 H7          5.3943   -0.0914   -1.3921 H         1 <0>         0.1369
@<TRIPOS>BOND
     1    1    6 ar
     2    1    2 ar
     3    1   25 1
     4    2    3 ar
     5    2   26 1
     6    3   14 ar
     7    3    4 ar
     8    4    5 ar
     9    4   11 ar
    10    5    6 ar
    11    5    7 1
    12    6   27 1
    13    7    8 2
    14    7    9 2
    15    7   10 1
    16   10   28 1
    17   10   29 1
    18   11   12 ar
    19   11   22 1
    20   12   13 ar
    21   12   30 1
    22   13   20 1
    23   13   14 ar
    24   14   15 1
    25   15   16 2
    26   16   17 1
    27   16   18 1
    28   18   19 2
    29   18   20 am
    30   20   21 1
    31   22   23 2
    32   22   24 1
@<TRIPOS>MOLECULE
ZINC08585017
   30    32     0     0     0
SMALL
USER_CHARGES

@<TRIPOS>ATOM
      1 C1          0.2456    1.3834    0.6714 C.ar      1 <0>        -0.1313
      2 C2          1.3577    2.1012    0.3447 C.ar      1 <0>        -0.0563
      3 C3          2.5384    1.4313   -0.0062 C.ar      1 <0>        -0.0329
      4 C4          2.5597    0.0160   -0.0166 C.ar      1 <0>         0.0376
      5 C5          1.3970   -0.6903    0.3261 C.ar      1 <0>        -0.6495
      6 C6          0.2655   -0.0079    0.6614 C.ar      1 <0>        -0.0272
      7 S1          1.3984   -2.4523    0.3206 S.o2      1 <0>         2.6599
      8 O1          1.2733   -2.8543   -1.0366 O.2       1 <0>        -0.9123
      9 O2          2.4863   -2.8602    1.1387 O.2       1 <0>        -0.9464
     10 N1          0.0171   -2.9454    1.0895 N.pl3     1 <0>        -1.2511
     11 C7          3.7448   -0.6631   -0.3704 C.ar      1 <0>        -0.0537
     12 C8          4.8595    0.0289   -0.6994 C.ar      1 <0>         0.0031
     13 C9          4.8669    1.4424   -0.6970 C.ar      1 <0>         0.1698
     14 C10         3.7083    2.1457   -0.3510 C.ar      1 <0>         0.0654
     15 N2          3.7054    3.5214   -0.3466 N.am      1 <0>        -0.6172
     16 H1          2.9024    4.0100   -0.1071 H         1 <0>         0.4012
     17 C11         4.8349    4.1831   -0.6796 C.2       1 <0>         0.4746
     18 O3          4.8602    5.4008   -0.6836 O.2       1 <0>        -0.5142
     19 C12         6.0339    3.4096   -1.0369 C.2       1 <0>         0.4197
     20 O4          7.1791    4.0511   -1.3748 O.3       1 <0>        -0.6118
     21 N3          5.9939    2.1025   -1.0293 N.2       1 <0>        -0.5931
     22 N4          3.7686   -2.1433   -0.3812 N.pl3     1 <0>        -0.0254
     23 O5          4.3466   -2.7449    0.4938 O.2       1 <0>        -0.0281
     24 O6          3.2101   -2.7504   -1.2650 O.3       1 <0>        -0.1734
     25 H2         -0.6615    1.9014    0.9458 H         1 <0>         0.1381
     26 H3          1.3293    3.1807    0.3559 H         1 <0>         0.1345
     27 H4         -0.6278   -0.5549    0.9243 H         1 <0>         0.1324
     28 H5         -0.6050   -2.2879    1.4382 H         1 <0>         0.4093
     29 H6         -0.1699   -3.8918    1.1912 H         1 <0>         0.4219
     30 H7          5.7581   -0.5068   -0.9677 H         1 <0>         0.1561
@<TRIPOS>BOND
     1    1    6 ar
     2    1    2 ar
     3    1   25 1
     4    2    3 ar
     5    2   26 1
     6    3   14 ar
     7    3    4 ar
     8    4    5 ar
     9    4   11 ar
    10    5    6 ar
    11    5    7 1
    12    6   27 1
    13    7    8 2
    14    7    9 2
    15    7   10 1
    16   10   28 1
    17   10   29 1
    18   11   12 ar
    19   11   22 1
    20   12   13 ar
    21   12   30 1
    22   13   21 1
    23   13   14 ar
    24   14   15 1
    25   15   16 1
    26   15   17 am
    27   17   18 2
    28   17   19 1
    29   19   20 1
    30   19   21 2
    31   22   23 2
    32   22   24 1
@<TRIPOS>MOLECULE
ZINC00236276
   20    21     0     0     0
SMALL
USER_CHARGES
6-nitro-1,4-dihydroquinoxaline-2,3-dione
@<TRIPOS>ATOM
      1 C1         -0.0780    4.1604    0.0256 C.ar      1 <0>        -0.0407
      2 C2          1.1359    3.5040    0.0105 C.ar      1 <0>        -0.1191
      3 C3          1.1755    2.1144    0.0022 C.ar      1 <0>         0.1760
      4 C4         -0.0168    1.3878    0.0097 C.ar      1 <0>         0.1229
      5 C5         -1.2335    2.0601    0.0307 C.ar      1 <0>        -0.0559
      6 C6         -1.2603    3.4400    0.0326 C.ar      1 <0>        -0.0368
      7 N1         -2.5577    4.1523    0.0493 N.pl3     1 <0>         0.0285
      8 O1         -2.5838    5.3700    0.0569 O.2       1 <0>        -0.1500
      9 O2         -3.5991    3.5208    0.0555 O.3       1 <0>        -0.1550
     10 N2          0.0021   -0.0041    0.0020 N.am      1 <0>        -0.6469
     11 H1         -0.9429   -0.5670    0.0080 H         1 <0>         0.4574
     12 C7          1.1778   -0.6642   -0.0128 C.2       1 <0>         0.5105
     13 O3          1.1994   -1.8786   -0.0195 O.2       1 <0>        -0.4568
     14 C8          2.4515    0.1119   -0.0212 C.2       1 <0>         0.5103
     15 O4          3.5208   -0.4641   -0.0350 O.2       1 <0>        -0.4527
     16 N3          2.4038    1.4595   -0.0140 N.am      1 <0>        -0.6479
     17 H2          3.3373    2.0414   -0.0209 H         1 <0>         0.4579
     18 H3         -0.1058    5.2400    0.0324 H         1 <0>         0.1659
     19 H4          2.0556    4.0702    0.0055 H         1 <0>         0.1639
     20 H5         -2.1582    1.5023    0.0411 H         1 <0>         0.1684
@<TRIPOS>BOND
     1    1    6 ar
     2    1    2 ar
     3    1   18 1
     4    2    3 ar
     5    2   19 1
     6    3   16 1
     7    3    4 ar
     8    4    5 ar
     9    4   10 1
    10    5    6 ar
    11    5   20 1
    12    6    7 1
    13    7    8 2
    14    7    9 1
    15   10   11 1
    16   10   12 am
    17   12   13 2
    18   12   14 1
    19   14   15 2
    20   14   16 am
    21   16   17 1
@<TRIPOS>MOLECULE
ZINC02047684
   38    38     0     0     0
SMALL
USER_CHARGES
2-amino-3-[3-(phosphonomethoxy)-5-tert-butyl-isoxazol-4-yl]-propanoic acid
@<TRIPOS>ATOM
      1 C1         -2.8197    5.5812   -3.7351 C.3       1 <0>        -0.1553
      2 C2         -1.2921    5.4997   -3.7093 C.3       1 <0>         0.0192
      3 C3         -0.7085    6.9076   -3.5752 C.3       1 <0>        -0.1442
      4 C4         -0.7934    4.8624   -5.0078 C.3       1 <0>        -0.1416
      5 C5         -0.8536    4.6603   -2.5370 C.2       1 <0>        -0.0140
      6 C6         -1.2418    3.3948   -2.2584 C.2       1 <0>        -0.2424
      7 C7         -0.5473    3.0793   -1.0614 C.2       1 <0>         0.1925
      8 N1          0.1607    4.1350   -0.7608 N.2       1 <0>        -0.3239
      9 O1          0.0018    5.0201   -1.5691 O.3       1 <0>         0.1214
     10 O2         -0.6032    1.9124   -0.3709 O.3       1 <0>        -0.2876
     11 C8          0.1932    1.8199    0.8120 C.3       1 <0>        -0.5404
     12 P1         -0.5861    2.7870    2.1465 P.3       1 <0>         2.1684
     13 O3         -0.6912    4.2039    1.7321 O.2       1 <0>        -1.1203
     14 C9         -2.1934    2.5232   -3.0367 C.3       1 <0>        -0.0339
     15 C10        -3.5995    2.6501   -2.4470 C.3       1 <0>        -0.0174
     16 H1         -3.8869    3.7010   -2.4158 H         1 <0>         0.1362
     17 C11        -4.5752    1.8878   -3.3062 C.2       1 <0>         0.4642
     18 O4         -4.9404    0.7854   -2.9730 O.co2     1 <0>        -0.6171
     19 H2         -3.1829    5.9035   -2.7593 H         1 <0>         0.0619
     20 H3         -3.1325    6.2981   -4.4942 H         1 <0>         0.0684
     21 H4         -3.2320    4.5999   -3.9702 H         1 <0>         0.0786
     22 H5          0.3798    6.8495   -3.5569 H         1 <0>         0.0615
     23 H6         -1.0256    7.5147   -4.4231 H         1 <0>         0.0619
     24 H7         -1.0637    7.3616   -2.6502 H         1 <0>         0.0666
     25 H8         -1.2210    3.8650   -5.1106 H         1 <0>         0.0645
     26 H9         -1.0978    5.4773   -5.8547 H         1 <0>         0.0676
     27 H10         0.2940    4.7907   -4.9831 H         1 <0>         0.0582
     28 H11         0.2705    0.7763    1.1172 H         1 <0>         0.0856
     29 H12         1.1892    2.2145    0.6113 H         1 <0>         0.0504
     30 H13        -2.2067    2.8406   -4.0794 H         1 <0>         0.1182
     31 H14        -1.8667    1.4850   -2.9770 H         1 <0>         0.0895
     32 H15        -3.3479    1.1245   -1.0878 H         1 <0>         0.4325
     33 H16        -3.0131    2.6333   -0.4736 H         1 <0>         0.4406
     34 O5         -2.0573    2.2041    2.4430 O.3       1 <0>        -1.1803
     35 O6          0.3111    2.6827    3.4792 O.3       1 <0>        -1.1799
     36 O7         -5.0384    2.4337   -4.4416 O.co2     1 <0>        -0.7177
     37 N2         -3.6356    2.1016   -1.0798 N.4       1 <0>        -0.6229
     38 H17        -4.5935    2.1659   -0.7156 H         1 <0>         0.4307
@<TRIPOS>BOND
     1    1    2 1
     2    1   19 1
     3    1   20 1
     4    1   21 1
     5    2    3 1
     6    2    4 1
     7    2    5 1
     8    3   22 1
     9    3   23 1
    10    3   24 1
    11    4   25 1
    12    4   26 1
    13    4   27 1
    14    5    9 1
    15    5    6 2
    16    6    7 1
    17    6   14 1
    18    7    8 2
    19    7   10 1
    20    8    9 1
    21   10   11 1
    22   11   12 1
    23   11   28 1
    24   11   29 1
    25   12   13 2
    26   12   34 1
    27   12   35 1
    28   14   15 1
    29   14   30 1
    30   14   31 1
    31   15   16 1
    32   15   17 1
    33   15   37 1
    34   17   18 2
    35   17   36 1
    36   32   37 1
    37   33   37 1
    38   37   38 1
@<TRIPOS>MOLECULE
ZINC04475051
   38    38     0     0     0
SMALL
USER_CHARGES
2-amino-3-[3-(phosphonomethoxy)-5-tert-butyl-isoxazol-4-yl]-propanoic acid
@<TRIPOS>ATOM
      1 C1         -3.6610   -3.7042   -0.2781 C.3       1 <0>        -0.1458
      2 C2         -3.7429   -2.8184   -1.5229 C.3       1 <0>         0.0190
      3 C3         -5.2105   -2.5477   -1.8605 C.3       1 <0>        -0.1438
      4 C4         -3.0715   -3.5291   -2.6997 C.3       1 <0>        -0.1502
      5 C5         -3.0395   -1.5124   -1.2572 C.2       1 <0>        -0.0136
      6 C6         -1.7146   -1.3353   -1.0493 C.2       1 <0>        -0.2411
      7 C7         -1.5835    0.0637   -0.8491 C.2       1 <0>         0.1930
      8 N1         -2.7854    0.5629   -0.9597 N.2       1 <0>        -0.3223
      9 O1         -3.6037   -0.2981   -1.1859 O.3       1 <0>         0.1209
     10 O2         -0.4378    0.7467   -0.5987 O.3       1 <0>        -0.2863
     11 C8         -0.5486    2.1622   -0.4370 C.3       1 <0>        -0.5425
     12 P1         -1.2692    2.5328    1.1961 P.3       1 <0>         2.1678
     13 O3         -2.6121    1.9185    1.2936 O.2       1 <0>        -1.1204
     14 C9         -0.6298   -2.3812   -1.0314 C.3       1 <0>        -0.0384
     15 C10         0.0277   -2.4576   -2.4108 C.3       1 <0>        -0.0141
     16 H1         -0.7339   -2.6508   -3.1662 H         1 <0>         0.1353
     17 C11         1.0415   -3.5726   -2.4230 C.2       1 <0>         0.4629
     18 O4          2.2162   -3.3226   -2.2902 O.co2     1 <0>        -0.6177
     19 H2         -4.2037   -3.2316    0.5406 H         1 <0>         0.0660
     20 H3         -4.1039   -4.6765   -0.4942 H         1 <0>         0.0668
     21 H4         -2.6169   -3.8357    0.0062 H         1 <0>         0.0652
     22 H5         -5.2688   -1.9166   -2.7473 H         1 <0>         0.0595
     23 H6         -5.7193   -3.4923   -2.0526 H         1 <0>         0.0619
     24 H7         -5.6888   -2.0414   -1.0221 H         1 <0>         0.0674
     25 H8         -2.0639   -3.8315   -2.4146 H         1 <0>         0.0779
     26 H9         -3.6523   -4.4107   -2.9710 H         1 <0>         0.0688
     27 H10        -3.0201   -2.8515   -3.5520 H         1 <0>         0.0539
     28 H11         0.4405    2.6146   -0.5088 H         1 <0>         0.0863
     29 H12        -1.1913    2.5680   -1.2182 H         1 <0>         0.0489
     30 H13         0.1195   -2.1148   -0.2860 H         1 <0>         0.0986
     31 H14        -1.0630   -3.3497   -0.7813 H         1 <0>         0.1214
     32 H15         0.0270   -0.4347   -2.7934 H         1 <0>         0.4233
     33 H16         1.3899   -0.9686   -2.0037 H         1 <0>         0.4391
     34 O5         -0.3198    1.9334    2.3500 O.3       1 <0>        -1.1761
     35 O6         -1.3939    4.1276    1.3782 O.3       1 <0>        -1.1820
     36 O7          0.6396   -4.8435   -2.5812 O.co2     1 <0>        -0.7114
     37 N2          0.7080   -1.1894   -2.7276 N.4       1 <0>        -0.6237
     38 H17         1.1932   -1.2824   -3.6277 H         1 <0>         0.4256
@<TRIPOS>BOND
     1    1    2 1
     2    1   19 1
     3    1   20 1
     4    1   21 1
     5    2    3 1
     6    2    4 1
     7    2    5 1
     8    3   22 1
     9    3   23 1
    10    3   24 1
    11    4   25 1
    12    4   26 1
    13    4   27 1
    14    5    9 1
    15    5    6 2
    16    6    7 1
    17    6   14 1
    18    7    8 2
    19    7   10 1
    20    8    9 1
    21   10   11 1
    22   11   12 1
    23   11   28 1
    24   11   29 1
    25   12   13 2
    26   12   34 1
    27   12   35 1
    28   14   15 1
    29   14   30 1
    30   14   31 1
    31   15   16 1
    32   15   17 1
    33   15   37 1
    34   17   18 2
    35   17   36 1
    36   32   37 1
    37   33   37 1
    38   37   38 1
@<TRIPOS>MOLECULE
ZINC19850508
   22    22     0     0     0
SMALL
USER_CHARGES

@<TRIPOS>ATOM
      1 C1         -0.0127    1.0858    0.0080 C.3       1 <0>        -0.0673
      2 C2         -0.7416    1.5850   -1.2129 C.2       1 <0>        -0.3250
      3 C3         -0.9474    2.8760   -1.5354 C.2       1 <0>         0.1518
      4 O1         -1.6291    2.9350   -2.6852 O.3       1 <0>        -0.0334
      5 N1         -1.8743    1.6107   -3.1246 N.am      1 <0>        -0.5856
      6 C4         -1.3197    0.7800   -2.2165 C.2       1 <0>         0.5405
      7 O2         -1.3208   -0.4398   -2.2552 O.2       1 <0>        -0.5362
      8 C5         -0.4848    4.0632   -0.7307 C.3       1 <0>        -0.0342
      9 C6          0.8572    4.5567   -1.2751 C.3       1 <0>         0.0234
     10 H1          1.5709    3.7328   -1.2838 H         1 <0>         0.0803
     11 C7          1.3792    5.6641   -0.3964 C.2       1 <0>         0.4688
     12 O3          2.0938    5.4013    0.5558 O.co2     1 <0>        -0.6904
     13 O4          1.0869    6.8229   -0.6378 O.co2     1 <0>        -0.6917
     14 N2          0.6752    5.0612   -2.6427 N.3       1 <0>        -0.8315
     15 H2          0.0021   -0.0041    0.0020 H         1 <0>         0.0684
     16 H3          1.0099    1.4631    0.0003 H         1 <0>         0.0696
     17 H4         -0.5229    1.4373    0.9048 H         1 <0>         0.0650
     18 H5         -1.2227    4.8620   -0.8046 H         1 <0>         0.0900
     19 H6         -0.3683    3.7715    0.3130 H         1 <0>         0.1105
     20 H7          0.0175    5.8262   -2.6613 H         1 <0>         0.3407
     21 H8          1.5581    5.3335   -3.0482 H         1 <0>         0.3357
     22 H9         -2.3482    1.3497   -3.9297 H         1 <0>         0.4505
@<TRIPOS>BOND
     1    1   15 1
     2    1   16 1
     3    1   17 1
     4    1    2 1
     5    2    6 1
     6    2    3 2
     7    3    4 1
     8    3    8 1
     9    4    5 1
    10    5    6 am
    11    5   22 1
    12    6    7 2
    13    8    9 1
    14    8   18 1
    15    8   19 1
    16    9   10 1
    17    9   11 1
    18    9   14 1
    19   11   12 2
    20   11   13 1
    21   14   20 1
    22   14   21 1
@<TRIPOS>MOLECULE
ZINC19850508
   21    21     0     0     0
SMALL
USER_CHARGES

@<TRIPOS>ATOM
      1 C1         -0.0127    1.0858    0.0080 C.3       1 <0>        -0.0564
      2 C2         -0.7416    1.5850   -1.2129 C.2       1 <0>        -0.3102
      3 C3         -0.1869    1.8573   -2.4075 C.2       1 <0>         0.0471
      4 O1         -1.1583    2.2758   -3.2338 O.3       1 <0>        -0.1381
      5 N1         -2.3790    2.2630   -2.5160 N.2       1 <0>        -0.4681
      6 C4         -2.1269    1.8427   -1.3039 C.2       1 <0>         0.3677
      7 O2         -3.0355    1.6852   -0.3082 O.3       1 <0>        -0.7364
      8 C5          1.2722    1.7172   -2.7575 C.3       1 <0>        -0.0624
      9 C6          1.5352    0.3085   -3.2934 C.3       1 <0>         0.0339
     10 H1          1.1900   -0.4270   -2.5667 H         1 <0>         0.0730
     11 C7          3.0129    0.1279   -3.5277 C.2       1 <0>         0.5063
     12 O3          3.7765    0.0589   -2.5797 O.co2     1 <0>        -0.7067
     13 O4          3.4448    0.0507   -4.6652 O.co2     1 <0>        -0.6889
     14 N2          0.8125    0.1231   -4.5588 N.3       1 <0>        -0.8227
     15 H2          0.0021   -0.0041    0.0020 H         1 <0>         0.0460
     16 H3          1.0099    1.4631    0.0003 H         1 <0>         0.0481
     17 H4         -0.5229    1.4373    0.9048 H         1 <0>         0.0522
     18 H5          1.5351    2.4508   -3.5196 H         1 <0>         0.0655
     19 H6          1.8774    1.8860   -1.8667 H         1 <0>         0.0888
     20 H7         -0.1850    0.1754   -4.4165 H         1 <0>         0.3252
     21 H8          1.1149    0.7936   -5.2495 H         1 <0>         0.3360
@<TRIPOS>BOND
     1    1   15 1
     2    1   16 1
     3    1   17 1
     4    1    2 1
     5    2    6 1
     6    2    3 2
     7    3    4 1
     8    3    8 1
     9    4    5 1
    10    5    6 2
    11    6    7 1
    12    8    9 1
    13    8   18 1
    14    8   19 1
    15    9   10 1
    16    9   11 1
    17    9   14 1
    18   11   12 2
    19   11   13 1
    20   14   20 1
    21   14   21 1
@<TRIPOS>MOLECULE
ZINC19850510
   22    22     0     0     0
SMALL
USER_CHARGES

@<TRIPOS>ATOM
      1 C1         -0.0127    1.0858    0.0080 C.3       1 <0>        -0.0720
      2 C2         -0.7416    1.5850   -1.2129 C.2       1 <0>        -0.3166
      3 C3         -0.9474    2.8760   -1.5354 C.2       1 <0>         0.1288
      4 O1         -1.6291    2.9350   -2.6852 O.3       1 <0>        -0.0448
      5 N1         -1.8743    1.6107   -3.1246 N.am      1 <0>        -0.5826
      6 C4         -1.3197    0.7800   -2.2165 C.2       1 <0>         0.5406
      7 O2         -1.3208   -0.4398   -2.2552 O.2       1 <0>        -0.5288
      8 C5         -0.4848    4.0632   -0.7307 C.3       1 <0>        -0.0791
      9 C6          0.8572    4.5567   -1.2751 C.3       1 <0>         0.0310
     10 H1          0.7628    4.7642   -2.3410 H         1 <0>         0.0790
     11 C7          1.2603    5.8159   -0.5519 C.2       1 <0>         0.5041
     12 O3          2.2010    5.7989    0.2236 O.co2     1 <0>        -0.6743
     13 O4          0.6458    6.8515   -0.7423 O.co2     1 <0>        -0.6965
     14 N2          1.8802    3.5233   -1.0663 N.3       1 <0>        -0.8204
     15 H2          0.0021   -0.0041    0.0020 H         1 <0>         0.0728
     16 H3          1.0099    1.4631    0.0003 H         1 <0>         0.0693
     17 H4         -0.5229    1.4373    0.9048 H         1 <0>         0.0671
     18 H5         -1.2227    4.8620   -0.8046 H         1 <0>         0.1029
     19 H6         -0.3683    3.7715    0.3130 H         1 <0>         0.1036
     20 H7          1.9867    3.3129   -0.0853 H         1 <0>         0.3440
     21 H8          1.6655    2.6902   -1.5936 H         1 <0>         0.3192
     22 H9         -2.3482    1.3497   -3.9297 H         1 <0>         0.4528
@<TRIPOS>BOND
     1    1   15 1
     2    1   16 1
     3    1   17 1
     4    1    2 1
     5    2    6 1
     6    2    3 2
     7    3    4 1
     8    3    8 1
     9    4    5 1
    10    5    6 am
    11    5   22 1
    12    6    7 2
    13    8    9 1
    14    8   18 1
    15    8   19 1
    16    9   10 1
    17    9   11 1
    18    9   14 1
    19   11   12 2
    20   11   13 1
    21   14   20 1
    22   14   21 1
@<TRIPOS>MOLECULE
ZINC19850510
   21    21     0     0     0
SMALL
USER_CHARGES

@<TRIPOS>ATOM
      1 C1         -0.0127    1.0858    0.0080 C.3       1 <0>        -0.0463
      2 C2         -0.7416    1.5850   -1.2129 C.2       1 <0>        -0.2928
      3 C3         -0.1869    1.8573   -2.4075 C.2       1 <0>         0.0589
      4 O1         -1.1583    2.2758   -3.2338 O.3       1 <0>        -0.1418
      5 N1         -2.3790    2.2630   -2.5160 N.2       1 <0>        -0.4741
      6 C4         -2.1269    1.8427   -1.3039 C.2       1 <0>         0.3665
      7 O2         -3.0355    1.6852   -0.3082 O.3       1 <0>        -0.7423
      8 C5          1.2722    1.7172   -2.7575 C.3       1 <0>        -0.0189
      9 C6          1.5352    0.3085   -3.2934 C.3       1 <0>         0.0316
     10 H1          0.8663    0.1073   -4.1301 H         1 <0>         0.0725
     11 C7          2.9653    0.2065   -3.7576 C.2       1 <0>         0.4698
     12 O3          3.8349   -0.1477   -2.9800 O.co2     1 <0>        -0.7035
     13 O4          3.2526    0.4781   -4.9110 O.co2     1 <0>        -0.7036
     14 N2          1.2952   -0.6736   -2.2275 N.3       1 <0>        -0.8183
     15 H2          0.0021   -0.0041    0.0020 H         1 <0>         0.0546
     16 H3          1.0099    1.4631    0.0003 H         1 <0>         0.0378
     17 H4         -0.5229    1.4373    0.9048 H         1 <0>         0.0422
     18 H5          1.5351    2.4508   -3.5196 H         1 <0>         0.0720
     19 H6          1.8774    1.8860   -1.8667 H         1 <0>         0.0772
     20 H7          1.3996   -1.6156   -2.5736 H         1 <0>         0.3231
     21 H8          1.9037   -0.5082   -1.4398 H         1 <0>         0.3353
@<TRIPOS>BOND
     1    1   15 1
     2    1   16 1
     3    1   17 1
     4    1    2 1
     5    2    6 1
     6    2    3 2
     7    3    4 1
     8    3    8 1
     9    4    5 1
    10    5    6 2
    11    6    7 1
    12    8    9 1
    13    8   18 1
    14    8   19 1
    15    9   10 1
    16    9   11 1
    17    9   14 1
    18   11   12 2
    19   11   13 1
    20   14   20 1
    21   14   21 1
@<TRIPOS>MOLECULE
ZINC00004264
   37    40     0     0     0
SMALL
USER_CHARGES

@<TRIPOS>ATOM
      1 C1         -0.1745    1.4968    0.0160 C.3       1 <0>        -0.1127
      2 C2         -0.0794   -0.0071    0.0049 C.2       1 <0>         0.1493
      3 N1         -0.1341   -0.5733   -1.1560 N.2       1 <0>        -0.3187
      4 N2         -0.0842   -1.7927   -1.5343 N.2       1 <0>        -0.2873
      5 C3          0.0393   -2.9274   -0.8851 C.2       1 <0>         0.2245
      6 C4          0.1639   -3.1482    0.5694 C.ar      1 <0>        -0.0904
      7 C5          0.2713   -4.4946    0.9114 C.ar      1 <0>        -0.0566
      8 C6          0.3938   -4.8498    2.2430 C.ar      1 <0>         0.0232
      9 C7          0.4108   -3.8680    3.2346 C.ar      1 <0>         0.0603
     10 C8          0.3036   -2.5244    2.8915 C.ar      1 <0>        -0.1066
     11 C9          0.1804   -2.1711    1.5721 C.ar      1 <0>        -0.0322
     12 C10         0.0751   -0.6777    1.3568 C.3       1 <0>        -0.0996
     13 O1          0.5406   -4.4772    4.4481 O.3       1 <0>        -0.3040
     14 C11         0.1908   -5.8560    4.2262 C.3       1 <0>         0.2114
     15 O2          0.5126   -6.0723    2.8396 O.3       1 <0>        -0.3039
     16 C12         0.0551   -4.1442   -1.7208 C.ar      1 <0>        -0.1155
     17 C13        -1.1417   -4.7962   -2.0315 C.ar      1 <0>        -0.0402
     18 C14        -1.1234   -5.9307   -2.8111 C.ar      1 <0>        -0.1974
     19 C15         0.0850   -6.4290   -3.2892 C.ar      1 <0>         0.2284
     20 C16         1.2783   -5.7823   -2.9817 C.ar      1 <0>        -0.1972
     21 C17         1.2665   -4.6437   -2.2078 C.ar      1 <0>        -0.0398
     22 N3          0.1000   -7.5774   -4.0767 N.pl3     1 <0>        -0.8736
     23 H1          0.8247    1.9247   -0.0658 H         1 <0>         0.0885
     24 H2         -0.7819    1.8287   -0.8260 H         1 <0>         0.0881
     25 H3         -0.6351    1.8249    0.9478 H         1 <0>         0.0800
     26 H4          0.2585   -5.2543    0.1438 H         1 <0>         0.1552
     27 H5          0.3169   -1.7646    3.6588 H         1 <0>         0.1480
     28 H6          0.9571   -0.2345    1.8192 H         1 <0>         0.0998
     29 H7         -0.7679   -0.3442    1.9619 H         1 <0>         0.0987
     30 H8          0.7860   -6.5095    4.8639 H         1 <0>         0.1363
     31 H9         -0.8734   -6.0140    4.4014 H         1 <0>         0.0886
     32 H10        -2.0796   -4.4105   -1.6602 H         1 <0>         0.1229
     33 H11        -2.0477   -6.4349   -3.0515 H         1 <0>         0.1249
     34 H12         2.2143   -6.1715   -3.3543 H         1 <0>         0.1250
     35 H13         2.1924   -4.1396   -1.9736 H         1 <0>         0.1230
     36 H14        -0.7311   -8.0291   -4.2914 H         1 <0>         0.3998
     37 H15         0.9416   -7.9255   -4.4105 H         1 <0>         0.3999
@<TRIPOS>BOND
     1    1    2 1
     2    1   23 1
     3    1   24 1
     4    1   25 1
     5    2   12 1
     6    2    3 2
     7    3    4 1
     8    4    5 2
     9    5    6 1
    10    5   16 1
    11    6   11 ar
    12    6    7 ar
    13    7    8 ar
    14    7   26 1
    15    8   15 1
    16    8    9 ar
    17    9   10 ar
    18    9   13 1
    19   10   11 ar
    20   10   27 1
    21   11   12 1
    22   12   28 1
    23   12   29 1
    24   13   14 1
    25   14   15 1
    26   14   30 1
    27   14   31 1
    28   16   21 ar
    29   16   17 ar
    30   17   18 ar
    31   17   32 1
    32   18   19 ar
    33   18   33 1
    34   19   20 ar
    35   19   22 1
    36   20   21 ar
    37   20   34 1
    38   21   35 1
    39   22   36 1
    40   22   37 1
@<TRIPOS>MOLECULE
ZINC03995575
   29    29     0     0     0
SMALL
USER_CHARGES

@<TRIPOS>ATOM
      1 C1          1.0799   -0.3943   -0.7951 C.3       1 <0>        -0.1264
      2 C2         -0.0539    0.0466    0.0944 C.2       1 <0>        -0.0851
      3 C3          0.1239    1.0269    0.9449 C.2       1 <0>        -0.2152
      4 C4         -1.3923   -0.6404    0.0054 C.3       1 <0>        -0.0829
      5 H1         -1.2738   -1.7222    0.0665 H         1 <0>         0.1010
      6 C5         -2.3455   -0.1298    1.1150 C.3       1 <0>        -0.0057
      7 N1         -3.6945   -0.3983    0.5543 N.4       1 <0>        -0.4952
      8 C6         -3.6039   -0.0757   -0.8862 C.3       1 <0>        -0.0344
      9 H2         -3.9248    0.9517   -1.0576 H         1 <0>         0.1243
     10 C7         -2.1258   -0.2430   -1.2962 C.3       1 <0>        -0.0443
     11 H3         -2.0240   -1.0302   -2.0432 H         1 <0>         0.1083
     12 C8         -1.5723    1.0774   -1.8356 C.3       1 <0>        -0.1808
     13 C9         -2.1700    1.3564   -3.1906 C.2       1 <0>         0.4629
     14 O1         -2.9649    0.5718   -3.6795 O.co2     1 <0>        -0.6259
     15 O2         -1.8586    2.3667   -3.7980 O.co2     1 <0>        -0.7225
     16 C10        -4.4676   -1.0222   -1.6795 C.2       1 <0>         0.4844
     17 O3         -5.1257   -1.8732   -1.1058 O.co2     1 <0>        -0.7147
     18 O4         -4.5083   -0.9368   -2.8951 O.co2     1 <0>        -0.5649
     19 H4          1.9427    0.2513   -0.6309 H         1 <0>         0.0649
     20 H5          1.3469   -1.4245   -0.5597 H         1 <0>         0.0674
     21 H6          0.7702   -0.3284   -1.8381 H         1 <0>         0.0792
     22 H7         -0.6562    1.2804    1.6475 H         1 <0>         0.0960
     23 H8          1.0505    1.5817    0.9435 H         1 <0>         0.1029
     24 H9         -2.1947   -0.6883    2.0388 H         1 <0>         0.1211
     25 H10        -2.2040    0.9380    1.2824 H         1 <0>         0.1276
     26 H11        -3.9359   -1.3700    0.6788 H         1 <0>         0.4255
     27 H12        -1.8299    1.8859   -1.1515 H         1 <0>         0.0481
     28 H13        -0.4881    1.0078   -1.9241 H         1 <0>         0.0711
     29 H14        -4.3805    0.1919    1.0005 H         1 <0>         0.4136
@<TRIPOS>BOND
     1    1    2 1
     2    1   19 1
     3    1   20 1
     4    1   21 1
     5    2    3 2
     6    2    4 1
     7    3   22 1
     8    3   23 1
     9    4    5 1
    10    4   10 1
    11    4    6 1
    12    6    7 1
    13    6   24 1
    14    6   25 1
    15    7    8 1
    16    7   26 1
    17    7   29 1
    18    8    9 1
    19    8   10 1
    20    8   16 1
    21   10   11 1
    22   10   12 1
    23   12   13 1
    24   12   27 1
    25   12   28 1
    26   13   14 2
    27   13   15 1
    28   16   17 2
    29   16   18 1
@<TRIPOS>MOLECULE
ZINC13779018
   19    19     0     0     0
SMALL
USER_CHARGES

@<TRIPOS>ATOM
      1 C1         -0.0187    1.5258    0.0104 C.3       1 <0>         0.1559
      2 C2          0.0021   -0.0041    0.0020 C.3       1 <0>        -0.0639
      3 H1          0.4501   -0.3665    0.9272 H         1 <0>         0.1320
      4 C3         -1.4075   -0.5249   -0.1112 C.2       1 <0>         0.4991
      5 O1         -1.7761   -1.0680   -1.1386 O.co2     1 <0>        -0.6678
      6 O2         -2.1794   -0.4033    0.8248 O.co2     1 <0>        -0.6405
      7 N1          0.7922   -0.4768   -1.1426 N.4       1 <0>        -0.6027
      8 N2          1.3557    2.0329    0.0000 N.pl3     1 <0>        -0.5059
      9 C4          2.1974    2.0610   -1.0502 C.2       1 <0>         0.5942
     10 O3          1.9169    1.6204   -2.2941 O.3       1 <0>        -0.6607
     11 N3          3.3403    2.5907   -0.6628 N.2       1 <0>        -0.6559
     12 C5          3.2823    2.9189    0.6279 C.2       1 <0>         0.5845
     13 O4          4.1815    3.4284    1.2748 O.2       1 <0>        -0.5268
     14 O5          2.0627    2.5981    1.0944 O.3       1 <0>        -0.1559
     15 H2         -0.5459    1.8868   -0.8726 H         1 <0>         0.1126
     16 H3         -0.5289    1.8773    0.9072 H         1 <0>         0.1283
     17 H4          0.3774   -0.1413   -1.9991 H         1 <0>         0.4369
     18 H5          1.7359   -0.1280   -1.0669 H         1 <0>         0.4173
     19 H6          0.8059   -1.4857   -1.1482 H         1 <0>         0.4191
@<TRIPOS>BOND
     1    1    2 1
     2    1    8 1
     3    1   15 1
     4    1   16 1
     5    2    3 1
     6    2    4 1
     7    2    7 1
     8    4    5 2
     9    4    6 1
    10    7   17 1
    11    7   18 1
    12    7   19 1
    13    8   14 1
    14    8    9 1
    15    9   10 1
    16    9   11 2
    17   11   12 1
    18   12   13 2
    19   12   14 1
@<TRIPOS>MOLECULE
ZINC13779018
   20    20     0     0     0
SMALL
USER_CHARGES

@<TRIPOS>ATOM
      1 C1         -0.0187    1.5258    0.0104 C.3       1 <0>         0.1622
      2 C2          0.0021   -0.0041    0.0020 C.3       1 <0>         0.0738
      3 H1          0.4501   -0.3665    0.9272 H         1 <0>         0.1320
      4 C3         -1.4075   -0.5249   -0.1112 C.2       1 <0>         0.4457
      5 O1         -1.8299   -0.8975   -1.1801 O.2       1 <0>        -0.5041
      6 O2         -2.1938   -0.5750    0.9756 O.3       1 <0>        -0.5011
      7 N1          0.7922   -0.4768   -1.1426 N.3       1 <0>        -0.8119
      8 N2          1.3557    2.0329    0.0000 N.pl3     1 <0>        -0.4321
      9 C4          2.1974    2.0610   -1.0502 C.2       1 <0>         0.6249
     10 N3          3.3406    2.5899   -0.6626 N.2       1 <0>        -0.6311
     11 C5          3.2828    2.9177    0.6282 C.2       1 <0>         0.5998
     12 O3          4.1822    3.4265    1.2753 O.2       1 <0>        -0.4634
     13 O4          2.0627    2.5981    1.0944 O.3       1 <0>        -0.1103
     14 O5          1.9169    1.6204   -2.2941 O.3       1 <0>        -0.4110
     15 H2         -0.5459    1.8868   -0.8726 H         1 <0>         0.1177
     16 H3         -0.5289    1.8773    0.9072 H         1 <0>         0.1297
     17 H4         -3.0795   -0.9232    0.8045 H         1 <0>         0.4131
     18 H5          0.8750   -1.4823   -1.1342 H         1 <0>         0.3592
     19 H6          0.3968   -0.1538   -2.0130 H         1 <0>         0.3617
     20 H7          2.6463    1.7214   -2.9209 H         1 <0>         0.4452
@<TRIPOS>BOND
     1    1    2 1
     2    1    8 1
     3    1   15 1
     4    1   16 1
     5    2    3 1
     6    2    4 1
     7    2    7 1
     8    4    5 2
     9    4    6 1
    10    6   17 1
    11    7   18 1
    12    7   19 1
    13    8   13 1
    14    8    9 1
    15    9   10 2
    16    9   14 1
    17   10   11 1
    18   11   12 2
    19   11   13 1
    20   14   20 1
@<TRIPOS>MOLECULE
ZINC02567711
   19    19     0     0     0
SMALL
USER_CHARGES

@<TRIPOS>ATOM
      1 C1         -1.3374    0.8607   -1.5895 C.3       1 <0>        -0.1755
      2 C2         -0.8724    1.7915   -0.4678 C.3       1 <0>        -0.1640
      3 H1         -0.5860    2.8067   -0.7424 H         1 <0>         0.1120
      4 C3          0.0314    0.6505   -0.9390 C.3       1 <0>        -0.1699
      5 H2          0.9124    0.9150   -1.5238 H         1 <0>         0.1029
      6 C4          0.1913   -0.5346   -0.0220 C.2       1 <0>         0.5099
      7 O1         -0.5553   -1.4927   -0.1281 O.co2     1 <0>        -0.7026
      8 O2          1.0673   -0.5354    0.8260 O.co2     1 <0>        -0.6599
      9 C5         -1.5450    1.6424    0.8983 C.3       1 <0>        -0.0178
     10 H3         -1.4696    0.6066    1.2293 H         1 <0>         0.1382
     11 C6         -0.8597    2.5398    1.8963 C.2       1 <0>         0.4942
     12 O3         -1.2106    3.7016    2.0132 O.co2     1 <0>        -0.6934
     13 O4          0.0457    2.1041    2.5869 O.co2     1 <0>        -0.6155
     14 N1         -2.9605    2.0204    0.7911 N.4       1 <0>        -0.6086
     15 H4         -2.1223    0.1419   -1.3542 H         1 <0>         0.0976
     16 H5         -1.3569    1.2636   -2.6022 H         1 <0>         0.0915
     17 H6         -3.0303    2.9792    0.4847 H         1 <0>         0.4259
     18 H7         -3.4194    1.4195    0.1229 H         1 <0>         0.4116
     19 H8         -3.4041    1.9220    1.6920 H         1 <0>         0.4235
@<TRIPOS>BOND
     1    1    4 1
     2    1    2 1
     3    1   15 1
     4    1   16 1
     5    2    3 1
     6    2    4 1
     7    2    9 1
     8    4    5 1
     9    4    6 1
    10    6    7 2
    11    6    8 1
    12    9   10 1
    13    9   11 1
    14    9   14 1
    15   11   12 2
    16   11   13 1
    17   14   17 1
    18   14   18 1
    19   14   19 1
@<TRIPOS>MOLECULE
ZINC18187630
   18    19     0     0     0
SMALL
USER_CHARGES

@<TRIPOS>ATOM
      1 C1         -0.0166    1.3763    0.0096 C.ar      1 <0>        -0.0987
      2 C2          1.1776    2.0888    0.0020 C.ar      1 <0>         0.1367
      3 C3          2.3933    1.4029   -0.0137 C.ar      1 <0>         0.1367
      4 C4          2.4012    0.0123   -0.0216 C.ar      1 <0>        -0.0987
      5 C5          1.2101   -0.6856   -0.0136 C.ar      1 <0>        -0.0201
      6 C6          0.0021   -0.0041    0.0020 C.ar      1 <0>        -0.0201
      7 Cl1        -1.4910   -0.8897    0.0120 Cl        1 <0>        -0.0282
      8 Cl2         1.2243   -2.4215   -0.0241 Cl        1 <0>        -0.0282
      9 N1          3.5991    2.0989   -0.0219 N.am      1 <0>        -0.6322
     10 H1          4.4387    1.6131   -0.0335 H         1 <0>         0.4272
     11 C7          3.6016    3.4473   -0.0143 C.2       1 <0>         0.5107
     12 O1          4.6511    4.0590   -0.0219 O.2       1 <0>        -0.4559
     13 C8          2.3028    4.1801    0.0029 C.2       1 <0>         0.5108
     14 O2          2.2837    5.3946    0.0095 O.2       1 <0>        -0.4559
     15 N2          1.1499    3.4808    0.0097 N.am      1 <0>        -0.6323
     16 H2          0.3000    3.9482    0.0203 H         1 <0>         0.4272
     17 H3         -0.9593    1.9031    0.0259 H         1 <0>         0.1605
     18 H4          3.3397   -0.5220   -0.0345 H         1 <0>         0.1605
@<TRIPOS>BOND
     1    1    6 ar
     2    1    2 ar
     3    1   17 1
     4    2   15 1
     5    2    3 ar
     6    3    4 ar
     7    3    9 1
     8    4    5 ar
     9    4   18 1
    10    5    6 ar
    11    5    8 1
    12    6    7 1
    13    9   10 1
    14    9   11 am
    15   11   12 2
    16   11   13 1
    17   13   14 2
    18   13   15 am
    19   15   16 1
@<TRIPOS>MOLECULE
ZINC18187630
   18    19     0     0     0
SMALL
USER_CHARGES

@<TRIPOS>ATOM
      1 C1         -0.0163    1.3496    0.0095 C.ar      1 <0>        -0.1720
      2 C2          1.2042    2.0706    0.0017 C.ar      1 <0>         0.3977
      3 N1          1.2018    3.3887    0.0092 N.am      1 <0>        -0.4834
      4 C3          2.3685    4.0638    0.0017 C.2       1 <0>         0.4770
      5 O1          2.3724    5.2780    0.0090 O.2       1 <0>        -0.2305
      6 C4          3.6585    3.3064   -0.0153 C.2       1 <0>         0.4771
      7 O2          4.7169    3.9015   -0.0219 O.2       1 <0>        -0.2305
      8 N2          3.6374    1.9587   -0.0227 N.am      1 <0>        -0.4835
      9 C5          2.4852    1.3184   -0.0146 C.ar      1 <0>         0.3977
     10 C6          2.4506   -0.0986   -0.0219 C.ar      1 <0>        -0.1721
     11 C7          1.2596   -0.7424   -0.0140 C.ar      1 <0>         0.1260
     12 C8          0.0021   -0.0041    0.0020 C.ar      1 <0>         0.1258
     13 Cl1        -1.4985   -0.8768    0.0122 Cl        1 <0>         0.1611
     14 Cl2         1.2289   -2.4781   -0.0229 Cl        1 <0>         0.1612
     15 H1         -0.9578    1.8784    0.0258 H         1 <0>         0.2402
     16 H2          3.3713   -0.6630   -0.0341 H         1 <0>         0.2402
     17 H3          0.3612    3.8725    0.0199 H         1 <0>         0.4840
     18 H4          4.4696    1.4604   -0.0338 H         1 <0>         0.4840
@<TRIPOS>BOND
     1    1   12 ar
     2    1    2 ar
     3    1   15 1
     4    2    9 ar
     5    2    3 2
     6    3    4 am
     7    3   17 1
     8    4    5 2
     9    4    6 1
    10    6    7 2
    11    6    8 am
    12    8    9 2
    13    8   18 1
    14    9   10 ar
    15   10   11 ar
    16   10   16 1
    17   11   12 ar
    18   11   14 1
    19   12   13 1
@<TRIPOS>MOLECULE
ZINC13755434
   18    19     0     0     0
SMALL
USER_CHARGES
7-nitropyrido[2,3-b]pyrazine-2,3-diol
@<TRIPOS>ATOM
      1 C1          3.7113    2.6598    2.3248 C.ar      1 <0>        -0.0166
      2 C2          4.9499    3.2333    2.2480 C.ar      1 <0>        -0.1533
      3 C3          5.5119    3.5053    1.0044 C.ar      1 <0>         0.2032
      4 N1          4.8822    3.2255   -0.1121 N.ar      1 <0>        -0.4611
      5 C4          3.6701    2.6645   -0.1061 C.ar      1 <0>         0.3958
      6 C5          3.0404    2.3613    1.1251 C.ar      1 <0>        -0.0201
      7 N2          1.8226    1.8042    1.1357 N.am      1 <0>        -0.5584
      8 C6          1.2200    1.5312   -0.0014 C.2       1 <0>         0.4297
      9 C7          1.8461    1.8321   -1.2312 C.2       1 <0>         0.4429
     10 N3          3.0400    2.3844   -1.2561 N.2       1 <0>        -0.5699
     11 O1          1.2115    1.5501   -2.3952 O.3       1 <0>        -0.5709
     12 O2         -0.0110    0.9628    0.0073 O.2       1 <0>        -0.5804
     13 N4          5.6915    3.5647    3.4854 N.pl3     1 <0>         0.0547
     14 O3          5.1983    3.3265    4.5733 O.2       1 <0>        -0.1915
     15 O4          6.7950    4.0757    3.4156 O.3       1 <0>        -0.1788
     16 H1          3.2600    2.4414    3.2813 H         1 <0>         0.1567
     17 H2          6.4911    3.9586    0.9570 H         1 <0>         0.1794
     18 H3          1.3302    1.5767    2.0926 H         1 <0>         0.4386
@<TRIPOS>BOND
     1    1    6 ar
     2    1    2 ar
     3    1   16 1
     4    2    3 ar
     5    2   13 1
     6    3    4 ar
     7    3   17 1
     8    4    5 ar
     9    5   10 1
    10    5    6 ar
    11    6    7 1
    12    7    8 am
    13    7   18 1
    14    8    9 1
    15    8   12 2
    16    9   10 2
    17    9   11 1
    18   13   14 2
    19   13   15 1
@<TRIPOS>MOLECULE
ZINC02562328
   28    28     0     0     0
SMALL
USER_CHARGES
2-amino-3-[3-(carboxymethoxy)-5-methyl-isoxazol-4-yl]-propanoic acid
@<TRIPOS>ATOM
      1 C1          0.1898    0.9559    6.0190 C.3       1 <0>        -0.0804
      2 C2          0.2322    0.9242    4.5129 C.2       1 <0>         0.0103
      3 C3         -0.6355    1.5250    3.6667 C.2       1 <0>        -0.2449
      4 C4         -0.1495    1.1826    2.3779 C.2       1 <0>         0.2028
      5 N1          0.9156    0.4518    2.5714 N.2       1 <0>        -0.4012
      6 O1          1.1404    0.2994    3.7496 O.3       1 <0>         0.1010
      7 O2         -0.6816    1.5467    1.1837 O.3       1 <0>        -0.2678
      8 C5         -0.0127    1.0858    0.0080 C.3       1 <0>         0.0213
      9 C6         -0.7416    1.5850   -1.2129 C.2       1 <0>         0.4697
     10 O3         -1.7322    2.2656   -1.0889 O.co2     1 <0>        -0.6143
     11 C7         -1.8406    2.3613    4.0124 C.3       1 <0>        -0.0410
     12 C8         -3.0697    1.4585    4.1352 C.3       1 <0>        -0.0085
     13 H1         -2.8685    0.6669    4.8570 H         1 <0>         0.1334
     14 C9         -4.2481    2.2747    4.6002 C.2       1 <0>         0.4612
     15 O4         -5.0716    2.6557    3.8023 O.co2     1 <0>        -0.6089
     16 H2          1.0260    0.3820    6.4181 H         1 <0>         0.0869
     17 H3          0.2603    1.9878    6.3628 H         1 <0>         0.0980
     18 H4         -0.7477    0.5208    6.3653 H         1 <0>         0.0967
     19 H5          0.0021   -0.0041    0.0020 H         1 <0>         0.0721
     20 H6          1.0099    1.4631    0.0003 H         1 <0>         0.0736
     21 H7         -1.6688    2.8720    4.9599 H         1 <0>         0.1218
     22 H8         -2.0084    3.0987    3.2274 H         1 <0>         0.1030
     23 H9         -4.1407    0.2122    2.8949 H         1 <0>         0.4285
     24 H10        -3.5627    1.5767    2.1398 H         1 <0>         0.4439
     25 O5         -0.2903    1.2736   -2.4381 O.co2     1 <0>        -0.7420
     26 O6         -4.3829    2.5784    5.9007 O.co2     1 <0>        -0.7106
     27 N2         -3.3504    0.8509    2.8223 N.4       1 <0>        -0.6248
     28 H11        -2.5245    0.3276    2.5090 H         1 <0>         0.4202
@<TRIPOS>BOND
     1    1    2 1
     2    1   16 1
     3    1   17 1
     4    1   18 1
     5    2    6 1
     6    2    3 2
     7    3    4 1
     8    3   11 1
     9    4    5 2
    10    4    7 1
    11    5    6 1
    12    7    8 1
    13    8    9 1
    14    8   19 1
    15    8   20 1
    16    9   10 2
    17    9   25 1
    18   11   12 1
    19   11   21 1
    20   11   22 1
    21   12   13 1
    22   12   14 1
    23   12   27 1
    24   14   15 2
    25   14   26 1
    26   23   27 1
    27   24   27 1
    28   27   28 1
@<TRIPOS>MOLECULE
ZINC04293721
   28    28     0     0     0
SMALL
USER_CHARGES
2-amino-3-[3-(carboxymethoxy)-5-methyl-isoxazol-4-yl]-propanoic acid
@<TRIPOS>ATOM
      1 C1         -3.5661   -3.4327    0.0160 C.3       1 <0>        -0.0749
      2 C2         -2.7709   -2.1526    0.0159 C.2       1 <0>        -0.0398
      3 C3         -1.4231   -2.0379   -0.0011 C.2       1 <0>        -0.2257
      4 C4         -1.1986   -0.6366    0.0101 C.2       1 <0>         0.2302
      5 N1         -2.3790   -0.0775    0.0239 N.2       1 <0>        -0.4059
      6 O1         -3.2610   -0.9046    0.0273 O.3       1 <0>         0.1065
      7 O2          0.0021   -0.0041    0.0020 O.3       1 <0>        -0.2489
      8 C5         -0.0173    1.4248    0.0099 C.3       1 <0>         0.0219
      9 C6          1.3965    1.9464   -0.0008 C.2       1 <0>         0.4679
     10 O3          2.3254    1.1738   -0.0138 O.co2     1 <0>        -0.6043
     11 C7         -0.3978   -3.1422   -0.0235 C.3       1 <0>        -0.0371
     12 C8         -0.0349   -3.5304    1.4113 C.3       1 <0>        -0.0129
     13 H1          0.2922   -2.6445    1.9557 H         1 <0>         0.1435
     14 C9          1.0777   -4.5466    1.3906 C.2       1 <0>         0.4581
     15 O4          0.8270   -5.7198    1.5340 O.co2     1 <0>        -0.6259
     16 H2         -4.6307   -3.1991    0.0265 H         1 <0>         0.0962
     17 H3         -3.3291   -4.0077   -0.8792 H         1 <0>         0.1010
     18 H4         -3.3136   -4.0172    0.9007 H         1 <0>         0.0665
     19 H5         -0.5445    1.7859   -0.8732 H         1 <0>         0.0708
     20 H6         -0.5275    1.7763    0.9067 H         1 <0>         0.0702
     21 H7         -0.8085   -4.0088   -0.5415 H         1 <0>         0.0949
     22 H8          0.4959   -2.7976   -0.5438 H         1 <0>         0.1312
     23 H9         -1.9499   -3.4235    2.1594 H         1 <0>         0.4145
     24 H10        -1.5346   -4.9295    1.5892 H         1 <0>         0.4293
     25 O5          1.6238    3.2693    0.0041 O.co2     1 <0>        -0.7494
     26 O6          2.3472   -4.1484    1.2129 O.co2     1 <0>        -0.6876
     27 N2         -1.2018   -4.1121    2.0978 N.4       1 <0>        -0.6260
     28 H11        -0.9287   -4.3958    3.0461 H         1 <0>         0.4354
@<TRIPOS>BOND
     1    1    2 1
     2    1   16 1
     3    1   17 1
     4    1   18 1
     5    2    6 1
     6    2    3 2
     7    3    4 1
     8    3   11 1
     9    4    5 2
    10    4    7 1
    11    5    6 1
    12    7    8 1
    13    8    9 1
    14    8   19 1
    15    8   20 1
    16    9   10 2
    17    9   25 1
    18   11   12 1
    19   11   21 1
    20   11   22 1
    21   12   13 1
    22   12   14 1
    23   12   27 1
    24   14   15 2
    25   14   26 1
    26   23   27 1
    27   24   27 1
    28   27   28 1
@<TRIPOS>MOLECULE
ZINC01490608
   30    31     0     0     0
SMALL
USER_CHARGES

@<TRIPOS>ATOM
      1 C1         -0.0189    1.5401    0.0105 C.3       1 <0>        -0.1133
      2 C2          1.4878    1.8792   -0.0021 C.3       1 <0>        -0.0554
      3 C3          2.1649    0.6773    0.6185 C.2       1 <0>        -0.2360
      4 C4          1.3303   -0.3821    0.6214 C.2       1 <0>         0.1259
      5 N1          1.7575   -1.5758    1.1444 N.am      1 <0>        -0.5370
      6 C5          2.9954   -1.7011    1.6530 C.2       1 <0>         0.6956
      7 O1          3.3501   -2.7702    2.1109 O.2       1 <0>        -0.5145
      8 N2          3.8478   -0.6595    1.6621 N.am      1 <0>        -0.6548
      9 H1          4.7379   -0.7660    2.0327 H         1 <0>         0.4383
     10 C6          3.4674    0.5311    1.1585 C.2       1 <0>         0.5583
     11 O2          4.2377    1.4743    1.1657 O.2       1 <0>        -0.4963
     12 C7          0.8533   -2.7285    1.1491 C.3       1 <0>         0.1032
     13 C8          1.0316   -3.5219   -0.1470 C.3       1 <0>        -0.0656
     14 H2          2.0362   -3.9435   -0.1796 H         1 <0>         0.1438
     15 C9          0.0175   -4.6355   -0.1978 C.2       1 <0>         0.4939
     16 O3         -1.0741   -4.4431   -0.7056 O.co2     1 <0>        -0.6590
     17 O4          0.2887   -5.7287    0.2688 O.co2     1 <0>        -0.6196
     18 N3          0.8374   -2.6298   -1.2978 N.4       1 <0>        -0.6177
     19 C10         0.0021   -0.0041    0.0020 C.3       1 <0>        -0.0918
     20 H3         -0.4958    1.9183    0.9147 H         1 <0>         0.0891
     21 H4         -0.5130    1.9279   -0.8803 H         1 <0>         0.0974
     22 H5          1.8351    2.0233   -1.0251 H         1 <0>         0.0891
     23 H6          1.6801    2.7717    0.5934 H         1 <0>         0.0906
     24 H7          1.0842   -3.3679    2.0011 H         1 <0>         0.1445
     25 H8         -0.1773   -2.3816    1.2239 H         1 <0>         0.1217
     26 H9         -0.0926   -2.2394   -1.2676 H         1 <0>         0.4306
     27 H10         1.5163   -1.8842   -1.2637 H         1 <0>         0.4087
     28 H11        -0.8202   -0.3972    0.5999 H         1 <0>         0.1073
     29 H12        -0.0592   -0.3780   -1.0200 H         1 <0>         0.0864
     30 H13         0.9549   -3.1529   -2.1525 H         1 <0>         0.4368
@<TRIPOS>BOND
     1    1   19 1
     2    1    2 1
     3    1   20 1
     4    1   21 1
     5    2    3 1
     6    2   22 1
     7    2   23 1
     8    3   10 1
     9    3    4 2
    10    4    5 1
    11    4   19 1
    12    5    6 am
    13    5   12 1
    14    6    7 2
    15    6    8 am
    16    8    9 1
    17    8   10 am
    18   10   11 2
    19   12   13 1
    20   12   24 1
    21   12   25 1
    22   13   14 1
    23   13   15 1
    24   13   18 1
    25   15   16 2
    26   15   17 1
    27   18   26 1
    28   18   27 1
    29   18   30 1
    30   19   28 1
    31   19   29 1
@<TRIPOS>MOLECULE
ZINC13734379
   19    20     0     0     0
SMALL
USER_CHARGES
2,3-dioxo-1,4-dihydroquinoxaline-6-carbonitrile
@<TRIPOS>ATOM
      1 C1         -0.0615    4.1725    0.0245 C.ar      1 <0>        -0.0531
      2 C2          1.1434    3.5085    0.0099 C.ar      1 <0>        -0.1183
      3 C3          1.1773    2.1162    0.0022 C.ar      1 <0>         0.1494
      4 C4         -0.0168    1.3887    0.0097 C.ar      1 <0>         0.1167
      5 C5         -1.2321    2.0562    0.0307 C.ar      1 <0>        -0.0690
      6 C6         -1.2599    3.4510    0.0316 C.ar      1 <0>        -0.0112
      7 C7         -2.5134    4.1431    0.0468 C.1       1 <0>         0.2486
      8 N1         -3.5078    4.6922    0.0588 N.1       1 <0>        -0.3999
      9 N2          0.0021   -0.0041    0.0020 N.am      1 <0>        -0.6342
     10 H1         -0.8316   -0.5000    0.0073 H         1 <0>         0.4260
     11 C8          1.1781   -0.6637   -0.0122 C.2       1 <0>         0.5100
     12 O1          1.2007   -1.8780   -0.0190 O.2       1 <0>        -0.4600
     13 C9          2.4510    0.1140   -0.0201 C.2       1 <0>         0.5094
     14 O2          3.5207   -0.4610   -0.0334 O.2       1 <0>        -0.4577
     15 N3          2.4026    1.4613   -0.0129 N.am      1 <0>        -0.6338
     16 H2          3.2255    1.9748   -0.0176 H         1 <0>         0.4266
     17 H3         -0.0822    5.2522    0.0308 H         1 <0>         0.1479
     18 H4          2.0664    4.0692    0.0048 H         1 <0>         0.1521
     19 H5         -2.1560    1.4970    0.0410 H         1 <0>         0.1505
@<TRIPOS>BOND
     1    1    6 ar
     2    1    2 ar
     3    1   17 1
     4    2    3 ar
     5    2   18 1
     6    3   15 1
     7    3    4 ar
     8    4    5 ar
     9    4    9 1
    10    5    6 ar
    11    5   19 1
    12    6    7 1
    13    7    8 3
    14    9   10 1
    15    9   11 am
    16   11   12 2
    17   11   13 1
    18   13   14 2
    19   13   15 am
    20   15   16 1
@<TRIPOS>MOLECULE
ZINC00901774
   23    23     0     0     0
SMALL
USER_CHARGES

@<TRIPOS>ATOM
      1 C1         -0.0171    1.4115    0.0098 C.2       1 <0>        -0.2604
      2 C2          1.1534    2.0845    0.0022 C.2       1 <0>         0.1248
      3 N1          2.3333    1.3916   -0.0127 N.am      1 <0>        -0.5523
      4 C3          2.3379    0.0462   -0.0205 C.2       1 <0>         0.6906
      5 O1          3.3978   -0.5494   -0.0342 O.2       1 <0>        -0.5159
      6 N2          1.1858   -0.6496   -0.0128 N.am      1 <0>        -0.6576
      7 H1          1.2071   -1.6194   -0.0179 H         1 <0>         0.4356
      8 C4          0.0021   -0.0041    0.0020 C.2       1 <0>         0.5431
      9 O2         -1.0408   -0.6329    0.0090 O.2       1 <0>        -0.4988
     10 C5          3.6034    2.1217   -0.0210 C.3       1 <0>         0.1053
     11 C6          4.0593    2.3681    1.4186 C.3       1 <0>        -0.0659
     12 H2          4.2781    1.4143    1.8987 H         1 <0>         0.1432
     13 C7          5.2998    3.2238    1.4132 C.2       1 <0>         0.4928
     14 O3          5.2025    4.4385    1.4520 O.co2     1 <0>        -0.6594
     15 O4          6.4006    2.7015    1.3699 O.co2     1 <0>        -0.6202
     16 N3          2.9932    3.0559    2.1590 N.4       1 <0>        -0.6156
     17 H3         -0.9555    1.9460    0.0261 H         1 <0>         0.1797
     18 H4          1.1584    3.1644    0.0076 H         1 <0>         0.1826
     19 H5          4.3570    1.5339   -0.5452 H         1 <0>         0.1439
     20 H6          3.4701    3.0771   -0.5284 H         1 <0>         0.1247
     21 H7          2.1627    2.4829    2.1626 H         1 <0>         0.4089
     22 H8          3.2939    3.2184    3.1083 H         1 <0>         0.4377
     23 H9          2.7907    3.9388    1.7145 H         1 <0>         0.4332
@<TRIPOS>BOND
     1    1    8 1
     2    1    2 2
     3    1   17 1
     4    2    3 1
     5    2   18 1
     6    3    4 am
     7    3   10 1
     8    4    5 2
     9    4    6 am
    10    6    7 1
    11    6    8 am
    12    8    9 2
    13   10   11 1
    14   10   19 1
    15   10   20 1
    16   11   12 1
    17   11   13 1
    18   11   16 1
    19   13   14 2
    20   13   15 1
    21   16   21 1
    22   16   22 1
    23   16   23 1
@<TRIPOS>MOLECULE
ZINC03108048
   23    23     0     0     0
SMALL
USER_CHARGES

@<TRIPOS>ATOM
      1 C1         -0.0171    1.4115    0.0098 C.2       1 <0>        -0.2755
      2 C2          1.1534    2.0845    0.0022 C.2       1 <0>         0.1622
      3 N1          2.3333    1.3916   -0.0127 N.am      1 <0>        -0.5504
      4 C3          2.3379    0.0462   -0.0205 C.2       1 <0>         0.6832
      5 O1          3.3978   -0.5494   -0.0342 O.2       1 <0>        -0.5443
      6 N2          1.1858   -0.6496   -0.0128 N.am      1 <0>        -0.6565
      7 H1          1.2071   -1.6194   -0.0179 H         1 <0>         0.4354
      8 C4          0.0021   -0.0041    0.0020 C.2       1 <0>         0.5436
      9 O2         -1.0408   -0.6329    0.0090 O.2       1 <0>        -0.4972
     10 C5          3.6034    2.1217   -0.0210 C.3       1 <0>         0.1044
     11 C6          4.0593    2.3681    1.4186 C.3       1 <0>        -0.0656
     12 H2          3.3499    3.0292    1.9163 H         1 <0>         0.1413
     13 C7          5.4232    3.0091    1.4108 C.2       1 <0>         0.4950
     14 O3          5.5542    4.1588    1.0266 O.co2     1 <0>        -0.6271
     15 O4          6.3955    2.3781    1.7887 O.co2     1 <0>        -0.6574
     16 N3          4.1237    1.0887    2.1376 N.4       1 <0>        -0.6105
     17 H3         -0.9555    1.9460    0.0261 H         1 <0>         0.1792
     18 H4          1.1584    3.1644    0.0076 H         1 <0>         0.1892
     19 H5          4.3570    1.5339   -0.5452 H         1 <0>         0.1260
     20 H6          3.4701    3.0771   -0.5284 H         1 <0>         0.1451
     21 H7          4.4244    1.2512    3.0870 H         1 <0>         0.4353
     22 H8          3.2106    0.6595    2.1428 H         1 <0>         0.4038
     23 H9          4.7804    0.4766    1.6769 H         1 <0>         0.4406
@<TRIPOS>BOND
     1    1    8 1
     2    1    2 2
     3    1   17 1
     4    2    3 1
     5    2   18 1
     6    3    4 am
     7    3   10 1
     8    4    5 2
     9    4    6 am
    10    6    7 1
    11    6    8 am
    12    8    9 2
    13   10   11 1
    14   10   19 1
    15   10   20 1
    16   11   12 1
    17   11   13 1
    18   11   16 1
    19   13   14 2
    20   13   15 1
    21   16   21 1
    22   16   22 1
    23   16   23 1
@<TRIPOS>MOLECULE
ZINC27191322
   24    24     0     0     0
SMALL
USER_CHARGES
(2S)-2-amino-3-(5-nitro-2,4-dioxo-pyrimidin-1-yl)propanoic acid
@<TRIPOS>ATOM
      1 C1         -4.3360    2.3383   -1.1843 C.2       1 <0>         0.2387
      2 C2         -5.4567    3.0914   -1.1911 C.2       1 <0>        -0.2302
      3 C3         -5.3517    4.4804   -1.4441 C.2       1 <0>         0.5273
      4 O1         -6.3489    5.1792   -1.4603 O.3       1 <0>        -0.5263
      5 N1         -4.1374    5.0223   -1.6673 N.2       1 <0>        -0.6556
      6 C4         -3.0358    4.2491   -1.6496 C.2       1 <0>         0.6225
      7 O2         -1.9474    4.7517   -1.8523 O.2       1 <0>        -0.5910
      8 N2         -3.1220    2.9279   -1.4105 N.am      1 <0>        -0.5508
      9 C5         -1.9054    2.1118   -1.3981 C.3       1 <0>         0.0897
     10 C6         -1.3313    2.0738    0.0196 C.3       1 <0>        -0.0198
     11 H1         -2.0277    1.5801    0.7133 H         1 <0>         0.1315
     12 C7         -0.0161    1.3381    0.0094 C.2       1 <0>         0.4630
     13 O3          1.0219    1.9564    0.0028 O.co2     1 <0>        -0.6099
     14 O4          0.0021   -0.0041    0.0020 O.co2     1 <0>        -0.7075
     15 N3         -1.1210    3.4460    0.4998 N.4       1 <0>        -0.6602
     16 N4         -6.7780    2.4720   -0.9430 N.pl3     1 <0>         0.0579
     17 O5         -6.8589    1.2762   -0.7263 O.2       1 <0>        -0.2238
     18 O6         -7.7842    3.1581   -0.9557 O.3       1 <0>        -0.1303
     19 H2         -4.3969    1.2764   -0.9972 H         1 <0>         0.1796
     20 H3         -2.1466    1.0891   -1.7236 H         1 <0>         0.1277
     21 H4         -1.1636    2.5491   -2.0825 H         1 <0>         0.1251
     22 H5         -0.7083    3.4185    1.5191 H         1 <0>         0.4450
     23 H6         -2.0810    3.9830    0.5073 H         1 <0>         0.4349
     24 H7         -0.4163    3.9640   -0.1674 H         1 <0>         0.4626
@<TRIPOS>BOND
     1    1    8 1
     2    1    2 2
     3    1   19 1
     4    2    3 1
     5    2   16 1
     6    3    4 1
     7    3    5 2
     8    5    6 1
     9    6    7 2
    10    6    8 am
    11    8    9 1
    12    9   10 1
    13    9   20 1
    14    9   21 1
    15   10   11 1
    16   10   12 1
    17   10   15 1
    18   12   13 2
    19   12   14 1
    20   15   22 1
    21   15   23 1
    22   15   24 1
    23   16   17 2
    24   16   18 1
@<TRIPOS>MOLECULE
ZINC28108493
   24    24     0     0     0
SMALL
USER_CHARGES
(2R)-2-amino-3-(5-nitro-2,4-dioxo-pyrimidin-1-yl)propanoic acid
@<TRIPOS>ATOM
      1 C1          2.3402    1.4135   -0.0128 C.2       1 <0>         0.1985
      2 C2          2.3876    0.0642   -0.0205 C.2       1 <0>        -0.2156
      3 C3          1.1757   -0.6677   -0.0128 C.2       1 <0>         0.5225
      4 O1          1.1931   -1.8854   -0.0199 O.3       1 <0>        -0.5323
      5 N1          0.0021   -0.0041    0.0020 N.2       1 <0>        -0.6531
      6 C4         -0.0162    1.3418    0.0094 C.2       1 <0>         0.6292
      7 O2         -1.0821    1.9267    0.0176 O.2       1 <0>        -0.5621
      8 N2          1.1284    2.0489    0.0023 N.am      1 <0>        -0.5433
      9 C5          1.0768    3.5130    0.0107 C.3       1 <0>         0.0913
     10 C6          1.0726    4.0149    1.4560 C.3       1 <0>        -0.0213
     11 H1          0.1676    3.6825    1.9856 H         1 <0>         0.1436
     12 C7          1.1435    5.5202    1.4653 C.2       1 <0>         0.4639
     13 O3          2.1975    6.0741    1.6705 O.co2     1 <0>        -0.6182
     14 O4          0.0357    6.2456    1.2456 O.co2     1 <0>        -0.6962
     15 N3          2.2340    3.4656    2.1685 N.4       1 <0>        -0.6676
     16 N4          3.6892   -0.6404   -0.0372 N.pl3     1 <0>         0.0560
     17 O5          4.7269   -0.0027   -0.0438 O.2       1 <0>        -0.2312
     18 O6          3.7226   -1.8580   -0.0445 O.3       1 <0>        -0.1238
     19 H2          3.2543    1.9886   -0.0181 H         1 <0>         0.1722
     20 H3          1.9565    3.9139   -0.5141 H         1 <0>         0.1059
     21 H4          0.1614    3.8506   -0.4973 H         1 <0>         0.1459
     22 H5          2.2310    3.8265    3.2076 H         1 <0>         0.4549
     23 H6          3.1583    3.7922    1.6696 H         1 <0>         0.4488
     24 H7          2.1823    2.3668    2.1617 H         1 <0>         0.4320
@<TRIPOS>BOND
     1    1    8 1
     2    1    2 2
     3    1   19 1
     4    2    3 1
     5    2   16 1
     6    3    4 1
     7    3    5 2
     8    5    6 1
     9    6    7 2
    10    6    8 am
    11    8    9 1
    12    9   10 1
    13    9   20 1
    14    9   21 1
    15   10   11 1
    16   10   12 1
    17   10   15 1
    18   12   13 2
    19   12   14 1
    20   15   22 1
    21   15   23 1
    22   15   24 1
    23   16   17 2
    24   16   18 1
@<TRIPOS>MOLECULE
ZINC13912676
   63    66     0     0     0
SMALL
USER_CHARGES

@<TRIPOS>ATOM
      1 C1         -0.3616    1.4975    0.4108 C.3       1 <0>         0.0226
      2 N1         -0.2601    0.0368    0.2927 N.3       1 <0>        -0.5346
      3 C2         -1.5940   -0.5839    0.2628 C.3       1 <0>         0.0486
      4 C3         -1.4463   -2.0267   -0.2204 C.3       1 <0>        -0.0788
      5 C4         -0.3742   -2.7292    0.5743 C.ar      1 <0>        -0.0021
      6 C5         -0.3375   -4.1286    0.5416 C.ar      1 <0>        -0.0976
      7 C6          0.6345   -4.8200    1.2554 C.ar      1 <0>        -0.0153
      8 C7          1.5683   -4.1120    1.9986 C.ar      1 <0>        -0.0874
      9 C8          1.5323   -2.7136    2.0335 C.ar      1 <0>         0.1848
     10 C9          0.5489   -2.0296    1.3149 C.ar      1 <0>        -0.1020
     11 C10         0.5359   -0.5249    1.3884 C.3       1 <0>         0.0970
     12 N2          2.5635   -2.2432    2.8408 N.am      1 <0>        -0.6547
     13 C11         3.2901   -3.2523    3.3505 C.2       1 <0>         0.5438
     14 O1          4.2502   -3.1431    4.0879 O.2       1 <0>        -0.4623
     15 C12         2.7093   -4.5253    2.8512 C.2       1 <0>         0.0780
     16 N3          3.1130   -5.7368    3.1060 N.2       1 <0>        -0.2067
     17 O2          4.2305   -5.9480    3.9495 O.3       1 <0>        -0.1585
     18 C13         4.5618   -7.3248    4.1417 C.3       1 <0>         0.0225
     19 H1          4.3630   -7.8778    3.2237 H         1 <0>         0.0742
     20 C14         6.0441   -7.4475    4.5002 C.3       1 <0>        -0.0942
     21 C15         6.8953   -6.9880    3.3147 C.3       1 <0>         0.0770
     22 O3          8.2797   -7.1026    3.6495 O.3       1 <0>        -0.5736
     23 C16         3.7259   -7.8912    5.2604 C.2       1 <0>         0.4860
     24 O4          3.7877   -9.0794    5.5262 O.co2     1 <0>        -0.6900
     25 O5          2.9877   -7.1611    5.8996 O.co2     1 <0>        -0.6753
     26 C17        -1.3399   -4.8759   -0.2572 C.ar      1 <0>         0.0278
     27 C18        -1.4810   -4.6188   -1.6195 C.ar      1 <0>        -0.1269
     28 C19        -2.4147   -5.3174   -2.3578 C.ar      1 <0>        -0.0202
     29 C20        -3.2095   -6.2711   -1.7480 C.ar      1 <0>        -0.6809
     30 C21        -3.0741   -6.5300   -0.3959 C.ar      1 <0>        -0.0167
     31 C22        -2.1397   -5.8415    0.3509 C.ar      1 <0>        -0.1254
     32 S1         -4.3995   -7.1590   -2.6968 S.o2      1 <0>         2.6918
     33 O6         -5.3929   -7.6077   -1.7851 O.2       1 <0>        -0.9538
     34 O7         -4.7086   -6.3483   -3.8221 O.2       1 <0>        -0.9568
     35 N4         -3.6474   -8.5136   -3.2816 N.pl3     1 <0>        -1.0050
     36 C23        -3.6633   -9.7542   -2.5027 C.3       1 <0>         0.0910
     37 C24        -2.9662   -8.4712   -4.5778 C.3       1 <0>         0.0842
     38 H2          0.6362    1.9349    0.3779 H         1 <0>         0.0707
     39 H3         -0.9570    1.8882   -0.4143 H         1 <0>         0.0725
     40 H4         -0.8394    1.7532    1.3566 H         1 <0>         0.0282
     41 H5         -2.0246   -0.5753    1.2642 H         1 <0>         0.0431
     42 H6         -2.2392   -0.0328   -0.4213 H         1 <0>         0.0839
     43 H7         -2.3937   -2.5502   -0.0916 H         1 <0>         0.0856
     44 H8         -1.1742   -2.0287   -1.2758 H         1 <0>         0.0927
     45 H9          0.6625   -5.8994    1.2319 H         1 <0>         0.1410
     46 H10         1.5579   -0.1527    1.3180 H         1 <0>         0.0860
     47 H11         0.1058   -0.2150    2.3408 H         1 <0>         0.0508
     48 H12         2.7361   -1.3045    3.0141 H         1 <0>         0.4172
     49 H13         6.2612   -6.8231    5.3669 H         1 <0>         0.0761
     50 H14         6.2767   -8.4865    4.7334 H         1 <0>         0.0966
     51 H15         6.6782   -7.6123    2.4480 H         1 <0>         0.0420
     52 H16         6.6626   -5.9490    3.0815 H         1 <0>         0.0468
     53 H17         8.8794   -6.8277    2.9425 H         1 <0>         0.3722
     54 H18        -0.8611   -3.8742   -2.0966 H         1 <0>         0.1369
     55 H19        -2.5251   -5.1187   -3.4136 H         1 <0>         0.1400
     56 H20        -3.6978   -7.2752    0.0753 H         1 <0>         0.1413
     57 H21        -2.0316   -6.0477    1.4055 H         1 <0>         0.1389
     58 H22        -4.5382  -10.3439   -2.7764 H         1 <0>         0.0616
     59 H23        -2.7595  -10.3264   -2.7121 H         1 <0>         0.0759
     60 H24        -3.7041   -9.5155   -1.4399 H         1 <0>         0.0738
     61 H25        -3.0602   -7.4729   -5.0053 H         1 <0>         0.0853
     62 H26        -1.9114   -8.7104   -4.4420 H         1 <0>         0.0637
     63 H27        -3.4200   -9.1987   -5.2508 H         1 <0>         0.0669
@<TRIPOS>BOND
     1    1    2 1
     2    1   38 1
     3    1   39 1
     4    1   40 1
     5    2   11 1
     6    2    3 1
     7    3    4 1
     8    3   41 1
     9    3   42 1
    10    4    5 1
    11    4   43 1
    12    4   44 1
    13    5   10 ar
    14    5    6 ar
    15    6    7 ar
    16    6   26 1
    17    7    8 ar
    18    7   45 1
    19    8   15 1
    20    8    9 ar
    21    9   10 ar
    22    9   12 1
    23   10   11 1
    24   11   46 1
    25   11   47 1
    26   12   13 am
    27   12   48 1
    28   13   14 2
    29   13   15 1
    30   15   16 2
    31   16   17 1
    32   17   18 1
    33   18   19 1
    34   18   20 1
    35   18   23 1
    36   20   21 1
    37   20   49 1
    38   20   50 1
    39   21   22 1
    40   21   51 1
    41   21   52 1
    42   22   53 1
    43   23   24 2
    44   23   25 1
    45   26   31 ar
    46   26   27 ar
    47   27   28 ar
    48   27   54 1
    49   28   29 ar
    50   28   55 1
    51   29   30 ar
    52   29   32 1
    53   30   31 ar
    54   30   56 1
    55   31   57 1
    56   32   33 2
    57   32   34 2
    58   32   35 1
    59   35   36 1
    60   35   37 1
    61   36   58 1
    62   36   59 1
    63   36   60 1
    64   37   61 1
    65   37   62 1
    66   37   63 1
@<TRIPOS>MOLECULE
ZINC13912677
   63    66     0     0     0
SMALL
USER_CHARGES

@<TRIPOS>ATOM
      1 C1         -0.3616    1.4975    0.4108 C.3       1 <0>         0.0229
      2 N1         -0.2601    0.0368    0.2927 N.3       1 <0>        -0.5347
      3 C2         -1.5940   -0.5839    0.2628 C.3       1 <0>         0.0494
      4 C3         -1.4463   -2.0267   -0.2204 C.3       1 <0>        -0.0793
      5 C4         -0.3742   -2.7292    0.5743 C.ar      1 <0>        -0.0020
      6 C5         -0.3375   -4.1286    0.5416 C.ar      1 <0>        -0.0978
      7 C6          0.6345   -4.8200    1.2554 C.ar      1 <0>        -0.0151
      8 C7          1.5683   -4.1120    1.9986 C.ar      1 <0>        -0.0875
      9 C8          1.5323   -2.7136    2.0335 C.ar      1 <0>         0.1850
     10 C9          0.5489   -2.0296    1.3149 C.ar      1 <0>        -0.1022
     11 C10         0.5359   -0.5249    1.3884 C.3       1 <0>         0.0976
     12 N2          2.5635   -2.2432    2.8408 N.am      1 <0>        -0.6547
     13 C11         3.2901   -3.2523    3.3505 C.2       1 <0>         0.5438
     14 O1          4.2502   -3.1431    4.0879 O.2       1 <0>        -0.4622
     15 C12         2.7093   -4.5253    2.8512 C.2       1 <0>         0.0780
     16 N3          3.1130   -5.7368    3.1060 N.2       1 <0>        -0.2066
     17 O2          4.2305   -5.9480    3.9495 O.3       1 <0>        -0.1586
     18 C13         4.5618   -7.3248    4.1417 C.3       1 <0>         0.0226
     19 H1          3.6482   -7.9191    4.1603 H         1 <0>         0.0742
     20 C14         5.3049   -7.4901    5.4688 C.3       1 <0>        -0.0942
     21 C15         4.3687   -7.1338    6.6253 C.3       1 <0>         0.0771
     22 O3          5.0627   -7.2883    7.8649 O.3       1 <0>        -0.5736
     23 C16         5.4422   -7.7921    3.0114 C.2       1 <0>         0.4858
     24 O4          5.8316   -6.9970    2.1731 O.co2     1 <0>        -0.6750
     25 O5          5.7651   -8.9653    2.9352 O.co2     1 <0>        -0.6901
     26 C17        -1.3399   -4.8759   -0.2572 C.ar      1 <0>         0.0284
     27 C18        -1.4810   -4.6188   -1.6195 C.ar      1 <0>        -0.1259
     28 C19        -2.4147   -5.3174   -2.3578 C.ar      1 <0>        -0.0188
     29 C20        -3.2095   -6.2711   -1.7480 C.ar      1 <0>        -0.6810
     30 C21        -3.0741   -6.5300   -0.3959 C.ar      1 <0>        -0.0177
     31 C22        -2.1397   -5.8415    0.3509 C.ar      1 <0>        -0.1265
     32 S1         -4.3995   -7.1590   -2.6968 S.o2      1 <0>         2.6921
     33 O6         -5.3929   -7.6077   -1.7851 O.2       1 <0>        -0.9551
     34 O7         -4.7086   -6.3483   -3.8221 O.2       1 <0>        -0.9565
     35 N4         -3.6474   -8.5136   -3.2816 N.pl3     1 <0>        -1.0048
     36 C23        -3.6633   -9.7542   -2.5027 C.3       1 <0>         0.0912
     37 C24        -2.9662   -8.4712   -4.5778 C.3       1 <0>         0.0835
     38 H2          0.6362    1.9349    0.3779 H         1 <0>         0.0711
     39 H3         -0.9570    1.8882   -0.4143 H         1 <0>         0.0726
     40 H4         -0.8394    1.7532    1.3566 H         1 <0>         0.0275
     41 H5         -2.0246   -0.5753    1.2642 H         1 <0>         0.0422
     42 H6         -2.2392   -0.0328   -0.4213 H         1 <0>         0.0839
     43 H7         -2.3937   -2.5502   -0.0916 H         1 <0>         0.0854
     44 H8         -1.1742   -2.0287   -1.2758 H         1 <0>         0.0933
     45 H9          0.6625   -5.8994    1.2319 H         1 <0>         0.1411
     46 H10         1.5579   -0.1527    1.3180 H         1 <0>         0.0865
     47 H11         0.1058   -0.2150    2.3408 H         1 <0>         0.0499
     48 H12         2.7361   -1.3045    3.0141 H         1 <0>         0.4172
     49 H13         5.6353   -8.5235    5.5740 H         1 <0>         0.0966
     50 H14         6.1708   -6.8284    5.4853 H         1 <0>         0.0761
     51 H15         4.0383   -6.1004    6.5202 H         1 <0>         0.0467
     52 H16         3.5027   -7.7956    6.6089 H         1 <0>         0.0420
     53 H17         4.5288   -7.0788    8.6434 H         1 <0>         0.3722
     54 H18        -0.8611   -3.8742   -2.0966 H         1 <0>         0.1377
     55 H19        -2.5251   -5.1187   -3.4136 H         1 <0>         0.1406
     56 H20        -3.6978   -7.2752    0.0753 H         1 <0>         0.1405
     57 H21        -2.0316   -6.0477    1.4055 H         1 <0>         0.1369
     58 H22        -4.5382  -10.3439   -2.7764 H         1 <0>         0.0614
     59 H23        -2.7595  -10.3264   -2.7121 H         1 <0>         0.0765
     60 H24        -3.7041   -9.5155   -1.4399 H         1 <0>         0.0729
     61 H25        -3.0602   -7.4729   -5.0053 H         1 <0>         0.0855
     62 H26        -1.9114   -8.7104   -4.4420 H         1 <0>         0.0648
     63 H27        -3.4200   -9.1987   -5.2508 H         1 <0>         0.0672
@<TRIPOS>BOND
     1    1    2 1
     2    1   38 1
     3    1   39 1
     4    1   40 1
     5    2   11 1
     6    2    3 1
     7    3    4 1
     8    3   41 1
     9    3   42 1
    10    4    5 1
    11    4   43 1
    12    4   44 1
    13    5   10 ar
    14    5    6 ar
    15    6    7 ar
    16    6   26 1
    17    7    8 ar
    18    7   45 1
    19    8   15 1
    20    8    9 ar
    21    9   10 ar
    22    9   12 1
    23   10   11 1
    24   11   46 1
    25   11   47 1
    26   12   13 am
    27   12   48 1
    28   13   14 2
    29   13   15 1
    30   15   16 2
    31   16   17 1
    32   17   18 1
    33   18   19 1
    34   18   20 1
    35   18   23 1
    36   20   21 1
    37   20   49 1
    38   20   50 1
    39   21   22 1
    40   21   51 1
    41   21   52 1
    42   22   53 1
    43   23   24 2
    44   23   25 1
    45   26   31 ar
    46   26   27 ar
    47   27   28 ar
    48   27   54 1
    49   28   29 ar
    50   28   55 1
    51   29   30 ar
    52   29   32 1
    53   30   31 ar
    54   30   56 1
    55   31   57 1
    56   32   33 2
    57   32   34 2
    58   32   35 1
    59   35   36 1
    60   35   37 1
    61   36   58 1
    62   36   59 1
    63   36   60 1
    64   37   61 1
    65   37   62 1
    66   37   63 1
@<TRIPOS>MOLECULE
ZINC02047689
   23    23     0     0     0
SMALL
USER_CHARGES
2-amino-3-(5-bromo-2,4-dioxo-pyrimidin-1-yl)-propanoic acid
@<TRIPOS>ATOM
      1 C1         -0.0203    3.7007    0.0217 C.2       1 <0>         0.2057
      2 C2         -1.1968    3.0375    0.0298 C.2       1 <0>        -0.2662
      3 C3         -1.1894    1.6212    0.0165 C.2       1 <0>         0.5569
      4 O1         -2.2375    1.0011    0.0177 O.2       1 <0>        -0.4721
      5 N1         -0.0111    0.9658    0.0074 N.am      1 <0>        -0.6529
      6 H1          0.0025   -0.0341    0.0061 H         1 <0>         0.4482
      7 C4          1.1469    1.6518   -0.0000 C.2       1 <0>         0.6851
      8 O2          2.2016    1.0470   -0.0133 O.2       1 <0>        -0.5341
      9 N2          1.1541    2.9972    0.0067 N.am      1 <0>        -0.5442
     10 C5          2.4306    3.7160   -0.0016 C.3       1 <0>         0.1040
     11 C6          2.8614    3.9736   -1.4469 C.3       1 <0>        -0.0340
     12 H2          2.1486    4.6460   -1.9242 H         1 <0>         0.1474
     13 C7          4.2308    4.6027   -1.4584 C.2       1 <0>         0.4582
     14 O3          5.2053    3.9247   -1.6832 O.co2     1 <0>        -0.5998
     15 Br1        -2.8320    3.9871    0.0505 Br        1 <0>         0.0360
     16 H3         -0.0060    4.7806    0.0266 H         1 <0>         0.1981
     17 H4          2.3153    4.6672    0.5181 H         1 <0>         0.1505
     18 H5          3.1886    3.1163    0.5021 H         1 <0>         0.1321
     19 H6          3.5551    2.0602   -1.7570 H         1 <0>         0.4438
     20 H7          1.9812    2.2910   -2.2423 H         1 <0>         0.4102
     21 O4          4.3679    5.9163   -1.2188 O.co2     1 <0>        -0.6899
     22 N3          2.9091    2.7095   -2.2027 N.4       1 <0>        -0.6246
     23 H8          3.2317    2.8999   -3.1587 H         1 <0>         0.4413
@<TRIPOS>BOND
     1    1    9 1
     2    1    2 2
     3    1   16 1
     4    2    3 1
     5    2   15 1
     6    3    4 2
     7    3    5 am
     8    5    6 1
     9    5    7 am
    10    7    8 2
    11    7    9 am
    12    9   10 1
    13   10   11 1
    14   10   17 1
    15   10   18 1
    16   11   12 1
    17   11   13 1
    18   11   22 1
    19   13   14 2
    20   13   21 1
    21   19   22 1
    22   20   22 1
    23   22   23 1
@<TRIPOS>MOLECULE
ZINC12504088
   23    23     0     0     0
SMALL
USER_CHARGES
(2R)-2-amino-3-(5-bromo-2,4-dioxo-pyrimidin-1-yl)propanoic acid
@<TRIPOS>ATOM
      1 C1          2.1529   -0.6999    0.9492 C.2       1 <0>         0.1695
      2 C2          2.8997   -1.1416    1.9842 C.2       1 <0>        -0.2538
      3 C3          2.2731   -1.3865    3.2307 C.2       1 <0>         0.5565
      4 O1          2.9245   -1.7899    4.1773 O.2       1 <0>        -0.4743
      5 N1          0.9486   -1.1692    3.3594 N.am      1 <0>        -0.6538
      6 H1          0.4990   -1.3394    4.2363 H         1 <0>         0.4486
      7 C4          0.2290   -0.7242    2.3126 C.2       1 <0>         0.6908
      8 O2         -0.9646   -0.5329    2.4438 O.2       1 <0>        -0.5035
      9 N2          0.8116   -0.4876    1.1232 N.am      1 <0>        -0.5450
     10 C5          0.0021   -0.0041    0.0020 C.3       1 <0>         0.1063
     11 C6         -0.0187    1.5258    0.0104 C.3       1 <0>        -0.0350
     12 H2         -0.5289    1.8773    0.9072 H         1 <0>         0.1504
     13 C7         -0.7475    2.0250   -1.2105 C.2       1 <0>         0.4587
     14 O3         -0.1239    2.4114   -2.1705 O.co2     1 <0>        -0.6054
     15 Br1         4.7553   -1.4361    1.7703 Br        1 <0>         0.0363
     16 H3          2.6123   -0.5115   -0.0099 H         1 <0>         0.1903
     17 H4         -1.0158   -0.3818    0.0993 H         1 <0>         0.1538
     18 H5          0.4324   -0.3564   -0.9354 H         1 <0>         0.1267
     19 H6          1.8499    1.7668    0.8403 H         1 <0>         0.4142
     20 H7          1.8539    1.7219   -0.8222 H         1 <0>         0.4350
     21 O4         -2.0896    2.0403   -1.2314 O.co2     1 <0>        -0.6832
     22 N3          1.3549    2.0591   -0.0007 N.4       1 <0>        -0.6290
     23 H8          1.3185    3.0849   -0.0285 H         1 <0>         0.4457
@<TRIPOS>BOND
     1    1    9 1
     2    1    2 2
     3    1   16 1
     4    2    3 1
     5    2   15 1
     6    3    4 2
     7    3    5 am
     8    5    6 1
     9    5    7 am
    10    7    8 2
    11    7    9 am
    12    9   10 1
    13   10   11 1
    14   10   17 1
    15   10   18 1
    16   11   12 1
    17   11   13 1
    18   11   22 1
    19   13   14 2
    20   13   21 1
    21   19   22 1
    22   20   22 1
    23   22   23 1
@<TRIPOS>MOLECULE
ZINC19796130
   20    21     0     0     0
SMALL
USER_CHARGES

@<TRIPOS>ATOM
      1 C1         -0.0168    1.3873    0.0097 C.ar      1 <0>        -0.1736
      2 C2          1.1692    2.0908    0.0021 C.ar      1 <0>         0.0367
      3 C3          2.3892    1.4254   -0.0135 C.ar      1 <0>        -0.1663
      4 C4          2.4321    0.0486   -0.0218 C.ar      1 <0>         0.0638
      5 C5          1.2385   -0.6785   -0.0139 C.ar      1 <0>        -0.2058
      6 C6          0.0021   -0.0041    0.0020 C.ar      1 <0>         0.2316
      7 N1         -1.1676   -0.7266    0.0088 N.pl3     1 <0>        -0.5818
      8 H1         -2.0149   -0.2546    0.0194 H         1 <0>         0.4278
      9 C7         -1.1664   -2.0925    0.0006 C.2       1 <0>         0.1417
     10 C8         -0.0188   -2.8151   -0.0138 C.2       1 <0>        -0.2806
     11 C9          1.2392   -2.1492   -0.0222 C.2       1 <0>         0.4127
     12 O1          2.2837   -2.7778   -0.0360 O.2       1 <0>        -0.4868
     13 C10        -2.4631   -2.8092    0.0081 C.2       1 <0>         0.5240
     14 O2         -2.4860   -4.0311    0.0010 O.co2     1 <0>        -0.6455
     15 O3         -3.5098   -2.1784    0.0215 O.co2     1 <0>        -0.6718
     16 Cl1         3.9586   -0.7779   -0.0425 Cl        1 <0>        -0.0235
     17 Cl2         1.1379    3.8265    0.0117 Cl        1 <0>        -0.0561
     18 H2         -0.9588    1.9154    0.0260 H         1 <0>         0.1482
     19 H3          3.3091    1.9912   -0.0196 H         1 <0>         0.1458
     20 H4         -0.0593   -3.8944   -0.0192 H         1 <0>         0.1596
@<TRIPOS>BOND
     1    1    6 ar
     2    1    2 ar
     3    1   18 1
     4    2    3 ar
     5    2   17 1
     6    3    4 ar
     7    3   19 1
     8    4    5 ar
     9    4   16 1
    10    5   11 1
    11    5    6 ar
    12    6    7 1
    13    7    8 1
    14    7    9 1
    15    9   10 2
    16    9   13 1
    17   10   11 1
    18   10   20 1
    19   11   12 2
    20   13   14 2
    21   13   15 1
@<TRIPOS>MOLECULE
ZINC01482113
   18    17     0     0     0
SMALL
USER_CHARGES

@<TRIPOS>ATOM
      1 C1         -0.0187    1.5258    0.0104 C.3       1 <0>        -0.1000
      2 C2          0.0021   -0.0041    0.0020 C.3       1 <0>        -0.1962
      3 C3         -1.4117   -0.5257    0.0127 C.2       1 <0>         0.4893
      4 O1         -2.3491    0.2539    0.0259 O.co2     1 <0>        -0.6870
      5 O2         -1.6182   -1.7273    0.0082 O.co2     1 <0>        -0.7019
      6 C4          1.4167    2.0553   -0.0004 C.3       1 <0>        -0.0520
      7 H1          1.9535    1.6326   -0.8497 H         1 <0>         0.1269
      8 C5          1.3970    3.5578   -0.1160 C.2       1 <0>         0.4945
      9 O3          1.7295    4.2467    0.8334 O.co2     1 <0>        -0.6861
     10 O4          1.0484    4.0844   -1.1589 O.co2     1 <0>        -0.6413
     11 N1          2.0906    1.6690    1.2464 N.4       1 <0>        -0.6105
     12 H2         -0.5459    1.8868   -0.8726 H         1 <0>         0.1064
     13 H3         -0.5289    1.8773    0.9072 H         1 <0>         0.0773
     14 H4          0.5123   -0.3556   -0.8948 H         1 <0>         0.0672
     15 H5          0.5293   -0.3651    0.8851 H         1 <0>         0.0471
     16 H6          2.1039    0.6630    1.3237 H         1 <0>         0.4141
     17 H7          3.0372    2.0182    1.2392 H         1 <0>         0.4227
     18 H8          1.5937    2.0603    2.0325 H         1 <0>         0.4293
@<TRIPOS>BOND
     1    1    2 1
     2    1    6 1
     3    1   12 1
     4    1   13 1
     5    2    3 1
     6    2   14 1
     7    2   15 1
     8    3    4 2
     9    3    5 1
    10    6    7 1
    11    6    8 1
    12    6   11 1
    13    8    9 2
    14    8   10 1
    15   11   16 1
    16   11   17 1
    17   11   18 1
@<TRIPOS>MOLECULE
ZINC26378419
   19    19     0     0     0
SMALL
USER_CHARGES

@<TRIPOS>ATOM
      1 C1         -0.0187    1.5258    0.0104 C.3       1 <0>        -0.0861
      2 C2         -0.7475    2.0250   -1.2105 C.2       1 <0>         0.1567
      3 C3         -2.0514    2.3583   -1.2609 C.2       1 <0>        -0.2778
      4 C4         -2.3511    2.7771   -2.5748 C.2       1 <0>         0.5485
      5 N1         -1.2116    2.6860   -3.2928 N.am      1 <0>        -0.5743
      6 O1         -0.2019    2.2140   -2.4182 O.3       1 <0>        -0.0326
      7 O2         -3.4377    3.1518   -2.9854 O.2       1 <0>        -0.5085
      8 Cl1        -3.1717    2.2846    0.0632 Cl        1 <0>        -0.0005
      9 C5          0.0021   -0.0041    0.0020 C.3       1 <0>         0.0315
     10 H1          0.4324   -0.3564   -0.9354 H         1 <0>         0.0809
     11 C6          0.8348   -0.5015    1.1553 C.2       1 <0>         0.5052
     12 O3          0.2991   -1.0577    2.0988 O.co2     1 <0>        -0.6715
     13 O4          2.0443   -0.3478    1.1449 O.co2     1 <0>        -0.6957
     14 N2         -1.3697   -0.5131    0.1331 N.3       1 <0>        -0.8184
     15 H2          1.0039    1.9031    0.0027 H         1 <0>         0.1102
     16 H3         -0.5289    1.8773    0.9072 H         1 <0>         0.1086
     17 H4         -1.7907   -0.2000    0.9949 H         1 <0>         0.3462
     18 H5         -1.9316   -0.2469   -0.6615 H         1 <0>         0.3173
     19 H6         -1.1036    2.9056   -4.2314 H         1 <0>         0.4601
@<TRIPOS>BOND
     1    1    9 1
     2    1   15 1
     3    1   16 1
     4    1    2 1
     5    2    3 2
     6    2    6 1
     7    3    4 1
     8    3    8 1
     9    4    5 am
    10    4    7 2
    11    5    6 1
    12    5   19 1
    13    9   10 1
    14    9   11 1
    15    9   14 1
    16   11   12 2
    17   11   13 1
    18   14   17 1
    19   14   18 1
@<TRIPOS>MOLECULE
ZINC26378419
   20    20     0     0     0
SMALL
USER_CHARGES

@<TRIPOS>ATOM
      1 C1         -0.0187    1.5258    0.0104 C.3       1 <0>        -0.0668
      2 C2         -0.7475    2.0250   -1.2105 C.2       1 <0>         0.0912
      3 C3         -2.0675    2.2708   -1.2966 C.2       1 <0>        -0.2432
      4 C4         -2.3446    2.7230   -2.6060 C.2       1 <0>         0.3157
      5 N1         -1.2194    2.7426   -3.2713 N.2       1 <0>        -0.2941
      6 O1         -0.1915    2.3073   -2.3998 O.3       1 <0>        -0.0280
      7 O2         -3.5636    3.0742   -3.0882 O.3       1 <0>        -0.4408
      8 Cl1        -3.2277    2.0677   -0.0212 Cl        1 <0>        -0.0056
      9 C5          0.0021   -0.0041    0.0020 C.3       1 <0>        -0.0454
     10 H1          0.4324   -0.3564   -0.9354 H         1 <0>         0.1448
     11 C6          0.8348   -0.5015    1.1553 C.2       1 <0>         0.4928
     12 O3          0.3127   -0.7178    2.2356 O.co2     1 <0>        -0.6571
     13 O4          2.0307   -0.6877    1.0081 O.co2     1 <0>        -0.6237
     14 N2         -1.3697   -0.5131    0.1331 N.4       1 <0>        -0.6187
     15 H2          1.0039    1.9031    0.0027 H         1 <0>         0.1474
     16 H3         -0.5289    1.8773    0.9072 H         1 <0>         0.1294
     17 H4         -1.3560   -1.5220    0.1276 H         1 <0>         0.4372
     18 H5         -1.7680   -0.1869    1.0009 H         1 <0>         0.4339
     19 H6         -3.7791    4.0093   -2.9693 H         1 <0>         0.4221
     20 H7         -1.9272   -0.1801   -0.6391 H         1 <0>         0.4088
@<TRIPOS>BOND
     1    1    9 1
     2    1   15 1
     3    1   16 1
     4    1    2 1
     5    2    3 2
     6    2    6 1
     7    3    4 1
     8    3    8 1
     9    4    5 2
    10    4    7 1
    11    5    6 1
    12    7   19 1
    13    9   10 1
    14    9   11 1
    15    9   14 1
    16   11   12 2
    17   11   13 1
    18   14   17 1
    19   14   18 1
    20   14   20 1
@<TRIPOS>MOLECULE
ZINC26378419
   18    18     0     0     0
SMALL
USER_CHARGES

@<TRIPOS>ATOM
      1 C1         -0.0187    1.5258    0.0104 C.3       1 <0>        -0.0700
      2 C2         -0.7475    2.0250   -1.2105 C.2       1 <0>         0.0738
      3 C3         -2.0675    2.2708   -1.2966 C.2       1 <0>        -0.2475
      4 C4         -2.3446    2.7230   -2.6060 C.2       1 <0>         0.3766
      5 N1         -1.2194    2.7426   -3.2713 N.2       1 <0>        -0.4541
      6 O1         -0.1915    2.3073   -2.3998 O.3       1 <0>        -0.1195
      7 O2         -3.5636    3.0742   -3.0882 O.3       1 <0>        -0.7140
      8 Cl1        -3.2277    2.0677   -0.0212 Cl        1 <0>        -0.0763
      9 C5          0.0021   -0.0041    0.0020 C.3       1 <0>         0.0338
     10 H1          0.4324   -0.3564   -0.9354 H         1 <0>         0.0741
     11 C6          0.8348   -0.5015    1.1553 C.2       1 <0>         0.5076
     12 O3          0.2991   -1.0577    2.0988 O.co2     1 <0>        -0.6861
     13 O4          2.0443   -0.3478    1.1449 O.co2     1 <0>        -0.7066
     14 N2         -1.3697   -0.5131    0.1331 N.3       1 <0>        -0.8217
     15 H2          1.0039    1.9031    0.0027 H         1 <0>         0.0868
     16 H3         -0.5289    1.8773    0.9072 H         1 <0>         0.0813
     17 H4         -1.7907   -0.2000    0.9949 H         1 <0>         0.3380
     18 H5         -1.9316   -0.2469   -0.6615 H         1 <0>         0.3240
@<TRIPOS>BOND
     1    1    9 1
     2    1   15 1
     3    1   16 1
     4    1    2 1
     5    2    3 2
     6    2    6 1
     7    3    4 1
     8    3    8 1
     9    4    5 2
    10    4    7 1
    11    5    6 1
    12    9   10 1
    13    9   11 1
    14    9   14 1
    15   11   12 2
    16   11   13 1
    17   14   17 1
    18   14   18 1
@<TRIPOS>MOLECULE
ZINC26378421
   19    19     0     0     0
SMALL
USER_CHARGES

@<TRIPOS>ATOM
      1 C1         -0.0187    1.5258    0.0104 C.3       1 <0>        -0.0399
      2 C2         -0.7475    2.0250   -1.2105 C.2       1 <0>         0.1795
      3 C3         -2.0514    2.3583   -1.2609 C.2       1 <0>        -0.2832
      4 C4         -2.3511    2.7771   -2.5748 C.2       1 <0>         0.5484
      5 N1         -1.2116    2.6860   -3.2928 N.am      1 <0>        -0.5772
      6 O1         -0.2019    2.2140   -2.4182 O.3       1 <0>        -0.0218
      7 O2         -3.4377    3.1518   -2.9854 O.2       1 <0>        -0.5158
      8 Cl1        -3.1717    2.2846    0.0632 Cl        1 <0>        -0.0043
      9 C5          0.0021   -0.0041    0.0020 C.3       1 <0>         0.0235
     10 H1         -1.0175   -0.3808   -0.0798 H         1 <0>         0.0825
     11 C6          0.6216   -0.5051    1.2812 C.2       1 <0>         0.4700
     12 O3         -0.0804   -0.7232    2.2539 O.co2     1 <0>        -0.6871
     13 O4          1.8247   -0.6923    1.3434 O.co2     1 <0>        -0.6909
     14 N2          0.7922   -0.4768   -1.1426 N.3       1 <0>        -0.8326
     15 H2          1.0039    1.9031    0.0027 H         1 <0>         0.0969
     16 H3         -0.5289    1.8773    0.9072 H         1 <0>         0.1152
     17 H4          1.7421   -0.1406   -1.0899 H         1 <0>         0.3413
     18 H5          0.7679   -1.4834   -1.2077 H         1 <0>         0.3374
     19 H6         -1.1036    2.9056   -4.2314 H         1 <0>         0.4579
@<TRIPOS>BOND
     1    1    9 1
     2    1   15 1
     3    1   16 1
     4    1    2 1
     5    2    3 2
     6    2    6 1
     7    3    4 1
     8    3    8 1
     9    4    5 am
    10    4    7 2
    11    5    6 1
    12    5   19 1
    13    9   10 1
    14    9   11 1
    15    9   14 1
    16   11   12 2
    17   11   13 1
    18   14   17 1
    19   14   18 1
@<TRIPOS>MOLECULE
ZINC26378421
   20    20     0     0     0
SMALL
USER_CHARGES

@<TRIPOS>ATOM
      1 C1         -0.0187    1.5258    0.0104 C.3       1 <0>        -0.0580
      2 C2         -0.7475    2.0250   -1.2105 C.2       1 <0>         0.0579
      3 C3         -2.0675    2.2708   -1.2966 C.2       1 <0>        -0.2011
      4 C4         -2.3446    2.7230   -2.6060 C.2       1 <0>         0.3155
      5 N1         -1.2194    2.7426   -3.2713 N.2       1 <0>        -0.2977
      6 O1         -0.1915    2.3073   -2.3998 O.3       1 <0>        -0.0559
      7 O2         -3.5636    3.0742   -3.0882 O.3       1 <0>        -0.4406
      8 Cl1        -3.2277    2.0677   -0.0212 Cl        1 <0>         0.0124
      9 C5          0.0021   -0.0041    0.0020 C.3       1 <0>        -0.0468
     10 H1         -1.0175   -0.3808   -0.0798 H         1 <0>         0.1408
     11 C6          0.6216   -0.5051    1.2812 C.2       1 <0>         0.4950
     12 O3          0.0243   -0.3817    2.3369 O.co2     1 <0>        -0.6241
     13 O4          1.7200   -1.0338    1.2603 O.co2     1 <0>        -0.6621
     14 N2          0.7922   -0.4768   -1.1426 N.4       1 <0>        -0.6144
     15 H2          1.0039    1.9031    0.0027 H         1 <0>         0.1205
     16 H3         -0.5289    1.8773    0.9072 H         1 <0>         0.1505
     17 H4          0.3774   -0.1413   -1.9991 H         1 <0>         0.4128
     18 H5          1.7359   -0.1280   -1.0669 H         1 <0>         0.4355
     19 H6         -3.7791    4.0093   -2.9693 H         1 <0>         0.4220
     20 H7          0.8059   -1.4857   -1.1482 H         1 <0>         0.4378
@<TRIPOS>BOND
     1    1    9 1
     2    1   15 1
     3    1   16 1
     4    1    2 1
     5    2    3 2
     6    2    6 1
     7    3    4 1
     8    3    8 1
     9    4    5 2
    10    4    7 1
    11    5    6 1
    12    7   19 1
    13    9   10 1
    14    9   11 1
    15    9   14 1
    16   11   12 2
    17   11   13 1
    18   14   17 1
    19   14   18 1
    20   14   20 1
@<TRIPOS>MOLECULE
ZINC19943127
   19    19     0     0     0
SMALL
USER_CHARGES

@<TRIPOS>ATOM
      1 C1         -0.0187    1.5258    0.0104 C.3       1 <0>        -0.0910
      2 C2         -0.7475    2.0250   -1.2105 C.2       1 <0>         0.1840
      3 C3         -2.0514    2.3583   -1.2608 C.2       1 <0>        -0.3358
      4 C4         -2.3510    2.7774   -2.5745 C.2       1 <0>         0.5543
      5 N1         -1.2115    2.6865   -3.2925 N.am      1 <0>        -0.5749
      6 O1         -0.2020    2.2140   -2.4180 O.3       1 <0>        -0.0328
      7 O2         -3.4377    3.1516   -2.9851 O.2       1 <0>        -0.5073
      8 Br1        -3.2717    2.2776    0.1814 Br        1 <0>         0.0223
      9 C5          0.0021   -0.0041    0.0020 C.3       1 <0>         0.0322
     10 H1          0.4324   -0.3564   -0.9354 H         1 <0>         0.0809
     11 C6          0.8348   -0.5015    1.1553 C.2       1 <0>         0.5057
     12 O3          0.2991   -1.0577    2.0988 O.co2     1 <0>        -0.6704
     13 O4          2.0443   -0.3478    1.1449 O.co2     1 <0>        -0.6954
     14 N2         -1.3697   -0.5131    0.1331 N.3       1 <0>        -0.8184
     15 H2          1.0039    1.9031    0.0027 H         1 <0>         0.1118
     16 H3         -0.5289    1.8773    0.9072 H         1 <0>         0.1111
     17 H4         -1.7907   -0.2000    0.9949 H         1 <0>         0.3475
     18 H5         -1.9316   -0.2469   -0.6615 H         1 <0>         0.3169
     19 H6         -1.1035    2.9063   -4.2311 H         1 <0>         0.4590
@<TRIPOS>BOND
     1    1    9 1
     2    1   15 1
     3    1   16 1
     4    1    2 1
     5    2    3 2
     6    2    6 1
     7    3    4 1
     8    3    8 1
     9    4    5 am
    10    4    7 2
    11    5    6 1
    12    5   19 1
    13    9   10 1
    14    9   11 1
    15    9   14 1
    16   11   12 2
    17   11   13 1
    18   14   17 1
    19   14   18 1
@<TRIPOS>MOLECULE
ZINC19943127
   18    18     0     0     0
SMALL
USER_CHARGES

@<TRIPOS>ATOM
      1 C1         -0.0187    1.5258    0.0104 C.3       1 <0>        -0.0273
      2 C2         -0.7475    2.0250   -1.2105 C.2       1 <0>         0.1070
      3 C3         -2.0675    2.2708   -1.2965 C.2       1 <0>        -0.2743
      4 C4         -2.3447    2.7224   -2.6059 C.2       1 <0>         0.3827
      5 N1         -1.2195    2.7417   -3.2713 N.2       1 <0>        -0.4622
      6 O1         -0.1915    2.3073   -2.3996 O.3       1 <0>        -0.1279
      7 O2         -3.5637    3.0737   -3.0880 O.3       1 <0>        -0.7181
      8 Br1        -3.3312    2.0492    0.0926 Br        1 <0>        -0.0608
      9 C5          0.0021   -0.0041    0.0020 C.3       1 <0>         0.0307
     10 H1          0.4324   -0.3564   -0.9354 H         1 <0>         0.0736
     11 C6          0.8348   -0.5015    1.1553 C.2       1 <0>         0.4708
     12 O3          0.2991   -1.0577    2.0988 O.co2     1 <0>        -0.7017
     13 O4          2.0443   -0.3478    1.1449 O.co2     1 <0>        -0.7026
     14 N2         -1.3697   -0.5131    0.1331 N.3       1 <0>        -0.8168
     15 H2          1.0039    1.9031    0.0027 H         1 <0>         0.0832
     16 H3         -0.5289    1.8773    0.9072 H         1 <0>         0.0818
     17 H4         -1.3898   -1.5196    0.0656 H         1 <0>         0.3248
     18 H5         -1.7907   -0.2000    0.9949 H         1 <0>         0.3370
@<TRIPOS>BOND
     1    1    9 1
     2    1   15 1
     3    1   16 1
     4    1    2 1
     5    2    3 2
     6    2    6 1
     7    3    4 1
     8    3    8 1
     9    4    5 2
    10    4    7 1
    11    5    6 1
    12    9   10 1
    13    9   11 1
    14    9   14 1
    15   11   12 2
    16   11   13 1
    17   14   17 1
    18   14   18 1
@<TRIPOS>MOLECULE
ZINC00895124
   18    17     0     0     0
SMALL
USER_CHARGES

@<TRIPOS>ATOM
      1 C1         -0.0187    1.5258    0.0104 C.3       1 <0>        -0.1010
      2 C2          0.0021   -0.0041    0.0020 C.3       1 <0>        -0.1959
      3 C3         -1.4117   -0.5257    0.0127 C.2       1 <0>         0.4893
      4 O1         -2.3491    0.2539    0.0259 O.co2     1 <0>        -0.6871
      5 O2         -1.6182   -1.7273    0.0082 O.co2     1 <0>        -0.7016
      6 C4          1.4167    2.0553   -0.0004 C.3       1 <0>        -0.0510
      7 H1          1.9696    1.6236    0.8338 H         1 <0>         0.1263
      8 C5          1.3993    3.5565    0.1316 C.2       1 <0>         0.4931
      9 O3          1.4342    4.0717    1.2361 O.co2     1 <0>        -0.6465
     10 O4          1.3504    4.2557   -0.8660 O.co2     1 <0>        -0.6784
     11 N1          2.0667    1.6824   -1.2639 N.4       1 <0>        -0.6121
     12 H2         -0.5459    1.8868   -0.8726 H         1 <0>         0.0805
     13 H3         -0.5289    1.8773    0.9072 H         1 <0>         0.1026
     14 H4          0.5123   -0.3556   -0.8948 H         1 <0>         0.0475
     15 H5          0.5293   -0.3651    0.8851 H         1 <0>         0.0673
     16 H6          3.0133    2.0317   -1.2711 H         1 <0>         0.4211
     17 H7          2.0783    0.6774   -1.3524 H         1 <0>         0.4148
     18 H8          1.5549    2.0821   -2.0362 H         1 <0>         0.4310
@<TRIPOS>BOND
     1    1    2 1
     2    1    6 1
     3    1   12 1
     4    1   13 1
     5    2    3 1
     6    2   14 1
     7    2   15 1
     8    3    4 2
     9    3    5 1
    10    6    7 1
    11    6    8 1
    12    6   11 1
    13    8    9 2
    14    8   10 1
    15   11   16 1
    16   11   17 1
    17   11   18 1
@<TRIPOS>MOLECULE
ZINC16346984
   30    32     0     0     0
SMALL
USER_CHARGES

@<TRIPOS>ATOM
      1 C1         -0.0001    1.3481    0.2658 C.ar      1 <0>         0.0276
      2 C2          1.1998    2.0490    0.2574 C.ar      1 <0>        -0.1109
      3 C3          2.3988    1.3864   -0.0201 C.ar      1 <0>         0.2238
      4 C4          2.3832    0.0151   -0.2866 C.ar      1 <0>        -0.0944
      5 C5          1.1919   -0.6728   -0.2709 C.ar      1 <0>         0.0413
      6 C6          0.0021   -0.0041    0.0020 C.ar      1 <0>        -0.0750
      7 N1         -1.2742   -0.7538    0.0102 N.pl3     1 <0>         0.0342
      8 O1         -2.2802   -0.2395   -0.4199 O.2       1 <0>        -0.1503
      9 O2         -1.3105   -1.8806    0.4470 O.3       1 <0>        -0.1431
     10 C7          1.1103   -2.1546   -0.5351 C.3       1 <0>        -0.0963
     11 C8          2.3772   -2.6471   -1.2311 C.3       1 <0>        -0.1224
     12 C9          3.5895   -2.1638   -0.4263 C.3       1 <0>        -0.1219
     13 C10         3.7013   -0.6492   -0.5876 C.3       1 <0>        -0.0815
     14 N2          3.4531    2.2940    0.0280 N.am      1 <0>        -0.6470
     15 C11         3.0231    3.5326    0.3245 C.2       1 <0>         0.5449
     16 O3          3.7161    4.5251    0.4339 O.2       1 <0>        -0.4476
     17 C12         1.5483    3.4704    0.4941 C.2       1 <0>         0.1152
     18 N3          0.7400    4.4489    0.7859 N.2       1 <0>        -0.2227
     19 O4          1.2507    5.7552    0.9800 O.3       1 <0>        -0.3566
     20 H1         -0.9269    1.8588    0.4820 H         1 <0>         0.1624
     21 H2          0.9919   -2.6824    0.4113 H         1 <0>         0.1106
     22 H3          0.2485   -2.3595   -1.1703 H         1 <0>         0.0876
     23 H4          2.3740   -3.7363   -1.2718 H         1 <0>         0.0825
     24 H5          2.4221   -2.2415   -2.2418 H         1 <0>         0.0703
     25 H6          3.4541   -2.4120    0.6264 H         1 <0>         0.0736
     26 H7          4.4942   -2.6409   -0.8031 H         1 <0>         0.0796
     27 H8          3.9949   -0.4176   -1.6114 H         1 <0>         0.0882
     28 H9          4.4595   -0.2699    0.0975 H         1 <0>         0.0816
     29 H10         4.3813    2.0619   -0.1318 H         1 <0>         0.4292
     30 H11         0.5754    6.4140    1.1925 H         1 <0>         0.4173
@<TRIPOS>BOND
     1    1    6 ar
     2    1    2 ar
     3    1   20 1
     4    2   17 1
     5    2    3 ar
     6    3    4 ar
     7    3   14 1
     8    4   13 1
     9    4    5 ar
    10    5    6 ar
    11    5   10 1
    12    6    7 1
    13    7    8 2
    14    7    9 1
    15   10   11 1
    16   10   21 1
    17   10   22 1
    18   11   12 1
    19   11   23 1
    20   11   24 1
    21   12   13 1
    22   12   25 1
    23   12   26 1
    24   13   27 1
    25   13   28 1
    26   14   15 am
    27   14   29 1
    28   15   16 2
    29   15   17 1
    30   17   18 2
    31   18   19 1
    32   19   30 1
@<TRIPOS>MOLECULE
ZINC16346984
   29    31     0     0     0
SMALL
USER_CHARGES

@<TRIPOS>ATOM
      1 C1         -0.0002    1.3476    0.2660 C.ar      1 <0>        -0.0340
      2 C2          1.1999    2.0474    0.2576 C.ar      1 <0>        -0.0177
      3 C3          2.3976    1.3808   -0.0206 C.ar      1 <0>         0.1478
      4 C4          2.3831    0.0105   -0.2879 C.ar      1 <0>        -0.0852
      5 C5          1.1911   -0.6751   -0.2726 C.ar      1 <0>        -0.0290
      6 C6          0.0021   -0.0041    0.0020 C.ar      1 <0>        -0.0659
      7 N1         -1.2749   -0.7526    0.0097 N.pl3     1 <0>         0.0436
      8 O1         -2.2803   -0.2373   -0.4208 O.2       1 <0>        -0.1716
      9 O2         -1.3125   -1.8793    0.4465 O.3       1 <0>        -0.1668
     10 C7          1.1069   -2.1566   -0.5371 C.3       1 <0>        -0.0790
     11 C8          2.3728   -2.6516   -1.2330 C.3       1 <0>        -0.1187
     12 C9          3.5859   -2.1705   -0.4282 C.3       1 <0>        -0.1174
     13 C10         3.6999   -0.6561   -0.5893 C.3       1 <0>        -0.0747
     14 N2          3.4331    2.3041    0.0334 N.pl3     1 <0>        -0.6187
     15 C11         2.9701    3.5291    0.3317 C.2       1 <0>         0.4917
     16 C12         1.5630    3.4636    0.4921 C.2       1 <0>        -0.2722
     17 N3          0.7486    4.4556    0.7873 N.2       1 <0>        -0.2620
     18 O3          1.1913    5.5780    0.9541 O.2       1 <0>        -0.1120
     19 O4          3.7202    4.6386    0.4579 O.3       1 <0>        -0.6016
     20 H1         -0.9268    1.8586    0.4822 H         1 <0>         0.1432
     21 H2          0.9873   -2.6843    0.4091 H         1 <0>         0.0938
     22 H3          0.2448   -2.3597   -1.1724 H         1 <0>         0.0730
     23 H4          2.3675   -3.7408   -1.2735 H         1 <0>         0.0720
     24 H5          2.4185   -2.2463   -2.2438 H         1 <0>         0.0653
     25 H6          3.4501   -2.4186    0.6245 H         1 <0>         0.0691
     26 H7          4.4899   -2.6489   -0.8051 H         1 <0>         0.0700
     27 H8          3.9936   -0.4248   -1.6132 H         1 <0>         0.0773
     28 H9          4.4589   -0.2781    0.0956 H         1 <0>         0.0732
     29 H10         4.3667    2.0926   -0.1232 H         1 <0>         0.4063
@<TRIPOS>BOND
     1    1    6 ar
     2    1    2 ar
     3    1   20 1
     4    2   16 1
     5    2    3 ar
     6    3    4 ar
     7    3   14 1
     8    4   13 1
     9    4    5 ar
    10    5    6 ar
    11    5   10 1
    12    6    7 1
    13    7    8 2
    14    7    9 1
    15   10   11 1
    16   10   21 1
    17   10   22 1
    18   11   12 1
    19   11   23 1
    20   11   24 1
    21   12   13 1
    22   12   25 1
    23   12   26 1
    24   13   27 1
    25   13   28 1
    26   14   15 1
    27   14   29 1
    28   15   16 2
    29   15   19 1
    30   16   17 1
    31   17   18 2
@<TRIPOS>MOLECULE
ZINC08662575
   20    21     0     0     0
SMALL
USER_CHARGES

@<TRIPOS>ATOM
      1 C1         -0.0167    1.3839    0.0097 C.ar      1 <0>        -0.0629
      2 C2          1.1833    2.0914    0.0020 C.ar      1 <0>        -0.0261
      3 C3          2.4047    1.4046   -0.0133 C.ar      1 <0>         0.0013
      4 C4          2.4314    0.0433   -0.0214 C.ar      1 <0>        -0.0577
      5 C5          1.2325   -0.6870   -0.0143 C.ar      1 <0>         0.2039
      6 C6          0.0021   -0.0041    0.0020 C.ar      1 <0>         0.0788
      7 N1         -1.1855   -0.7142    0.0091 N.am      1 <0>        -0.6292
      8 C7         -1.1422   -2.0644    0.0010 C.2       1 <0>         0.4776
      9 C8          0.1685   -2.7399   -0.0151 C.2       1 <0>         0.4271
     10 N2          1.2689   -2.0352   -0.0232 N.2       1 <0>        -0.5994
     11 O1          0.2319   -4.0926   -0.0230 O.3       1 <0>        -0.5986
     12 O2         -2.1711   -2.7145    0.0073 O.2       1 <0>        -0.5067
     13 N3          3.6750    2.1645   -0.0214 N.pl3     1 <0>         0.0371
     14 O3          4.7312    1.5764   -0.0346 O.2       1 <0>        -0.1516
     15 O4          3.6563    3.3733   -0.0147 O.3       1 <0>        -0.1710
     16 C9          1.1687    3.5233    0.0093 C.1       1 <0>         0.2573
     17 N4          1.1571    4.6592    0.0152 N.1       1 <0>        -0.4011
     18 H1         -0.9580    1.9132    0.0260 H         1 <0>         0.1477
     19 H2          3.3781   -0.4763   -0.0335 H         1 <0>         0.1666
     20 H3         -2.0367   -0.2493    0.0200 H         1 <0>         0.4071
@<TRIPOS>BOND
     1    1    6 ar
     2    1    2 ar
     3    1   18 1
     4    2    3 ar
     5    2   16 1
     6    3    4 ar
     7    3   13 1
     8    4    5 ar
     9    4   19 1
    10    5   10 1
    11    5    6 ar
    12    6    7 1
    13    7    8 am
    14    7   20 1
    15    8    9 1
    16    8   12 2
    17    9   10 2
    18    9   11 1
    19   13   14 2
    20   13   15 1
    21   16   17 3
