@<TRIPOS>MOLECULE
ZINC19850499
   22    22     0     0     0
SMALL
USER_CHARGES

@<TRIPOS>ATOM
      1 C1         -0.0127    1.0858    0.0080 C.3       1 <0>        -0.0876
      2 C2         -0.7416    1.5850   -1.2129 C.2       1 <0>         0.0641
      3 C3         -2.0612    1.8307   -1.2988 C.2       1 <0>        -0.3438
      4 C4         -2.3386    2.2827   -2.6074 C.2       1 <0>         0.3550
      5 N1         -1.2135    2.3025   -3.2730 N.2       1 <0>        -0.4446
      6 O1         -0.1856    1.8672   -2.4015 O.3       1 <0>        -0.1265
      7 O2         -3.5577    2.6341   -3.0892 O.3       1 <0>        -0.7249
      8 C5         -3.0681    1.6536   -0.1917 C.3       1 <0>        -0.0323
      9 C6         -3.1832    2.9541    0.6060 C.3       1 <0>        -0.0363
     10 H1         -2.1961    3.2519    0.9598 H         1 <0>         0.1199
     11 C7         -4.0964    2.7408    1.7856 C.2       1 <0>         0.4926
     12 O3         -3.6379    2.3667    2.8516 O.co2     1 <0>        -0.6522
     13 O4         -5.2936    2.9424    1.6740 O.co2     1 <0>        -0.6738
     14 N2         -3.7337    4.0095   -0.2549 N.4       1 <0>        -0.6054
     15 H2          0.0021   -0.0041    0.0020 H         1 <0>         0.0828
     16 H3          1.0099    1.4631    0.0003 H         1 <0>         0.0752
     17 H4         -0.5229    1.4373    0.9048 H         1 <0>         0.0860
     18 H5         -4.0386    1.4030   -0.6199 H         1 <0>         0.0863
     19 H6         -2.7440    0.8496    0.4691 H         1 <0>         0.0924
     20 H7         -3.8095    4.8672    0.2711 H         1 <0>         0.4148
     21 H8         -3.1222    4.1523   -1.0447 H         1 <0>         0.4233
     22 H9         -4.6474    3.7339   -0.5824 H         1 <0>         0.4348
@<TRIPOS>BOND
     1    1   15 1
     2    1   16 1
     3    1   17 1
     4    1    2 1
     5    2    3 2
     6    2    6 1
     7    3    4 1
     8    3    8 1
     9    4    5 2
    10    4    7 1
    11    5    6 1
    12    8    9 1
    13    8   18 1
    14    8   19 1
    15    9   10 1
    16    9   11 1
    17    9   14 1
    18   11   12 2
    19   11   13 1
    20   14   20 1
    21   14   21 1
    22   14   22 1
@<TRIPOS>MOLECULE
ZINC19850502
   22    22     0     0     0
SMALL
USER_CHARGES

@<TRIPOS>ATOM
      1 C1         -0.0127    1.0858    0.0080 C.3       1 <0>        -0.0839
      2 C2         -0.7416    1.5850   -1.2129 C.2       1 <0>         0.0174
      3 C3         -2.0612    1.8307   -1.2988 C.2       1 <0>        -0.3158
      4 C4         -2.3386    2.2827   -2.6074 C.2       1 <0>         0.3643
      5 N1         -1.2135    2.3025   -3.2730 N.2       1 <0>        -0.4463
      6 O1         -0.1856    1.8672   -2.4015 O.3       1 <0>        -0.1249
      7 O2         -3.5577    2.6341   -3.0892 O.3       1 <0>        -0.7045
      8 C5         -3.0681    1.6536   -0.1917 C.3       1 <0>        -0.0320
      9 C6         -3.1832    2.9541    0.6060 C.3       1 <0>        -0.0405
     10 H1         -3.4207    3.7753   -0.0703 H         1 <0>         0.1345
     11 C7         -4.2765    2.8178    1.6341 C.2       1 <0>         0.4959
     12 O3         -3.9950    2.7558    2.8188 O.co2     1 <0>        -0.6885
     13 O4         -5.4426    2.7696    1.2813 O.co2     1 <0>        -0.6350
     14 N2         -1.9077    3.2290    1.2810 N.4       1 <0>        -0.6115
     15 H2          0.0021   -0.0041    0.0020 H         1 <0>         0.0906
     16 H3          1.0099    1.4631    0.0003 H         1 <0>         0.0828
     17 H4         -0.5229    1.4373    0.9048 H         1 <0>         0.0560
     18 H5         -4.0386    1.4030   -0.6199 H         1 <0>         0.1129
     19 H6         -2.7440    0.8496    0.4691 H         1 <0>         0.0690
     20 H7         -1.1757    3.3203    0.5926 H         1 <0>         0.4130
     21 H8         -1.9836    4.0867    1.8070 H         1 <0>         0.4241
     22 H9         -1.6879    2.4688    1.9070 H         1 <0>         0.4225
@<TRIPOS>BOND
     1    1   15 1
     2    1   16 1
     3    1   17 1
     4    1    2 1
     5    2    3 2
     6    2    6 1
     7    3    4 1
     8    3    8 1
     9    4    5 2
    10    4    7 1
    11    5    6 1
    12    8    9 1
    13    8   18 1
    14    8   19 1
    15    9   10 1
    16    9   11 1
    17    9   14 1
    18   11   12 2
    19   11   13 1
    20   14   20 1
    21   14   21 1
    22   14   22 1
@<TRIPOS>MOLECULE
ZINC08585017
   31    33     0     0     0
SMALL
USER_CHARGES

@<TRIPOS>ATOM
      1 C1          0.2332    1.3841    0.6570 C.ar      1 <0>        -0.1163
      2 C2          1.3450    2.1030    0.3352 C.ar      1 <0>        -0.0461
      3 C3          2.5286    1.4337   -0.0104 C.ar      1 <0>        -0.0508
      4 C4          2.5507    0.0178   -0.0197 C.ar      1 <0>         0.0703
      5 C5          1.3858   -0.6903    0.3181 C.ar      1 <0>        -0.6623
      6 C6          0.2539   -0.0082    0.6481 C.ar      1 <0>         0.0100
      7 S1          1.3881   -2.4523    0.3133 S.o2      1 <0>         2.6604
      8 O1          1.2671   -2.8548   -1.0441 O.2       1 <0>        -0.9037
      9 O2          2.4738   -2.8593    1.1348 O.2       1 <0>        -0.9426
     10 N1          0.0047   -2.9457    1.0783 N.pl3     1 <0>        -1.2465
     11 C7          3.7370   -0.6553   -0.3670 C.ar      1 <0>        -0.0313
     12 C8          4.8514    0.0498   -0.6900 C.ar      1 <0>        -0.0208
     13 C9          4.8498    1.4521   -0.6862 C.ar      1 <0>         0.1138
     14 C10         3.6989    2.1491   -0.3497 C.ar      1 <0>         0.1787
     15 N2          3.6832    3.5358   -0.3424 N.am      1 <0>        -0.6274
     16 H1          2.8706    4.0090   -0.1045 H         1 <0>         0.4261
     17 C11         4.7946    4.2283   -0.6646 C.2       1 <0>         0.5118
     18 O3          4.7862    5.4433   -0.6593 O.2       1 <0>        -0.4441
     19 C12         6.0334    3.4831   -1.0268 C.2       1 <0>         0.5112
     20 O4          7.0481    4.0831   -1.3210 O.2       1 <0>        -0.4495
     21 N3          6.0144    2.1351   -1.0235 N.am      1 <0>        -0.6258
     22 H2          6.8149    1.6397   -1.2576 H         1 <0>         0.4304
     23 N4          3.7698   -2.1354   -0.3796 N.pl3     1 <0>        -0.0336
     24 O5          4.3500   -2.7346    0.4957 O.2       1 <0>        -0.0101
     25 O6          3.2166   -2.7448   -1.2651 O.3       1 <0>        -0.1547
     26 H3         -0.6756    1.9014    0.9270 H         1 <0>         0.1537
     27 H4          1.3152    3.1825    0.3457 H         1 <0>         0.1466
     28 H5         -0.6405   -0.5552    0.9075 H         1 <0>         0.1465
     29 H6         -0.6187   -2.2884    1.4249 H         1 <0>         0.4109
     30 H7         -0.1821   -3.8921    1.1798 H         1 <0>         0.4276
     31 H8          5.7553   -0.4788   -0.9543 H         1 <0>         0.1677
@<TRIPOS>BOND
     1    1    6 ar
     2    1    2 ar
     3    1   26 1
     4    2    3 ar
     5    2   27 1
     6    3   14 ar
     7    3    4 ar
     8    4    5 ar
     9    4   11 ar
    10    5    6 ar
    11    5    7 1
    12    6   28 1
    13    7    8 2
    14    7    9 2
    15    7   10 1
    16   10   29 1
    17   10   30 1
    18   11   12 ar
    19   11   23 1
    20   12   13 ar
    21   12   31 1
    22   13   21 1
    23   13   14 ar
    24   14   15 1
    25   15   16 1
    26   15   17 am
    27   17   18 2
    28   17   19 1
    29   19   20 2
    30   19   21 am
    31   21   22 1
    32   23   24 2
    33   23   25 1
@<TRIPOS>MOLECULE
ZINC08585017
   30    32     0     0     0
SMALL
USER_CHARGES

@<TRIPOS>ATOM
      1 C1         -0.6276    0.4370   -1.7736 C.ar      1 <0>        -0.1731
      2 C2          0.3567    1.2003   -2.3318 C.ar      1 <0>         0.0069
      3 C3          1.6968    0.8795   -2.0978 C.ar      1 <0>        -0.0630
      4 C4          2.0190   -0.2327   -1.2850 C.ar      1 <0>         0.0918
      5 C5          0.9824   -0.9962   -0.7260 C.ar      1 <0>        -0.6997
      6 C6         -0.3146   -0.6572   -0.9739 C.ar      1 <0>         0.0068
      7 S1          1.3554   -2.3868    0.2896 S.o2      1 <0>         2.6622
      8 O1          1.7041   -3.4487   -0.5879 O.2       1 <0>        -0.9158
      9 O2          2.2299   -1.9224    1.3088 O.2       1 <0>        -0.9452
     10 N1         -0.0506   -2.8358    1.0407 N.pl3     1 <0>        -1.2459
     11 C7          3.3708   -0.5559   -1.0503 C.ar      1 <0>        -0.1204
     12 C8          4.3691    0.1831   -1.5919 C.ar      1 <0>         0.0054
     13 C9          4.1065    1.2943   -2.4040 C.ar      1 <0>        -0.0110
     14 C10         2.7853    1.6709   -2.6771 C.ar      1 <0>         0.2503
     15 N2          2.5158    2.7321   -3.4521 N.2       1 <0>        -0.5968
     16 C11         3.4796    3.4477   -3.9760 C.2       1 <0>         0.4326
     17 O3          3.1851    4.5165   -4.7560 O.3       1 <0>        -0.5869
     18 C12         4.8815    3.0897   -3.7160 C.2       1 <0>         0.4736
     19 O4          5.7864    3.7475   -4.1978 O.2       1 <0>        -0.5174
     20 N3          5.1522    2.0207   -2.9364 N.am      1 <0>        -0.6182
     21 H1          6.0702    1.7673   -2.7519 H         1 <0>         0.4056
     22 N4          3.7049   -1.7200   -0.1990 N.pl3     1 <0>        -0.0190
     23 O5          4.1212   -1.5487    0.9230 O.2       1 <0>        -0.0412
     24 O6          3.5614   -2.8420   -0.6258 O.3       1 <0>        -0.1772
     25 H2         -1.6628    0.6885   -1.9514 H         1 <0>         0.1355
     26 H3          0.1015    2.0474   -2.9513 H         1 <0>         0.1531
     27 H4         -1.1104   -1.2463   -0.5426 H         1 <0>         0.1338
     28 H5         -0.4520   -3.6967    0.8440 H         1 <0>         0.4197
     29 H6         -0.4727   -2.2379    1.6772 H         1 <0>         0.4165
     30 H7          5.3943   -0.0914   -1.3921 H         1 <0>         0.1369
@<TRIPOS>BOND
     1    1    6 ar
     2    1    2 ar
     3    1   25 1
     4    2    3 ar
     5    2   26 1
     6    3   14 ar
     7    3    4 ar
     8    4    5 ar
     9    4   11 ar
    10    5    6 ar
    11    5    7 1
    12    6   27 1
    13    7    8 2
    14    7    9 2
    15    7   10 1
    16   10   28 1
    17   10   29 1
    18   11   12 ar
    19   11   22 1
    20   12   13 ar
    21   12   30 1
    22   13   20 1
    23   13   14 ar
    24   14   15 1
    25   15   16 2
    26   16   17 1
    27   16   18 1
    28   18   19 2
    29   18   20 am
    30   20   21 1
    31   22   23 2
    32   22   24 1
@<TRIPOS>MOLECULE
ZINC08585017
   30    32     0     0     0
SMALL
USER_CHARGES

@<TRIPOS>ATOM
      1 C1          0.2456    1.3834    0.6714 C.ar      1 <0>        -0.1313
      2 C2          1.3577    2.1012    0.3447 C.ar      1 <0>        -0.0563
      3 C3          2.5384    1.4313   -0.0062 C.ar      1 <0>        -0.0329
      4 C4          2.5597    0.0160   -0.0166 C.ar      1 <0>         0.0376
      5 C5          1.3970   -0.6903    0.3261 C.ar      1 <0>        -0.6495
      6 C6          0.2655   -0.0079    0.6614 C.ar      1 <0>        -0.0272
      7 S1          1.3984   -2.4523    0.3206 S.o2      1 <0>         2.6599
      8 O1          1.2733   -2.8543   -1.0366 O.2       1 <0>        -0.9123
      9 O2          2.4863   -2.8602    1.1387 O.2       1 <0>        -0.9464
     10 N1          0.0171   -2.9454    1.0895 N.pl3     1 <0>        -1.2511
     11 C7          3.7448   -0.6631   -0.3704 C.ar      1 <0>        -0.0537
     12 C8          4.8595    0.0289   -0.6994 C.ar      1 <0>         0.0031
     13 C9          4.8669    1.4424   -0.6970 C.ar      1 <0>         0.1698
     14 C10         3.7083    2.1457   -0.3510 C.ar      1 <0>         0.0654
     15 N2          3.7054    3.5214   -0.3466 N.am      1 <0>        -0.6172
     16 H1          2.9024    4.0100   -0.1071 H         1 <0>         0.4012
     17 C11         4.8349    4.1831   -0.6796 C.2       1 <0>         0.4746
     18 O3          4.8602    5.4008   -0.6836 O.2       1 <0>        -0.5142
     19 C12         6.0339    3.4096   -1.0369 C.2       1 <0>         0.4197
     20 O4          7.1791    4.0511   -1.3748 O.3       1 <0>        -0.6118
     21 N3          5.9939    2.1025   -1.0293 N.2       1 <0>        -0.5931
     22 N4          3.7686   -2.1433   -0.3812 N.pl3     1 <0>        -0.0254
     23 O5          4.3466   -2.7449    0.4938 O.2       1 <0>        -0.0281
     24 O6          3.2101   -2.7504   -1.2650 O.3       1 <0>        -0.1734
     25 H2         -0.6615    1.9014    0.9458 H         1 <0>         0.1381
     26 H3          1.3293    3.1807    0.3559 H         1 <0>         0.1345
     27 H4         -0.6278   -0.5549    0.9243 H         1 <0>         0.1324
     28 H5         -0.6050   -2.2879    1.4382 H         1 <0>         0.4093
     29 H6         -0.1699   -3.8918    1.1912 H         1 <0>         0.4219
     30 H7          5.7581   -0.5068   -0.9677 H         1 <0>         0.1561
@<TRIPOS>BOND
     1    1    6 ar
     2    1    2 ar
     3    1   25 1
     4    2    3 ar
     5    2   26 1
     6    3   14 ar
     7    3    4 ar
     8    4    5 ar
     9    4   11 ar
    10    5    6 ar
    11    5    7 1
    12    6   27 1
    13    7    8 2
    14    7    9 2
    15    7   10 1
    16   10   28 1
    17   10   29 1
    18   11   12 ar
    19   11   22 1
    20   12   13 ar
    21   12   30 1
    22   13   21 1
    23   13   14 ar
    24   14   15 1
    25   15   16 1
    26   15   17 am
    27   17   18 2
    28   17   19 1
    29   19   20 1
    30   19   21 2
    31   22   23 2
    32   22   24 1
@<TRIPOS>MOLECULE
ZINC13779018
   19    19     0     0     0
SMALL
USER_CHARGES

@<TRIPOS>ATOM
      1 C1         -0.0187    1.5258    0.0104 C.3       1 <0>         0.1559
      2 C2          0.0021   -0.0041    0.0020 C.3       1 <0>        -0.0639
      3 H1          0.4501   -0.3665    0.9272 H         1 <0>         0.1320
      4 C3         -1.4075   -0.5249   -0.1112 C.2       1 <0>         0.4991
      5 O1         -1.7761   -1.0680   -1.1386 O.co2     1 <0>        -0.6678
      6 O2         -2.1794   -0.4033    0.8248 O.co2     1 <0>        -0.6405
      7 N1          0.7922   -0.4768   -1.1426 N.4       1 <0>        -0.6027
      8 N2          1.3557    2.0329    0.0000 N.pl3     1 <0>        -0.5059
      9 C4          2.1974    2.0610   -1.0502 C.2       1 <0>         0.5942
     10 O3          1.9169    1.6204   -2.2941 O.3       1 <0>        -0.6607
     11 N3          3.3403    2.5907   -0.6628 N.2       1 <0>        -0.6559
     12 C5          3.2823    2.9189    0.6279 C.2       1 <0>         0.5845
     13 O4          4.1815    3.4284    1.2748 O.2       1 <0>        -0.5268
     14 O5          2.0627    2.5981    1.0944 O.3       1 <0>        -0.1559
     15 H2         -0.5459    1.8868   -0.8726 H         1 <0>         0.1126
     16 H3         -0.5289    1.8773    0.9072 H         1 <0>         0.1283
     17 H4          0.3774   -0.1413   -1.9991 H         1 <0>         0.4369
     18 H5          1.7359   -0.1280   -1.0669 H         1 <0>         0.4173
     19 H6          0.8059   -1.4857   -1.1482 H         1 <0>         0.4191
@<TRIPOS>BOND
     1    1    2 1
     2    1    8 1
     3    1   15 1
     4    1   16 1
     5    2    3 1
     6    2    4 1
     7    2    7 1
     8    4    5 2
     9    4    6 1
    10    7   17 1
    11    7   18 1
    12    7   19 1
    13    8   14 1
    14    8    9 1
    15    9   10 1
    16    9   11 2
    17   11   12 1
    18   12   13 2
    19   12   14 1
@<TRIPOS>MOLECULE
ZINC13779018
   20    20     0     0     0
SMALL
USER_CHARGES

@<TRIPOS>ATOM
      1 C1         -0.0187    1.5258    0.0104 C.3       1 <0>         0.1622
      2 C2          0.0021   -0.0041    0.0020 C.3       1 <0>         0.0738
      3 H1          0.4501   -0.3665    0.9272 H         1 <0>         0.1320
      4 C3         -1.4075   -0.5249   -0.1112 C.2       1 <0>         0.4457
      5 O1         -1.8299   -0.8975   -1.1801 O.2       1 <0>        -0.5041
      6 O2         -2.1938   -0.5750    0.9756 O.3       1 <0>        -0.5011
      7 N1          0.7922   -0.4768   -1.1426 N.3       1 <0>        -0.8119
      8 N2          1.3557    2.0329    0.0000 N.pl3     1 <0>        -0.4321
      9 C4          2.1974    2.0610   -1.0502 C.2       1 <0>         0.6249
     10 N3          3.3406    2.5899   -0.6626 N.2       1 <0>        -0.6311
     11 C5          3.2828    2.9177    0.6282 C.2       1 <0>         0.5998
     12 O3          4.1822    3.4265    1.2753 O.2       1 <0>        -0.4634
     13 O4          2.0627    2.5981    1.0944 O.3       1 <0>        -0.1103
     14 O5          1.9169    1.6204   -2.2941 O.3       1 <0>        -0.4110
     15 H2         -0.5459    1.8868   -0.8726 H         1 <0>         0.1177
     16 H3         -0.5289    1.8773    0.9072 H         1 <0>         0.1297
     17 H4         -3.0795   -0.9232    0.8045 H         1 <0>         0.4131
     18 H5          0.8750   -1.4823   -1.1342 H         1 <0>         0.3592
     19 H6          0.3968   -0.1538   -2.0130 H         1 <0>         0.3617
     20 H7          2.6463    1.7214   -2.9209 H         1 <0>         0.4452
@<TRIPOS>BOND
     1    1    2 1
     2    1    8 1
     3    1   15 1
     4    1   16 1
     5    2    3 1
     6    2    4 1
     7    2    7 1
     8    4    5 2
     9    4    6 1
    10    6   17 1
    11    7   18 1
    12    7   19 1
    13    8   13 1
    14    8    9 1
    15    9   10 2
    16    9   14 1
    17   10   11 1
    18   11   12 2
    19   11   13 1
    20   14   20 1
@<TRIPOS>MOLECULE
ZINC19943127
   19    19     0     0     0
SMALL
USER_CHARGES

@<TRIPOS>ATOM
      1 C1         -0.0187    1.5258    0.0104 C.3       1 <0>        -0.0910
      2 C2         -0.7475    2.0250   -1.2105 C.2       1 <0>         0.1840
      3 C3         -2.0514    2.3583   -1.2608 C.2       1 <0>        -0.3358
      4 C4         -2.3510    2.7774   -2.5745 C.2       1 <0>         0.5543
      5 N1         -1.2115    2.6865   -3.2925 N.am      1 <0>        -0.5749
      6 O1         -0.2020    2.2140   -2.4180 O.3       1 <0>        -0.0328
      7 O2         -3.4377    3.1516   -2.9851 O.2       1 <0>        -0.5073
      8 Br1        -3.2717    2.2776    0.1814 Br        1 <0>         0.0223
      9 C5          0.0021   -0.0041    0.0020 C.3       1 <0>         0.0322
     10 H1          0.4324   -0.3564   -0.9354 H         1 <0>         0.0809
     11 C6          0.8348   -0.5015    1.1553 C.2       1 <0>         0.5057
     12 O3          0.2991   -1.0577    2.0988 O.co2     1 <0>        -0.6704
     13 O4          2.0443   -0.3478    1.1449 O.co2     1 <0>        -0.6954
     14 N2         -1.3697   -0.5131    0.1331 N.3       1 <0>        -0.8184
     15 H2          1.0039    1.9031    0.0027 H         1 <0>         0.1118
     16 H3         -0.5289    1.8773    0.9072 H         1 <0>         0.1111
     17 H4         -1.7907   -0.2000    0.9949 H         1 <0>         0.3475
     18 H5         -1.9316   -0.2469   -0.6615 H         1 <0>         0.3169
     19 H6         -1.1035    2.9063   -4.2311 H         1 <0>         0.4590
@<TRIPOS>BOND
     1    1    9 1
     2    1   15 1
     3    1   16 1
     4    1    2 1
     5    2    3 2
     6    2    6 1
     7    3    4 1
     8    3    8 1
     9    4    5 am
    10    4    7 2
    11    5    6 1
    12    5   19 1
    13    9   10 1
    14    9   11 1
    15    9   14 1
    16   11   12 2
    17   11   13 1
    18   14   17 1
    19   14   18 1
@<TRIPOS>MOLECULE
ZINC19943127
   18    18     0     0     0
SMALL
USER_CHARGES

@<TRIPOS>ATOM
      1 C1         -0.0187    1.5258    0.0104 C.3       1 <0>        -0.0273
      2 C2         -0.7475    2.0250   -1.2105 C.2       1 <0>         0.1070
      3 C3         -2.0675    2.2708   -1.2965 C.2       1 <0>        -0.2743
      4 C4         -2.3447    2.7224   -2.6059 C.2       1 <0>         0.3827
      5 N1         -1.2195    2.7417   -3.2713 N.2       1 <0>        -0.4622
      6 O1         -0.1915    2.3073   -2.3996 O.3       1 <0>        -0.1279
      7 O2         -3.5637    3.0737   -3.0880 O.3       1 <0>        -0.7181
      8 Br1        -3.3312    2.0492    0.0926 Br        1 <0>        -0.0608
      9 C5          0.0021   -0.0041    0.0020 C.3       1 <0>         0.0307
     10 H1          0.4324   -0.3564   -0.9354 H         1 <0>         0.0736
     11 C6          0.8348   -0.5015    1.1553 C.2       1 <0>         0.4708
     12 O3          0.2991   -1.0577    2.0988 O.co2     1 <0>        -0.7017
     13 O4          2.0443   -0.3478    1.1449 O.co2     1 <0>        -0.7026
     14 N2         -1.3697   -0.5131    0.1331 N.3       1 <0>        -0.8168
     15 H2          1.0039    1.9031    0.0027 H         1 <0>         0.0832
     16 H3         -0.5289    1.8773    0.9072 H         1 <0>         0.0818
     17 H4         -1.3898   -1.5196    0.0656 H         1 <0>         0.3248
     18 H5         -1.7907   -0.2000    0.9949 H         1 <0>         0.3370
@<TRIPOS>BOND
     1    1    9 1
     2    1   15 1
     3    1   16 1
     4    1    2 1
     5    2    3 2
     6    2    6 1
     7    3    4 1
     8    3    8 1
     9    4    5 2
    10    4    7 1
    11    5    6 1
    12    9   10 1
    13    9   11 1
    14    9   14 1
    15   11   12 2
    16   11   13 1
    17   14   17 1
    18   14   18 1
