@<TRIPOS>MOLECULE
ZINC18118278
   22    23     0     0     0
SMALL
USER_CHARGES

@<TRIPOS>ATOM
      1 C1          0.0496    1.1063    0.6344 C.ar      1 <0>        -0.0815
      2 C2          0.8293    1.9861   -0.1610 C.ar      1 <0>         0.4075
      3 N1          0.4596    3.2355   -0.3488 N.am      1 <0>        -0.4279
      4 C3          1.2172    4.0533   -1.1085 C.2       1 <0>         0.4679
      5 O1          0.8827    5.2069   -1.2858 O.2       1 <0>        -0.1860
      6 C4          2.4726    3.5290   -1.7307 C.2       1 <0>         0.4680
      7 O2          3.1640    4.2540   -2.4164 O.2       1 <0>        -0.1859
      8 N2          2.8311    2.2450   -1.5240 N.am      1 <0>        -0.4280
      9 C5          2.0762    1.4654   -0.7789 C.ar      1 <0>         0.4074
     10 C6          2.4324    0.1113   -0.5464 C.ar      1 <0>        -0.0816
     11 C7          1.6375   -0.6655    0.2237 C.ar      1 <0>         0.1372
     12 C8          0.4549   -0.1716    0.8097 C.ar      1 <0>         0.1371
     13 N3         -0.3677   -1.0785    1.6416 N.pl3     1 <0>        -0.0219
     14 O3         -1.5741   -1.0221    1.5858 O.2       1 <0>        -0.0173
     15 O4          0.1668   -1.8755    2.3769 O.3       1 <0>        -0.0340
     16 N4          2.0208   -2.0759    0.4581 N.pl3     1 <0>        -0.0219
     17 O5          3.1825   -2.3672    0.6234 O.2       1 <0>        -0.0173
     18 O6          1.1722   -2.9366    0.4842 O.3       1 <0>        -0.0339
     19 H1         -0.8595    1.4568    1.1003 H         1 <0>         0.2615
     20 H2          3.3326   -0.2963   -0.9822 H         1 <0>         0.2615
     21 H3         -0.3561    3.5673    0.0580 H         1 <0>         0.4946
     22 H4          3.6434    1.8969   -1.9239 H         1 <0>         0.4946
@<TRIPOS>BOND
     1    1   12 ar
     2    1    2 ar
     3    1   19 1
     4    2    9 ar
     5    2    3 2
     6    3    4 am
     7    3   21 1
     8    4    5 2
     9    4    6 1
    10    6    7 2
    11    6    8 am
    12    8    9 2
    13    8   22 1
    14    9   10 ar
    15   10   11 ar
    16   10   20 1
    17   11   12 ar
    18   11   16 1
    19   12   13 1
    20   13   14 2
    21   13   15 1
    22   16   17 2
    23   16   18 1
@<TRIPOS>MOLECULE
ZINC18118278
   21    22     0     0     0
SMALL
USER_CHARGES

@<TRIPOS>ATOM
      1 C1          0.0417    1.2522    0.5309 C.ar      1 <0>        -0.0473
      2 C2          0.8780    2.0146   -0.2789 C.ar      1 <0>         0.0748
      3 C3          2.0479    1.4409   -0.8068 C.ar      1 <0>         0.2260
      4 C4          2.3544    0.1053   -0.5080 C.ar      1 <0>        -0.0622
      5 C5          1.5202   -0.6244    0.2883 C.ar      1 <0>         0.0219
      6 C6          0.3650   -0.0580    0.8097 C.ar      1 <0>        -0.0602
      7 N1         -0.5259   -0.8673    1.6712 N.pl3     1 <0>         0.0426
      8 O1         -1.7257   -0.7484    1.5809 O.2       1 <0>        -0.1529
      9 O2         -0.0539   -1.6473    2.4653 O.3       1 <0>        -0.1493
     10 N2          1.8502   -2.0336    0.5987 N.pl3     1 <0>         0.0304
     11 O3          2.9984   -2.3560    0.7971 O.2       1 <0>        -0.1355
     12 O4          0.9715   -2.8622    0.6539 O.3       1 <0>        -0.1417
     13 N3          2.8727    2.1624   -1.5937 N.2       1 <0>        -0.5947
     14 C7          2.6068    3.4079   -1.8848 C.2       1 <0>         0.4324
     15 O5          3.4503    4.1124   -2.6771 O.3       1 <0>        -0.5802
     16 C8          1.3904    4.0475   -1.3530 C.2       1 <0>         0.4795
     17 O6          1.1361    5.2074   -1.6209 O.2       1 <0>        -0.4979
     18 N4          0.5617    3.3300   -0.5634 N.am      1 <0>        -0.6270
     19 H1         -0.2442    3.7314   -0.2024 H         1 <0>         0.4104
     20 H2         -0.8563    1.6877    0.9435 H         1 <0>         0.1592
     21 H3          3.2502   -0.3457   -0.9085 H         1 <0>         0.1717
@<TRIPOS>BOND
     1    1    6 ar
     2    1    2 ar
     3    1   20 1
     4    2   18 1
     5    2    3 ar
     6    3    4 ar
     7    3   13 1
     8    4    5 ar
     9    4   21 1
    10    5    6 ar
    11    5   10 1
    12    6    7 1
    13    7    8 2
    14    7    9 1
    15   10   11 2
    16   10   12 1
    17   13   14 2
    18   14   15 1
    19   14   16 1
    20   16   17 2
    21   16   18 am
    22   18   19 1
@<TRIPOS>MOLECULE
ZINC18118278
   22    23     0     0     0
SMALL
USER_CHARGES

@<TRIPOS>ATOM
      1 C1          0.0382    1.2610    0.5152 C.ar      1 <0>        -0.0552
      2 C2          0.8758    2.0183   -0.2964 C.ar      1 <0>         0.1719
      3 C3          2.0393    1.4471   -0.8145 C.ar      1 <0>         0.1720
      4 C4          2.3510    0.1254   -0.5146 C.ar      1 <0>        -0.0553
      5 C5          1.5125   -0.6159    0.2921 C.ar      1 <0>         0.0166
      6 C6          0.3581   -0.0491    0.8060 C.ar      1 <0>         0.0165
      7 N1         -0.5357   -0.8520    1.6707 N.pl3     1 <0>         0.0206
      8 O1         -1.7351   -0.7324    1.5766 O.2       1 <0>        -0.1120
      9 O2         -0.0664   -1.6272    2.4709 O.3       1 <0>        -0.1151
     10 N2          1.8476   -2.0224    0.6091 N.pl3     1 <0>         0.0206
     11 O3          2.9970   -2.3396    0.8090 O.2       1 <0>        -0.1120
     12 O4          0.9720   -2.8539    0.6680 O.3       1 <0>        -0.1151
     13 N3          2.8903    2.1887   -1.6291 N.am      1 <0>        -0.6303
     14 C7          2.5958    3.4709   -1.9250 C.2       1 <0>         0.5137
     15 C8          1.3528    4.0814   -1.3711 C.2       1 <0>         0.5137
     16 N4          0.5461    3.3396   -0.5854 N.am      1 <0>        -0.6303
     17 O5          1.0696    5.2348   -1.6257 O.2       1 <0>        -0.4318
     18 O6          3.3354    4.1221   -2.6351 O.2       1 <0>        -0.4318
     19 H1         -0.8610    1.7001    0.9216 H         1 <0>         0.1865
     20 H2          3.2498   -0.3211   -0.9137 H         1 <0>         0.1866
     21 H3          3.6965    1.7826   -1.9842 H         1 <0>         0.4351
     22 H4         -0.2650    3.7271   -0.2210 H         1 <0>         0.4351
@<TRIPOS>BOND
     1    1    6 ar
     2    1    2 ar
     3    1   19 1
     4    2   16 1
     5    2    3 ar
     6    3    4 ar
     7    3   13 1
     8    4    5 ar
     9    4   20 1
    10    5    6 ar
    11    5   10 1
    12    6    7 1
    13    7    8 2
    14    7    9 1
    15   10   11 2
    16   10   12 1
    17   13   14 am
    18   13   21 1
    19   14   15 1
    20   14   18 2
    21   15   16 am
    22   15   17 2
    23   16   22 1
@<TRIPOS>MOLECULE
ZINC00008926
   46    49     0     0     0
SMALL
USER_CHARGES
2-amino-7,7-dimethyl-4-(2-naphthyl)-5-oxo-6,8-dihydro-4H-chromene-3-carbonitrile
@<TRIPOS>ATOM
      1 C1         -0.5809    5.9401    3.5540 C.3       1 <0>        -0.1567
      2 C2         -2.0222    6.4307    3.7051 C.3       1 <0>        -0.0555
      3 C3         -2.4134    7.2615    2.4816 C.3       1 <0>        -0.0724
      4 C4         -2.3275    6.4072    1.2384 C.2       1 <0>         0.1685
      5 C5         -2.5744    5.0858    1.2958 C.2       1 <0>        -0.2597
      6 C6         -2.5076    4.2370    0.0491 C.3       1 <0>         0.0914
      7 H1         -3.3393    3.5325    0.0488 H         1 <0>         0.0994
      8 C7         -2.5913    5.1077   -1.1734 C.2       1 <0>        -0.2595
      9 C8         -2.3378    6.4363   -1.0874 C.2       1 <0>         0.4246
     10 O1         -2.0030    7.0096    0.0790 O.3       1 <0>        -0.2385
     11 N1         -2.4257    7.2118   -2.2167 N.pl3     1 <0>        -0.8296
     12 C9         -2.9415    4.5301   -2.4361 C.1       1 <0>         0.2711
     13 N2         -3.2192    4.0719   -3.4378 N.1       1 <0>        -0.4373
     14 C10        -1.2073    3.4754    0.0321 C.ar      1 <0>        -0.0707
     15 C11        -0.0020    4.1751    0.0243 C.ar      1 <0>        -0.0992
     16 C12         1.1896    3.5179    0.0095 C.ar      1 <0>        -0.1078
     17 C13         1.2086    2.1126    0.0019 C.ar      1 <0>        -0.0513
     18 C14         2.4194    1.3992   -0.0130 C.ar      1 <0>        -0.1081
     19 C15         2.3991    0.0385   -0.0205 C.ar      1 <0>        -0.1167
     20 C16         1.1937   -0.6612   -0.0128 C.ar      1 <0>        -0.1183
     21 C17         0.0021   -0.0041    0.0020 C.ar      1 <0>        -0.1036
     22 C18        -0.0170    1.4012    0.0097 C.ar      1 <0>        -0.0489
     23 C19        -1.2277    2.1147    0.0193 C.ar      1 <0>        -0.0848
     24 C20        -2.8988    4.4535    2.5114 C.2       1 <0>         0.4045
     25 O2         -3.1268    3.2604    2.5208 O.2       1 <0>        -0.4473
     26 C21        -2.9681    5.2288    3.7989 C.3       1 <0>        -0.1514
     27 C22        -2.1443    7.2861    4.9678 C.3       1 <0>        -0.1419
     28 H2          0.0876    6.7970    3.4695 H         1 <0>         0.0653
     29 H3         -0.3049    5.3487    4.4269 H         1 <0>         0.0652
     30 H4         -0.4985    5.3253    2.6577 H         1 <0>         0.0623
     31 H5         -1.7349    8.1093    2.3867 H         1 <0>         0.1035
     32 H6         -3.4338    7.6253    2.6020 H         1 <0>         0.1093
     33 H7         -2.6672    6.8078   -3.0649 H         1 <0>         0.4265
     34 H8         -2.2463    8.1637   -2.1666 H         1 <0>         0.4118
     35 H9         -0.0138    5.2550    0.0305 H         1 <0>         0.1140
     36 H10         2.1158    4.0733    0.0032 H         1 <0>         0.1257
     37 H11         3.3610    1.9281   -0.0183 H         1 <0>         0.1255
     38 H12         3.3309   -0.5074   -0.0323 H         1 <0>         0.1222
     39 H13         1.2056   -1.7412   -0.0184 H         1 <0>         0.1226
     40 H14        -0.9241   -0.5595    0.0082 H         1 <0>         0.1264
     41 H15        -2.1694    1.5858    0.0217 H         1 <0>         0.1268
     42 H16        -2.6907    4.6451    4.5621 H         1 <0>         0.0924
     43 H17        -3.9878    5.5783    3.9602 H         1 <0>         0.1055
     44 H18        -3.1735    7.6283    5.0767 H         1 <0>         0.0628
     45 H19        -1.8650    6.6917    5.8377 H         1 <0>         0.0667
     46 H20        -1.4814    8.1478    4.8884 H         1 <0>         0.0652
@<TRIPOS>BOND
     1    1    2 1
     2    1   28 1
     3    1   29 1
     4    1   30 1
     5    2   26 1
     6    2    3 1
     7    2   27 1
     8    3    4 1
     9    3   31 1
    10    3   32 1
    11    4   10 1
    12    4    5 2
    13    5    6 1
    14    5   24 1
    15    6    7 1
    16    6    8 1
    17    6   14 1
    18    8    9 2
    19    8   12 1
    20    9   10 1
    21    9   11 1
    22   11   33 1
    23   11   34 1
    24   12   13 3
    25   14   23 ar
    26   14   15 ar
    27   15   16 ar
    28   15   35 1
    29   16   17 ar
    30   16   36 1
    31   17   22 ar
    32   17   18 ar
    33   18   19 ar
    34   18   37 1
    35   19   20 ar
    36   19   38 1
    37   20   21 ar
    38   20   39 1
    39   21   22 ar
    40   21   40 1
    41   22   23 ar
    42   23   41 1
    43   24   25 2
    44   24   26 1
    45   26   42 1
    46   26   43 1
    47   27   44 1
    48   27   45 1
    49   27   46 1
@<TRIPOS>MOLECULE
ZINC00293392
   46    49     0     0     0
SMALL
USER_CHARGES
2-amino-7,7-dimethyl-4-(2-naphthyl)-5-oxo-6,8-dihydro-4H-chromene-3-carbonitrile
@<TRIPOS>ATOM
      1 C1         -0.4227   -4.6174    3.4775 C.3       1 <0>        -0.1566
      2 C2         -1.8500   -5.1474    3.6278 C.3       1 <0>        -0.0559
      3 C3         -2.2302   -5.9635    2.3984 C.3       1 <0>        -0.0720
      4 C4         -2.1704   -5.0890    1.1678 C.2       1 <0>         0.1685
      5 C5         -2.4492   -3.7775    1.2438 C.2       1 <0>        -0.2595
      6 C6         -2.4105   -2.9069    0.0111 C.3       1 <0>         0.0918
      7 H1         -3.2609   -2.2252    0.0231 H         1 <0>         0.0996
      8 C7         -2.4740   -3.7615   -1.2239 C.2       1 <0>        -0.2598
      9 C8         -2.1850   -5.0839   -1.1583 C.2       1 <0>         0.4248
     10 O1         -1.8335   -5.6658   -0.0011 O.3       1 <0>        -0.2388
     11 N1         -2.2538   -5.8443   -2.2991 N.pl3     1 <0>        -0.8296
     12 C9         -2.8416   -3.1747   -2.4773 C.1       1 <0>         0.2711
     13 N2         -3.1333   -2.7092   -3.4717 N.1       1 <0>        -0.4374
     14 C10        -1.1314   -2.1100    0.0021 C.ar      1 <0>        -0.0707
     15 C11         0.0925   -2.7766   -0.0136 C.ar      1 <0>        -0.0992
     16 C12         1.2658   -2.0871   -0.0212 C.ar      1 <0>        -0.1078
     17 C13         1.2466   -0.6819   -0.0135 C.ar      1 <0>        -0.0512
     18 C14         2.4376    0.0643   -0.0205 C.ar      1 <0>        -0.1081
     19 C15         2.3803    1.4240   -0.0122 C.ar      1 <0>        -0.1167
     20 C16         1.1564    2.0906    0.0022 C.ar      1 <0>        -0.1183
     21 C17        -0.0170    1.4012    0.0097 C.ar      1 <0>        -0.1036
     22 C18         0.0021   -0.0041    0.0020 C.ar      1 <0>        -0.0490
     23 C19        -1.1888   -0.7503    0.0099 C.ar      1 <0>        -0.0848
     24 C20        -2.7841   -3.1742    2.4713 C.2       1 <0>         0.4040
     25 O2         -3.0444   -1.9881    2.5013 O.2       1 <0>        -0.4472
     26 C21        -2.8260   -3.9719    3.7462 C.3       1 <0>        -0.1518
     27 C22        -1.9445   -6.0221    4.8796 C.3       1 <0>        -0.1418
     28 H2         -0.1636   -4.0185    4.3506 H         1 <0>         0.0652
     29 H3          0.2691   -5.4555    3.3935 H         1 <0>         0.0654
     30 H4         -0.3566   -4.0006    2.5812 H         1 <0>         0.0623
     31 H5         -3.2406   -6.3551    2.5164 H         1 <0>         0.1096
     32 H6         -1.5309   -6.7923    2.2888 H         1 <0>         0.1032
     33 H7         -2.5072   -5.4341   -3.1408 H         1 <0>         0.4265
     34 H8         -2.0491   -6.7918   -2.2636 H         1 <0>         0.4119
     35 H9          0.1101   -3.8564   -0.0196 H         1 <0>         0.1141
     36 H10         2.2068   -2.6170   -0.0334 H         1 <0>         0.1257
     37 H11         3.3932   -0.4388   -0.0320 H         1 <0>         0.1256
     38 H12         3.2970    1.9950   -0.0179 H         1 <0>         0.1222
     39 H13         1.1389    3.1704    0.0082 H         1 <0>         0.1226
     40 H14        -0.9579    1.9312    0.0171 H         1 <0>         0.1264
     41 H15        -2.1444   -0.2474    0.0220 H         1 <0>         0.1268
     42 H16        -2.5594   -3.3937    4.5173 H         1 <0>         0.0923
     43 H17        -3.8355   -4.3503    3.9071 H         1 <0>         0.1056
     44 H18        -2.9604   -6.4040    4.9802 H         1 <0>         0.0628
     45 H19        -1.2493   -6.8572    4.7926 H         1 <0>         0.0651
     46 H20        -1.6909   -5.4283    5.7578 H         1 <0>         0.0668
@<TRIPOS>BOND
     1    1    2 1
     2    1   28 1
     3    1   29 1
     4    1   30 1
     5    2   26 1
     6    2    3 1
     7    2   27 1
     8    3    4 1
     9    3   31 1
    10    3   32 1
    11    4   10 1
    12    4    5 2
    13    5    6 1
    14    5   24 1
    15    6    7 1
    16    6    8 1
    17    6   14 1
    18    8    9 2
    19    8   12 1
    20    9   10 1
    21    9   11 1
    22   11   33 1
    23   11   34 1
    24   12   13 3
    25   14   23 ar
    26   14   15 ar
    27   15   16 ar
    28   15   35 1
    29   16   17 ar
    30   16   36 1
    31   17   22 ar
    32   17   18 ar
    33   18   19 ar
    34   18   37 1
    35   19   20 ar
    36   19   38 1
    37   20   21 ar
    38   20   39 1
    39   21   22 ar
    40   21   40 1
    41   22   23 ar
    42   23   41 1
    43   24   25 2
    44   24   26 1
    45   26   42 1
    46   26   43 1
    47   27   44 1
    48   27   45 1
    49   27   46 1
@<TRIPOS>MOLECULE
ZINC14951272
   26    28     0     0     0
SMALL
USER_CHARGES

@<TRIPOS>ATOM
      1 C1         -0.0425    0.5463   -0.5268 C.2       1 <0>        -0.0251
      2 C2          1.2091    0.3392   -0.9779 C.2       1 <0>        -0.0516
      3 N1          2.0613    0.7198    0.0267 N.pl3     1 <0>        -0.4127
      4 C3          1.2915    1.1481    1.0610 C.2       1 <0>         0.2332
      5 N2          0.0370    1.0395    0.7180 N.2       1 <0>        -0.4915
      6 C4          3.4606    0.6754   -0.0071 C.ar      1 <0>         0.1187
      7 C5          4.1483    1.3667   -0.9903 C.ar      1 <0>        -0.1065
      8 C6          5.5365    1.3226   -1.0230 C.ar      1 <0>         0.0977
      9 C7          6.2341    0.5752   -0.0560 C.ar      1 <0>         0.1863
     10 C8          5.5167   -0.1173    0.9310 C.ar      1 <0>        -0.0500
     11 C9          4.1546   -0.0598    0.9528 C.ar      1 <0>        -0.0329
     12 N3          3.4061   -0.7891    2.0011 N.pl3     1 <0>         0.0380
     13 O1          4.0014   -1.3281    2.9048 O.2       1 <0>        -0.1603
     14 O2          2.1993   -0.8457    1.9536 O.3       1 <0>        -0.1597
     15 N4          7.5814    0.5210   -0.0713 N.2       1 <0>        -0.5990
     16 C10         8.2711    1.1575   -0.9804 C.2       1 <0>         0.4239
     17 O3          9.6246    1.0871   -0.9750 O.3       1 <0>        -0.6032
     18 C11         7.5808    1.9508   -2.0111 C.2       1 <0>         0.4780
     19 O4          8.2180    2.5461   -2.8607 O.2       1 <0>        -0.5055
     20 N5          6.2312    2.0102   -2.0011 N.am      1 <0>        -0.6289
     21 H1          5.7564    2.5270   -2.6707 H         1 <0>         0.4062
     22 H2         -0.9531    0.3530   -1.0745 H         1 <0>         0.1689
     23 H3          1.4883   -0.0519   -1.9451 H         1 <0>         0.1709
     24 H4          1.6565    1.5167    2.0083 H         1 <0>         0.1937
     25 H5          3.6070    1.9381   -1.7299 H         1 <0>         0.1453
     26 H6          6.0442   -0.6933    1.6769 H         1 <0>         0.1660
@<TRIPOS>BOND
     1    1    5 1
     2    1    2 2
     3    1   22 1
     4    2    3 1
     5    2   23 1
     6    3    4 1
     7    3    6 1
     8    4    5 2
     9    4   24 1
    10    6   11 ar
    11    6    7 ar
    12    7    8 ar
    13    7   25 1
    14    8   20 1
    15    8    9 ar
    16    9   10 ar
    17    9   15 1
    18   10   11 ar
    19   10   26 1
    20   11   12 1
    21   12   13 2
    22   12   14 1
    23   15   16 2
    24   16   17 1
    25   16   18 1
    26   18   19 2
    27   18   20 am
    28   20   21 1
@<TRIPOS>MOLECULE
ZINC14951272
   26    28     0     0     0
SMALL
USER_CHARGES

@<TRIPOS>ATOM
      1 C1          0.0021    1.0261    0.6815 C.2       1 <0>        -0.0328
      2 C2          1.2851    1.1518    1.0710 C.2       1 <0>        -0.0035
      3 N1          2.0612    0.7200    0.0269 N.pl3     1 <0>        -0.4186
      4 C3          1.2169    0.3440   -0.9683 C.2       1 <0>         0.1943
      5 N2         -0.0103    0.5316   -0.5652 N.2       1 <0>        -0.4866
      6 C4          3.4631    0.6752   -0.0075 C.ar      1 <0>         0.1872
      7 C5          4.1483    1.3642   -0.9882 C.ar      1 <0>        -0.1214
      8 C6          5.5486    1.3201   -1.0226 C.ar      1 <0>         0.2401
      9 C7          6.2409    0.5716   -0.0537 C.ar      1 <0>         0.0483
     10 C8          5.5325   -0.1160    0.9268 C.ar      1 <0>        -0.0431
     11 C9          4.1569   -0.0597    0.9520 C.ar      1 <0>        -0.1014
     12 N3          3.4100   -0.7888    2.0017 N.pl3     1 <0>         0.0519
     13 O1          4.0069   -1.3273    2.9047 O.2       1 <0>        -0.1911
     14 O2          2.2033   -0.8458    1.9559 O.3       1 <0>        -0.1636
     15 N4          7.6231    0.5201   -0.0760 N.am      1 <0>        -0.6298
     16 C10         8.2893    1.1961   -1.0371 C.2       1 <0>         0.4781
     17 C11         7.5249    1.9678   -2.0326 C.2       1 <0>         0.4315
     18 N5          6.2198    1.9933   -1.9802 N.2       1 <0>        -0.6005
     19 O3          8.1765    2.6523   -3.0035 O.3       1 <0>        -0.5880
     20 O4          9.5056    1.1685   -1.0799 O.2       1 <0>        -0.5063
     21 H1         -0.8666    1.2759    1.2725 H         1 <0>         0.1696
     22 H2          1.6353    1.5219    2.0233 H         1 <0>         0.1635
     23 H3          1.5115   -0.0444   -1.9320 H         1 <0>         0.2051
     24 H4          3.6064    1.9355   -1.7274 H         1 <0>         0.1574
     25 H5          6.0625   -0.6912    1.6715 H         1 <0>         0.1524
     26 H6          8.1069    0.0062    0.5893 H         1 <0>         0.4074
@<TRIPOS>BOND
     1    1    5 1
     2    1    2 2
     3    1   21 1
     4    2    3 1
     5    2   22 1
     6    3    4 1
     7    3    6 1
     8    4    5 2
     9    4   23 1
    10    6   11 ar
    11    6    7 ar
    12    7    8 ar
    13    7   24 1
    14    8   18 1
    15    8    9 ar
    16    9   10 ar
    17    9   15 1
    18   10   11 ar
    19   10   25 1
    20   11   12 1
    21   12   13 2
    22   12   14 1
    23   15   16 am
    24   15   26 1
    25   16   17 1
    26   16   20 2
    27   17   18 2
    28   17   19 1
@<TRIPOS>MOLECULE
ZINC14951272
   27    29     0     0     0
SMALL
USER_CHARGES

@<TRIPOS>ATOM
      1 C1         -0.0420    0.5400   -0.5314 C.2       1 <0>        -0.0063
      2 C2          1.2106    0.3345   -0.9812 C.2       1 <0>        -0.0534
      3 N1          2.0611    0.7160    0.0240 N.pl3     1 <0>        -0.4382
      4 C3          1.2902    1.1432    1.0573 C.2       1 <0>         0.2377
      5 N2          0.0358    1.0332    0.7134 N.2       1 <0>        -0.4758
      6 C4          3.4628    0.6732   -0.0086 C.ar      1 <0>         0.2086
      7 C5          4.1533    1.3638   -0.9916 C.ar      1 <0>        -0.1178
      8 C6          5.5416    1.3220   -1.0247 C.ar      1 <0>         0.1918
      9 C7          6.2365    0.5821   -0.0651 C.ar      1 <0>         0.1277
     10 C8          5.5350   -0.1082    0.9174 C.ar      1 <0>        -0.0389
     11 C9          4.1572   -0.0574    0.9489 C.ar      1 <0>        -0.0426
     12 N3          3.4154   -0.7886    2.0007 N.pl3     1 <0>         0.0306
     13 O1          4.0164   -1.3259    2.9017 O.2       1 <0>        -0.1407
     14 O2          2.2087   -0.8485    1.9587 O.3       1 <0>        -0.1333
     15 N4          7.6280    0.5288   -0.0836 N.am      1 <0>        -0.6314
     16 C10         8.3177    1.1945   -1.0320 C.2       1 <0>         0.5123
     17 C11         7.5754    1.9847   -2.0560 C.2       1 <0>         0.5126
     18 N5          6.2281    2.0184   -2.0154 N.am      1 <0>        -0.6326
     19 O3          8.1785    2.5911   -2.9184 O.2       1 <0>        -0.4391
     20 O4          9.5315    1.1512   -1.0518 O.2       1 <0>        -0.4434
     21 H1         -0.9518    0.3457   -1.0799 H         1 <0>         0.1777
     22 H2          1.4912   -0.0559   -1.9483 H         1 <0>         0.1790
     23 H3          1.6541    1.5121    2.0049 H         1 <0>         0.2004
     24 H4          3.6123    1.9341   -1.7322 H         1 <0>         0.1717
     25 H5          6.0704   -0.6814    1.6599 H         1 <0>         0.1797
     26 H6          5.7364    2.5291   -2.6775 H         1 <0>         0.4318
     27 H7          8.1018    0.0124    0.5870 H         1 <0>         0.4319
@<TRIPOS>BOND
     1    1    5 1
     2    1    2 2
     3    1   21 1
     4    2    3 1
     5    2   22 1
     6    3    4 1
     7    3    6 1
     8    4    5 2
     9    4   23 1
    10    6   11 ar
    11    6    7 ar
    12    7    8 ar
    13    7   24 1
    14    8   18 1
    15    8    9 ar
    16    9   10 ar
    17    9   15 1
    18   10   11 ar
    19   10   25 1
    20   11   12 1
    21   12   13 2
    22   12   14 1
    23   15   16 am
    24   15   27 1
    25   16   17 1
    26   16   20 2
    27   17   18 am
    28   17   19 2
    29   18   26 1
@<TRIPOS>MOLECULE
ZINC14951272
   26    28     0     0     0
SMALL
USER_CHARGES
6-imidazol-1-yl-7-nitro-quinoxaline-2,3-dione
@<TRIPOS>ATOM
      1 C1         -0.9692    2.3670   -0.5011 C.2       1 <0>         0.0203
      2 C2          0.1710    1.8137   -0.9544 C.2       1 <0>         0.0322
      3 N1          1.1010    1.9441    0.0456 N.pl3     1 <0>        -0.3920
      4 C3          0.4856    2.5787    1.0814 C.cat     1 <0>         0.3472
      5 C4          2.4211    1.5101    0.0089 C.ar      1 <0>         0.1649
      6 C5          3.2440    1.9712   -0.9737 C.ar      1 <0>        -0.0242
      7 C6          4.5864    1.5528   -1.0315 C.ar      1 <0>         0.2441
      8 N2          5.3912    2.0023   -1.9805 N.2       1 <0>        -0.4313
      9 C7          6.6689    1.5908   -2.0264 C.2       1 <0>         0.4244
     10 O1          7.4122    2.0008   -2.8957 O.2       1 <0>        -0.2992
     11 C8          7.1712    0.6250   -1.0008 C.2       1 <0>         0.4198
     12 O2          8.3236    0.2452   -1.0318 O.2       1 <0>        -0.2904
     13 N3          6.3332    0.1780   -0.0399 N.2       1 <0>        -0.4107
     14 C9          5.0867    0.5932   -0.0128 C.ar      1 <0>         0.2261
     15 C10         4.1626    0.1193    1.0230 C.ar      1 <0>         0.0707
     16 C11         2.8885    0.5661    1.0223 C.ar      1 <0>        -0.0270
     17 N4          1.9499    0.0920    2.0641 N.pl3     1 <0>         0.0210
     18 O3          2.3570   -0.5958    2.9831 O.2       1 <0>        -0.0756
     19 O4          0.7705    0.3898    2.0022 O.3       1 <0>        -0.1704
     20 H1         -1.9008    2.4314   -1.0437 H         1 <0>         0.2316
     21 H2          0.3244    1.3552   -1.9202 H         1 <0>         0.2287
     22 H3          0.9431    2.8349    2.0255 H         1 <0>         0.2572
     23 H4          2.8653    2.6649   -1.7098 H         1 <0>         0.1988
     24 H5          4.4972   -0.5779    1.7768 H         1 <0>         0.2143
     25 N5         -0.7504    2.8198    0.7433 N.pl3     1 <0>        -0.4696
     26 H6         -1.4480    3.2838    1.3368 H         1 <0>         0.4890
@<TRIPOS>BOND
     1    1    2 2
     2    1   20 1
     3    1   25 1
     4    2    3 1
     5    2   21 1
     6    3    4 1
     7    3    5 1
     8    4   22 1
     9    4   25 2
    10    5   16 ar
    11    5    6 ar
    12    6    7 ar
    13    6   23 1
    14    7   14 ar
    15    7    8 2
    16    8    9 1
    17    9   10 2
    18    9   11 1
    19   11   12 2
    20   11   13 1
    21   13   14 2
    22   14   15 ar
    23   15   16 ar
    24   15   24 1
    25   16   17 1
    26   17   18 2
    27   17   19 1
    28   25   26 1
@<TRIPOS>MOLECULE
ZINC19850499
   22    22     0     0     0
SMALL
USER_CHARGES

@<TRIPOS>ATOM
      1 C1         -0.0127    1.0858    0.0080 C.3       1 <0>        -0.0876
      2 C2         -0.7416    1.5850   -1.2129 C.2       1 <0>         0.0641
      3 C3         -2.0612    1.8307   -1.2988 C.2       1 <0>        -0.3438
      4 C4         -2.3386    2.2827   -2.6074 C.2       1 <0>         0.3550
      5 N1         -1.2135    2.3025   -3.2730 N.2       1 <0>        -0.4446
      6 O1         -0.1856    1.8672   -2.4015 O.3       1 <0>        -0.1265
      7 O2         -3.5577    2.6341   -3.0892 O.3       1 <0>        -0.7249
      8 C5         -3.0681    1.6536   -0.1917 C.3       1 <0>        -0.0323
      9 C6         -3.1832    2.9541    0.6060 C.3       1 <0>        -0.0363
     10 H1         -2.1961    3.2519    0.9598 H         1 <0>         0.1199
     11 C7         -4.0964    2.7408    1.7856 C.2       1 <0>         0.4926
     12 O3         -3.6379    2.3667    2.8516 O.co2     1 <0>        -0.6522
     13 O4         -5.2936    2.9424    1.6740 O.co2     1 <0>        -0.6738
     14 N2         -3.7337    4.0095   -0.2549 N.4       1 <0>        -0.6054
     15 H2          0.0021   -0.0041    0.0020 H         1 <0>         0.0828
     16 H3          1.0099    1.4631    0.0003 H         1 <0>         0.0752
     17 H4         -0.5229    1.4373    0.9048 H         1 <0>         0.0860
     18 H5         -4.0386    1.4030   -0.6199 H         1 <0>         0.0863
     19 H6         -2.7440    0.8496    0.4691 H         1 <0>         0.0924
     20 H7         -3.8095    4.8672    0.2711 H         1 <0>         0.4148
     21 H8         -3.1222    4.1523   -1.0447 H         1 <0>         0.4233
     22 H9         -4.6474    3.7339   -0.5824 H         1 <0>         0.4348
@<TRIPOS>BOND
     1    1   15 1
     2    1   16 1
     3    1   17 1
     4    1    2 1
     5    2    3 2
     6    2    6 1
     7    3    4 1
     8    3    8 1
     9    4    5 2
    10    4    7 1
    11    5    6 1
    12    8    9 1
    13    8   18 1
    14    8   19 1
    15    9   10 1
    16    9   11 1
    17    9   14 1
    18   11   12 2
    19   11   13 1
    20   14   20 1
    21   14   21 1
    22   14   22 1
@<TRIPOS>MOLECULE
ZINC19850502
   22    22     0     0     0
SMALL
USER_CHARGES

@<TRIPOS>ATOM
      1 C1         -0.0127    1.0858    0.0080 C.3       1 <0>        -0.0839
      2 C2         -0.7416    1.5850   -1.2129 C.2       1 <0>         0.0174
      3 C3         -2.0612    1.8307   -1.2988 C.2       1 <0>        -0.3158
      4 C4         -2.3386    2.2827   -2.6074 C.2       1 <0>         0.3643
      5 N1         -1.2135    2.3025   -3.2730 N.2       1 <0>        -0.4463
      6 O1         -0.1856    1.8672   -2.4015 O.3       1 <0>        -0.1249
      7 O2         -3.5577    2.6341   -3.0892 O.3       1 <0>        -0.7045
      8 C5         -3.0681    1.6536   -0.1917 C.3       1 <0>        -0.0320
      9 C6         -3.1832    2.9541    0.6060 C.3       1 <0>        -0.0405
     10 H1         -3.4207    3.7753   -0.0703 H         1 <0>         0.1345
     11 C7         -4.2765    2.8178    1.6341 C.2       1 <0>         0.4959
     12 O3         -3.9950    2.7558    2.8188 O.co2     1 <0>        -0.6885
     13 O4         -5.4426    2.7696    1.2813 O.co2     1 <0>        -0.6350
     14 N2         -1.9077    3.2290    1.2810 N.4       1 <0>        -0.6115
     15 H2          0.0021   -0.0041    0.0020 H         1 <0>         0.0906
     16 H3          1.0099    1.4631    0.0003 H         1 <0>         0.0828
     17 H4         -0.5229    1.4373    0.9048 H         1 <0>         0.0560
     18 H5         -4.0386    1.4030   -0.6199 H         1 <0>         0.1129
     19 H6         -2.7440    0.8496    0.4691 H         1 <0>         0.0690
     20 H7         -1.1757    3.3203    0.5926 H         1 <0>         0.4130
     21 H8         -1.9836    4.0867    1.8070 H         1 <0>         0.4241
     22 H9         -1.6879    2.4688    1.9070 H         1 <0>         0.4225
@<TRIPOS>BOND
     1    1   15 1
     2    1   16 1
     3    1   17 1
     4    1    2 1
     5    2    3 2
     6    2    6 1
     7    3    4 1
     8    3    8 1
     9    4    5 2
    10    4    7 1
    11    5    6 1
    12    8    9 1
    13    8   18 1
    14    8   19 1
    15    9   10 1
    16    9   11 1
    17    9   14 1
    18   11   12 2
    19   11   13 1
    20   14   20 1
    21   14   21 1
    22   14   22 1
@<TRIPOS>MOLECULE
ZINC13491413
   40    42     0     0     0
SMALL
USER_CHARGES

@<TRIPOS>ATOM
      1 C1         -0.0187    1.5261    0.0104 C.3       1 <0>        -0.1238
      2 C2          1.4178    2.0522   -0.0005 C.3       1 <0>        -0.1090
      3 C3          2.1605    1.5450    1.2347 C.3       1 <0>        -0.0988
      4 H1          3.1856    1.9153    1.2176 H         1 <0>         0.0868
      5 C4          1.4628    2.0425    2.5014 C.3       1 <0>        -0.0134
      6 N1          2.1937    1.5679    3.6830 N.4       1 <0>        -0.4785
      7 C5          2.1694    0.1013    3.7306 C.3       1 <0>        -0.0519
      8 H2          1.1357   -0.2442    3.7341 H         1 <0>         0.1318
      9 C6          2.8921   -0.4673    2.5073 C.3       1 <0>        -0.1138
     10 C7          2.1737    0.0143    1.2417 C.3       1 <0>        -0.0947
     11 H3          2.7053   -0.3518    0.3633 H         1 <0>         0.0946
     12 C8          0.7355   -0.5089    1.2457 C.3       1 <0>        -0.1170
     13 C9          0.0021   -0.0041    0.0020 C.3       1 <0>        -0.0847
     14 H4          0.5174   -0.3558   -0.8918 H         1 <0>         0.0750
     15 C10        -1.4332   -0.5339    0.0057 C.3       1 <0>        -0.1042
     16 C11        -2.1288   -0.1316   -1.2963 C.3       1 <0>         0.0018
     17 C12        -3.5425   -0.6535   -1.2927 C.2       1 <0>         0.0495
     18 N2         -4.6155   -0.0251   -0.8348 N.2       1 <0>        -0.3915
     19 N3         -5.6282   -0.8032   -1.0123 N.2       1 <0>        -0.2004
     20 N4         -5.2266   -1.8948   -1.5645 N.2       1 <0>        -0.1995
     21 N5         -3.9528   -1.8267   -1.7520 N.2       1 <0>        -0.3897
     22 C13         2.8601   -0.3710    4.9839 C.2       1 <0>         0.4920
     23 O1          3.3287    0.4400    5.7643 O.co2     1 <0>        -0.6807
     24 O2          2.9504   -1.5643    5.2174 O.co2     1 <0>        -0.6381
     25 H5         -0.5282    1.8780    0.9075 H         1 <0>         0.0620
     26 H6         -0.5452    1.8876   -0.8729 H         1 <0>         0.0774
     27 H7          1.9259    1.7013   -0.8987 H         1 <0>         0.0781
     28 H8          1.4050    3.1421    0.0060 H         1 <0>         0.0687
     29 H9          1.4423    3.1323    2.5006 H         1 <0>         0.1224
     30 H10         0.4423    1.6603    2.5278 H         1 <0>         0.1295
     31 H11         3.1501    1.8859    3.6355 H         1 <0>         0.4200
     32 H12         3.9255   -0.1208    2.5008 H         1 <0>         0.0773
     33 H13         2.8717   -1.5564    2.5456 H         1 <0>         0.1095
     34 H14         0.7457   -1.5988    1.2436 H         1 <0>         0.0759
     35 H15         0.2223   -0.1530    2.1391 H         1 <0>         0.0596
     36 H16        -1.4192   -1.6206    0.0893 H         1 <0>         0.0633
     37 H17        -1.9744   -0.1114    0.8523 H         1 <0>         0.0593
     38 H18        -2.1429    0.9551   -1.3799 H         1 <0>         0.0649
     39 H19        -1.5876   -0.5541   -2.1429 H         1 <0>         0.0636
     40 H20         1.7601    1.9373    4.5159 H         1 <0>         0.4265
@<TRIPOS>BOND
     1    1   13 1
     2    1    2 1
     3    1   25 1
     4    1   26 1
     5    2    3 1
     6    2   27 1
     7    2   28 1
     8    3    4 1
     9    3   10 1
    10    3    5 1
    11    5    6 1
    12    5   29 1
    13    5   30 1
    14    6    7 1
    15    6   31 1
    16    6   40 1
    17    7    8 1
    18    7    9 1
    19    7   22 1
    20    9   10 1
    21    9   32 1
    22    9   33 1
    23   10   11 1
    24   10   12 1
    25   12   13 1
    26   12   34 1
    27   12   35 1
    28   13   14 1
    29   13   15 1
    30   15   16 1
    31   15   36 1
    32   15   37 1
    33   16   38 1
    34   16   39 1
    35   16   17 1
    36   17   18 2
    37   17   21 1
    38   18   19 1
    39   19   20 2
    40   20   21 1
    41   22   23 2
    42   22   24 1
@<TRIPOS>MOLECULE
ZINC13491413
   41    43     0     0     0
SMALL
USER_CHARGES
(3S,4aR,6R,8aR)-6-[2-(1H-tetrazol-5-yl)ethyl]-1,2,3,4,4a,5,6,7,8,8a-decahydroisoquinoline-3-carboxylic acid
@<TRIPOS>ATOM
      1 C1         -0.0203    1.5171    2.5098 C.3       1 <0>        -0.1259
      2 C2         -0.7419    2.0267    1.2607 C.3       1 <0>        -0.1116
      3 C3         -0.0187    1.5266    0.0104 C.3       1 <0>        -0.1025
      4 H1         -0.5502    1.8924   -0.8805 H         1 <0>         0.0911
      5 C4          1.4181    2.0517   -0.0005 C.3       1 <0>        -0.0040
      6 N1          2.1082    1.5636   -1.2016 N.4       1 <0>        -0.5180
      7 C5          2.1773    0.0970   -1.2175 C.3       1 <0>        -0.0118
      8 H2          2.7177   -0.2199   -0.3133 H         1 <0>         0.1294
      9 C6          0.7613   -0.4835   -1.2399 C.3       1 <0>        -0.1191
     10 C7          0.0021   -0.0041    0.0020 C.3       1 <0>        -0.0922
     11 H3         -1.0283   -0.3890   -0.0117 H         1 <0>         0.0971
     12 C8          0.7199   -0.5114    1.2548 C.3       1 <0>        -0.1198
     13 C9         -0.0118   -0.0130    2.5022 C.3       1 <0>        -0.0858
     14 H4         -1.0466   -0.3861    2.4943 H         1 <0>         0.0813
     15 C10         0.7049   -0.5255    3.7530 C.3       1 <0>        -0.1119
     16 C11        -0.0955   -0.1325    4.9964 C.3       1 <0>        -0.0254
     17 C12         0.6105   -0.6373    6.2284 C.2       1 <0>         0.1656
     18 N2          0.9930    0.0939    7.2918 N.2       1 <0>        -0.3188
     19 H5          1.9490   -0.3336    9.0799 H         1 <0>         0.5131
     20 N3          1.5595   -0.7133    8.1238 N.pl3     1 <0>        -0.2272
     21 N4          1.5524   -1.8989    7.6221 N.2       1 <0>        -0.0570
     22 N5          0.9713   -1.8735    6.4725 N.2       1 <0>        -0.2771
     23 C13         2.9251   -0.3568   -2.4446 C.2       1 <0>         0.4555
     24 O1          3.0387    0.3849   -3.3916 O.co2     1 <0>        -0.6198
     25 O2          3.4651   -1.5850   -2.4855 O.co2     1 <0>        -0.7054
     26 H6         -0.5429    1.8764    3.4086 H         1 <0>         0.0750
     27 H7          1.0147    1.8895    2.5141 H         1 <0>         0.0630
     28 H8         -1.7769    1.6543    1.2576 H         1 <0>         0.0803
     29 H9         -0.7480    3.1267    1.2639 H         1 <0>         0.0720
     30 H10         1.4064    3.1516   -0.0056 H         1 <0>         0.1231
     31 H11         1.9458    1.6948    0.8963 H         1 <0>         0.1238
     32 H12         1.5653    1.8983   -2.0979 H         1 <0>         0.4457
     33 H13         0.2397   -0.1429   -2.1465 H         1 <0>         0.0832
     34 H14         0.8153   -1.5822   -1.2390 H         1 <0>         0.1100
     35 H15         0.7297   -1.6114    1.2517 H         1 <0>         0.0797
     36 H16         1.7537   -0.1355    1.2626 H         1 <0>         0.0616
     37 H17         0.7909   -1.6210    3.7033 H         1 <0>         0.0803
     38 H18         1.7096   -0.0810    3.8080 H         1 <0>         0.0643
     39 H19        -0.1815    0.9630    5.0460 H         1 <0>         0.0949
     40 H20        -1.1002   -0.5770    4.9414 H         1 <0>         0.0963
     41 H21         3.1330    1.9627   -1.2233 H         1 <0>         0.4470
@<TRIPOS>BOND
     1    1   13 1
     2    1    2 1
     3    1   26 1
     4    1   27 1
     5    2    3 1
     6    2   28 1
     7    2   29 1
     8    3    4 1
     9    3   10 1
    10    3    5 1
    11    5    6 1
    12    5   30 1
    13    5   31 1
    14    6    7 1
    15    6   32 1
    16    6   41 1
    17    7    8 1
    18    7    9 1
    19    7   23 1
    20    9   10 1
    21    9   33 1
    22    9   34 1
    23   10   11 1
    24   10   12 1
    25   12   13 1
    26   12   35 1
    27   12   36 1
    28   13   14 1
    29   13   15 1
    30   15   16 1
    31   15   37 1
    32   15   38 1
    33   16   17 1
    34   16   39 1
    35   16   40 1
    36   17   18 2
    37   17   22 1
    38   18   20 1
    39   19   20 1
    40   20   21 1
    41   21   22 2
    42   23   24 2
    43   23   25 1
@<TRIPOS>MOLECULE
ZINC08585017
   31    33     0     0     0
SMALL
USER_CHARGES

@<TRIPOS>ATOM
      1 C1          0.2332    1.3841    0.6570 C.ar      1 <0>        -0.1163
      2 C2          1.3450    2.1030    0.3352 C.ar      1 <0>        -0.0461
      3 C3          2.5286    1.4337   -0.0104 C.ar      1 <0>        -0.0508
      4 C4          2.5507    0.0178   -0.0197 C.ar      1 <0>         0.0703
      5 C5          1.3858   -0.6903    0.3181 C.ar      1 <0>        -0.6623
      6 C6          0.2539   -0.0082    0.6481 C.ar      1 <0>         0.0100
      7 S1          1.3881   -2.4523    0.3133 S.o2      1 <0>         2.6604
      8 O1          1.2671   -2.8548   -1.0441 O.2       1 <0>        -0.9037
      9 O2          2.4738   -2.8593    1.1348 O.2       1 <0>        -0.9426
     10 N1          0.0047   -2.9457    1.0783 N.pl3     1 <0>        -1.2465
     11 C7          3.7370   -0.6553   -0.3670 C.ar      1 <0>        -0.0313
     12 C8          4.8514    0.0498   -0.6900 C.ar      1 <0>        -0.0208
     13 C9          4.8498    1.4521   -0.6862 C.ar      1 <0>         0.1138
     14 C10         3.6989    2.1491   -0.3497 C.ar      1 <0>         0.1787
     15 N2          3.6832    3.5358   -0.3424 N.am      1 <0>        -0.6274
     16 H1          2.8706    4.0090   -0.1045 H         1 <0>         0.4261
     17 C11         4.7946    4.2283   -0.6646 C.2       1 <0>         0.5118
     18 O3          4.7862    5.4433   -0.6593 O.2       1 <0>        -0.4441
     19 C12         6.0334    3.4831   -1.0268 C.2       1 <0>         0.5112
     20 O4          7.0481    4.0831   -1.3210 O.2       1 <0>        -0.4495
     21 N3          6.0144    2.1351   -1.0235 N.am      1 <0>        -0.6258
     22 H2          6.8149    1.6397   -1.2576 H         1 <0>         0.4304
     23 N4          3.7698   -2.1354   -0.3796 N.pl3     1 <0>        -0.0336
     24 O5          4.3500   -2.7346    0.4957 O.2       1 <0>        -0.0101
     25 O6          3.2166   -2.7448   -1.2651 O.3       1 <0>        -0.1547
     26 H3         -0.6756    1.9014    0.9270 H         1 <0>         0.1537
     27 H4          1.3152    3.1825    0.3457 H         1 <0>         0.1466
     28 H5         -0.6405   -0.5552    0.9075 H         1 <0>         0.1465
     29 H6         -0.6187   -2.2884    1.4249 H         1 <0>         0.4109
     30 H7         -0.1821   -3.8921    1.1798 H         1 <0>         0.4276
     31 H8          5.7553   -0.4788   -0.9543 H         1 <0>         0.1677
@<TRIPOS>BOND
     1    1    6 ar
     2    1    2 ar
     3    1   26 1
     4    2    3 ar
     5    2   27 1
     6    3   14 ar
     7    3    4 ar
     8    4    5 ar
     9    4   11 ar
    10    5    6 ar
    11    5    7 1
    12    6   28 1
    13    7    8 2
    14    7    9 2
    15    7   10 1
    16   10   29 1
    17   10   30 1
    18   11   12 ar
    19   11   23 1
    20   12   13 ar
    21   12   31 1
    22   13   21 1
    23   13   14 ar
    24   14   15 1
    25   15   16 1
    26   15   17 am
    27   17   18 2
    28   17   19 1
    29   19   20 2
    30   19   21 am
    31   21   22 1
    32   23   24 2
    33   23   25 1
@<TRIPOS>MOLECULE
ZINC08585017
   30    32     0     0     0
SMALL
USER_CHARGES

@<TRIPOS>ATOM
      1 C1         -0.6276    0.4370   -1.7736 C.ar      1 <0>        -0.1731
      2 C2          0.3567    1.2003   -2.3318 C.ar      1 <0>         0.0069
      3 C3          1.6968    0.8795   -2.0978 C.ar      1 <0>        -0.0630
      4 C4          2.0190   -0.2327   -1.2850 C.ar      1 <0>         0.0918
      5 C5          0.9824   -0.9962   -0.7260 C.ar      1 <0>        -0.6997
      6 C6         -0.3146   -0.6572   -0.9739 C.ar      1 <0>         0.0068
      7 S1          1.3554   -2.3868    0.2896 S.o2      1 <0>         2.6622
      8 O1          1.7041   -3.4487   -0.5879 O.2       1 <0>        -0.9158
      9 O2          2.2299   -1.9224    1.3088 O.2       1 <0>        -0.9452
     10 N1         -0.0506   -2.8358    1.0407 N.pl3     1 <0>        -1.2459
     11 C7          3.3708   -0.5559   -1.0503 C.ar      1 <0>        -0.1204
     12 C8          4.3691    0.1831   -1.5919 C.ar      1 <0>         0.0054
     13 C9          4.1065    1.2943   -2.4040 C.ar      1 <0>        -0.0110
     14 C10         2.7853    1.6709   -2.6771 C.ar      1 <0>         0.2503
     15 N2          2.5158    2.7321   -3.4521 N.2       1 <0>        -0.5968
     16 C11         3.4796    3.4477   -3.9760 C.2       1 <0>         0.4326
     17 O3          3.1851    4.5165   -4.7560 O.3       1 <0>        -0.5869
     18 C12         4.8815    3.0897   -3.7160 C.2       1 <0>         0.4736
     19 O4          5.7864    3.7475   -4.1978 O.2       1 <0>        -0.5174
     20 N3          5.1522    2.0207   -2.9364 N.am      1 <0>        -0.6182
     21 H1          6.0702    1.7673   -2.7519 H         1 <0>         0.4056
     22 N4          3.7049   -1.7200   -0.1990 N.pl3     1 <0>        -0.0190
     23 O5          4.1212   -1.5487    0.9230 O.2       1 <0>        -0.0412
     24 O6          3.5614   -2.8420   -0.6258 O.3       1 <0>        -0.1772
     25 H2         -1.6628    0.6885   -1.9514 H         1 <0>         0.1355
     26 H3          0.1015    2.0474   -2.9513 H         1 <0>         0.1531
     27 H4         -1.1104   -1.2463   -0.5426 H         1 <0>         0.1338
     28 H5         -0.4520   -3.6967    0.8440 H         1 <0>         0.4197
     29 H6         -0.4727   -2.2379    1.6772 H         1 <0>         0.4165
     30 H7          5.3943   -0.0914   -1.3921 H         1 <0>         0.1369
@<TRIPOS>BOND
     1    1    6 ar
     2    1    2 ar
     3    1   25 1
     4    2    3 ar
     5    2   26 1
     6    3   14 ar
     7    3    4 ar
     8    4    5 ar
     9    4   11 ar
    10    5    6 ar
    11    5    7 1
    12    6   27 1
    13    7    8 2
    14    7    9 2
    15    7   10 1
    16   10   28 1
    17   10   29 1
    18   11   12 ar
    19   11   22 1
    20   12   13 ar
    21   12   30 1
    22   13   20 1
    23   13   14 ar
    24   14   15 1
    25   15   16 2
    26   16   17 1
    27   16   18 1
    28   18   19 2
    29   18   20 am
    30   20   21 1
    31   22   23 2
    32   22   24 1
@<TRIPOS>MOLECULE
ZINC08585017
   30    32     0     0     0
SMALL
USER_CHARGES

@<TRIPOS>ATOM
      1 C1          0.2456    1.3834    0.6714 C.ar      1 <0>        -0.1313
      2 C2          1.3577    2.1012    0.3447 C.ar      1 <0>        -0.0563
      3 C3          2.5384    1.4313   -0.0062 C.ar      1 <0>        -0.0329
      4 C4          2.5597    0.0160   -0.0166 C.ar      1 <0>         0.0376
      5 C5          1.3970   -0.6903    0.3261 C.ar      1 <0>        -0.6495
      6 C6          0.2655   -0.0079    0.6614 C.ar      1 <0>        -0.0272
      7 S1          1.3984   -2.4523    0.3206 S.o2      1 <0>         2.6599
      8 O1          1.2733   -2.8543   -1.0366 O.2       1 <0>        -0.9123
      9 O2          2.4863   -2.8602    1.1387 O.2       1 <0>        -0.9464
     10 N1          0.0171   -2.9454    1.0895 N.pl3     1 <0>        -1.2511
     11 C7          3.7448   -0.6631   -0.3704 C.ar      1 <0>        -0.0537
     12 C8          4.8595    0.0289   -0.6994 C.ar      1 <0>         0.0031
     13 C9          4.8669    1.4424   -0.6970 C.ar      1 <0>         0.1698
     14 C10         3.7083    2.1457   -0.3510 C.ar      1 <0>         0.0654
     15 N2          3.7054    3.5214   -0.3466 N.am      1 <0>        -0.6172
     16 H1          2.9024    4.0100   -0.1071 H         1 <0>         0.4012
     17 C11         4.8349    4.1831   -0.6796 C.2       1 <0>         0.4746
     18 O3          4.8602    5.4008   -0.6836 O.2       1 <0>        -0.5142
     19 C12         6.0339    3.4096   -1.0369 C.2       1 <0>         0.4197
     20 O4          7.1791    4.0511   -1.3748 O.3       1 <0>        -0.6118
     21 N3          5.9939    2.1025   -1.0293 N.2       1 <0>        -0.5931
     22 N4          3.7686   -2.1433   -0.3812 N.pl3     1 <0>        -0.0254
     23 O5          4.3466   -2.7449    0.4938 O.2       1 <0>        -0.0281
     24 O6          3.2101   -2.7504   -1.2650 O.3       1 <0>        -0.1734
     25 H2         -0.6615    1.9014    0.9458 H         1 <0>         0.1381
     26 H3          1.3293    3.1807    0.3559 H         1 <0>         0.1345
     27 H4         -0.6278   -0.5549    0.9243 H         1 <0>         0.1324
     28 H5         -0.6050   -2.2879    1.4382 H         1 <0>         0.4093
     29 H6         -0.1699   -3.8918    1.1912 H         1 <0>         0.4219
     30 H7          5.7581   -0.5068   -0.9677 H         1 <0>         0.1561
@<TRIPOS>BOND
     1    1    6 ar
     2    1    2 ar
     3    1   25 1
     4    2    3 ar
     5    2   26 1
     6    3   14 ar
     7    3    4 ar
     8    4    5 ar
     9    4   11 ar
    10    5    6 ar
    11    5    7 1
    12    6   27 1
    13    7    8 2
    14    7    9 2
    15    7   10 1
    16   10   28 1
    17   10   29 1
    18   11   12 ar
    19   11   22 1
    20   12   13 ar
    21   12   30 1
    22   13   21 1
    23   13   14 ar
    24   14   15 1
    25   15   16 1
    26   15   17 am
    27   17   18 2
    28   17   19 1
    29   19   20 1
    30   19   21 2
    31   22   23 2
    32   22   24 1
@<TRIPOS>MOLECULE
ZINC00236276
   20    21     0     0     0
SMALL
USER_CHARGES
6-nitro-1,4-dihydroquinoxaline-2,3-dione
@<TRIPOS>ATOM
      1 C1         -0.0780    4.1604    0.0256 C.ar      1 <0>        -0.0407
      2 C2          1.1359    3.5040    0.0105 C.ar      1 <0>        -0.1191
      3 C3          1.1755    2.1144    0.0022 C.ar      1 <0>         0.1760
      4 C4         -0.0168    1.3878    0.0097 C.ar      1 <0>         0.1229
      5 C5         -1.2335    2.0601    0.0307 C.ar      1 <0>        -0.0559
      6 C6         -1.2603    3.4400    0.0326 C.ar      1 <0>        -0.0368
      7 N1         -2.5577    4.1523    0.0493 N.pl3     1 <0>         0.0285
      8 O1         -2.5838    5.3700    0.0569 O.2       1 <0>        -0.1500
      9 O2         -3.5991    3.5208    0.0555 O.3       1 <0>        -0.1550
     10 N2          0.0021   -0.0041    0.0020 N.am      1 <0>        -0.6469
     11 H1         -0.9429   -0.5670    0.0080 H         1 <0>         0.4574
     12 C7          1.1778   -0.6642   -0.0128 C.2       1 <0>         0.5105
     13 O3          1.1994   -1.8786   -0.0195 O.2       1 <0>        -0.4568
     14 C8          2.4515    0.1119   -0.0212 C.2       1 <0>         0.5103
     15 O4          3.5208   -0.4641   -0.0350 O.2       1 <0>        -0.4527
     16 N3          2.4038    1.4595   -0.0140 N.am      1 <0>        -0.6479
     17 H2          3.3373    2.0414   -0.0209 H         1 <0>         0.4579
     18 H3         -0.1058    5.2400    0.0324 H         1 <0>         0.1659
     19 H4          2.0556    4.0702    0.0055 H         1 <0>         0.1639
     20 H5         -2.1582    1.5023    0.0411 H         1 <0>         0.1684
@<TRIPOS>BOND
     1    1    6 ar
     2    1    2 ar
     3    1   18 1
     4    2    3 ar
     5    2   19 1
     6    3   16 1
     7    3    4 ar
     8    4    5 ar
     9    4   10 1
    10    5    6 ar
    11    5   20 1
    12    6    7 1
    13    7    8 2
    14    7    9 1
    15   10   11 1
    16   10   12 am
    17   12   13 2
    18   12   14 1
    19   14   15 2
    20   14   16 am
    21   16   17 1
@<TRIPOS>MOLECULE
ZINC24632618
   31    31     0     0     0
SMALL
USER_CHARGES

@<TRIPOS>ATOM
      1 C1          0.1871    1.5230    0.3906 C.3       1 <0>        -0.1511
      2 C2         -0.0351    0.0093    0.3781 C.3       1 <0>         0.0012
      3 C3          0.7595   -0.6322    1.5174 C.3       1 <0>        -0.1419
      4 C4         -1.5242   -0.2891    0.5637 C.3       1 <0>        -0.1392
      5 C5          0.4301   -0.5558   -0.9392 C.2       1 <0>         0.0805
      6 C6          1.6467   -0.3837   -1.4862 C.2       1 <0>        -0.3365
      7 C7          1.6753   -1.0741   -2.7176 C.2       1 <0>         0.3551
      8 N1          0.5080   -1.6369   -2.8903 N.2       1 <0>        -0.4444
      9 O1         -0.2958   -1.3231   -1.7673 O.3       1 <0>        -0.1209
     10 O2          2.7283   -1.1412   -3.5711 O.3       1 <0>        -0.7290
     11 C8          2.7812    0.4087   -0.8894 C.3       1 <0>        -0.0366
     12 C9          2.7788    1.8225   -1.4742 C.3       1 <0>        -0.0430
     13 H1          1.7969    2.2735   -1.3304 H         1 <0>         0.1229
     14 C10         3.8217    2.6567   -0.7759 C.2       1 <0>         0.4923
     15 O3          4.9600    2.6987   -1.2106 O.co2     1 <0>        -0.6743
     16 O4          3.5272    3.2895    0.2238 O.co2     1 <0>        -0.6505
     17 N2          3.0832    1.7592   -2.9099 N.4       1 <0>        -0.6032
     18 H2          1.2566    1.7332    0.3931 H         1 <0>         0.0801
     19 H3         -0.2679    1.9644   -0.4961 H         1 <0>         0.0538
     20 H4         -0.2692    1.9499    1.2838 H         1 <0>         0.0658
     21 H5          0.3552   -0.3008    2.4739 H         1 <0>         0.0652
     22 H6          0.6835   -1.7173    1.4473 H         1 <0>         0.0582
     23 H7          1.8057   -0.3356    1.4427 H         1 <0>         0.0654
     24 H8         -2.0903    0.1679   -0.2480 H         1 <0>         0.0587
     25 H9         -1.6825   -1.3676    0.5548 H         1 <0>         0.0603
     26 H10        -1.8607    0.1196    1.5165 H         1 <0>         0.0590
     27 H11         2.6572    0.4626    0.1921 H         1 <0>         0.0973
     28 H12         3.7275   -0.0794   -1.1228 H         1 <0>         0.0833
     29 H13         3.1789    2.6949   -3.2750 H         1 <0>         0.4138
     30 H14         3.9455    1.2541   -3.0489 H         1 <0>         0.4346
     31 H15         2.3342    1.2850   -3.3919 H         1 <0>         0.4228
@<TRIPOS>BOND
     1    1    2 1
     2    1   18 1
     3    1   19 1
     4    1   20 1
     5    2    3 1
     6    2    4 1
     7    2    5 1
     8    3   21 1
     9    3   22 1
    10    3   23 1
    11    4   24 1
    12    4   25 1
    13    4   26 1
    14    5    6 2
    15    5    9 1
    16    6    7 1
    17    6   11 1
    18    7    8 2
    19    7   10 1
    20    8    9 1
    21   11   12 1
    22   11   27 1
    23   11   28 1
    24   12   13 1
    25   12   14 1
    26   12   17 1
    27   14   15 2
    28   14   16 1
    29   17   29 1
    30   17   30 1
    31   17   31 1
@<TRIPOS>MOLECULE
ZINC00008815
   46    47     0     0     0
SMALL
USER_CHARGES

@<TRIPOS>ATOM
      1 C1         -0.5097    1.5074    0.7295 C.3       1 <0>        -0.1484
      2 C2         -0.4248   -0.0199    0.6955 C.3       1 <0>        -0.0594
      3 H1          0.2867   -0.3272   -0.0710 H         1 <0>         0.0898
      4 C3         -1.8034   -0.6003    0.3739 C.3       1 <0>         0.1243
      5 N1         -2.1963   -0.2037   -0.9806 N.pl3     1 <0>        -1.1180
      6 S1         -3.4584   -0.9669   -1.7335 S.o2      1 <0>         2.6105
      7 O1         -4.5292   -0.9023   -0.8016 O.2       1 <0>        -0.9540
      8 O2         -3.5617   -0.3326   -3.0009 O.2       1 <0>        -0.9534
      9 C4         -2.9101   -2.6841   -1.9372 C.3       1 <0>        -0.5940
     10 C5         -4.0085   -3.4911   -2.6322 C.3       1 <0>        -0.1443
     11 C6         -1.6384   -2.7160   -2.7872 C.3       1 <0>        -0.1384
     12 C7          0.0332   -0.5276    2.0385 C.ar      1 <0>        -0.0727
     13 C8         -0.7198   -0.2629    3.1684 C.ar      1 <0>        -0.1114
     14 C9         -0.3054   -0.7252    4.4008 C.ar      1 <0>        -0.1001
     15 C10         0.8742   -1.4607    4.5057 C.ar      1 <0>        -0.0568
     16 C11         1.6286   -1.7247    3.3636 C.ar      1 <0>        -0.1013
     17 C12         1.2018   -1.2613    2.1358 C.ar      1 <0>        -0.1113
     18 C13         1.3250   -1.9598    5.8272 C.ar      1 <0>        -0.0127
     19 C14         0.5647   -1.6982    6.9673 C.ar      1 <0>        -0.1134
     20 C15         0.9820   -2.1610    8.1947 C.ar      1 <0>        -0.0648
     21 C16         2.1677   -2.8935    8.2984 C.ar      1 <0>        -0.0294
     22 C17         2.9281   -3.1552    7.1553 C.ar      1 <0>        -0.0651
     23 C18         2.5060   -2.6954    5.9284 C.ar      1 <0>        -0.1138
     24 C19         2.6033   -3.3752    9.5747 C.1       1 <0>         0.2496
     25 N2          2.9489   -3.7572   10.5871 N.1       1 <0>        -0.4114
     26 H2          0.4725    1.9209    0.9586 H         1 <0>         0.0629
     27 H3         -0.8409    1.8746   -0.2419 H         1 <0>         0.0618
     28 H4         -1.2211    1.8148    1.4960 H         1 <0>         0.0629
     29 H5         -1.7635   -1.6877    0.4369 H         1 <0>         0.0718
     30 H6         -2.5331   -0.2214    1.0895 H         1 <0>         0.0776
     31 H7         -1.7172    0.5060   -1.4364 H         1 <0>         0.4192
     32 H8         -2.7042   -3.1181   -0.9588 H         1 <0>         0.1339
     33 H9         -4.2145   -3.0570   -3.6106 H         1 <0>         0.0733
     34 H10        -3.6791   -4.5229   -2.7545 H         1 <0>         0.0833
     35 H11        -4.9145   -3.4684   -2.0266 H         1 <0>         0.0726
     36 H12        -0.8837   -2.0716   -2.3363 H         1 <0>         0.0692
     37 H13        -1.2609   -3.7372   -2.8380 H         1 <0>         0.0773
     38 H14        -1.8647   -2.3618   -3.7930 H         1 <0>         0.0755
     39 H15        -1.6335    0.3070    3.0859 H         1 <0>         0.1283
     40 H16        -0.8937   -0.5174    5.2824 H         1 <0>         0.1292
     41 H17         2.5435   -2.2936    3.4390 H         1 <0>         0.1285
     42 H18         1.7833   -1.4687    1.2496 H         1 <0>         0.1264
     43 H19        -0.3515   -1.1321    6.8869 H         1 <0>         0.1375
     44 H20         0.3936   -1.9577    9.0773 H         1 <0>         0.1362
     45 H21         3.8448   -3.7209    7.2341 H         1 <0>         0.1360
     46 H22         3.0912   -2.9010    5.0444 H         1 <0>         0.1369
@<TRIPOS>BOND
     1    1    2 1
     2    1   26 1
     3    1   27 1
     4    1   28 1
     5    2    3 1
     6    2    4 1
     7    2   12 1
     8    4    5 1
     9    4   29 1
    10    4   30 1
    11    5    6 1
    12    5   31 1
    13    6    7 2
    14    6    8 2
    15    6    9 1
    16    9   10 1
    17    9   11 1
    18    9   32 1
    19   10   33 1
    20   10   34 1
    21   10   35 1
    22   11   36 1
    23   11   37 1
    24   11   38 1
    25   12   17 ar
    26   12   13 ar
    27   13   14 ar
    28   13   39 1
    29   14   15 ar
    30   14   40 1
    31   15   16 ar
    32   15   18 1
    33   16   17 ar
    34   16   41 1
    35   17   42 1
    36   18   23 ar
    37   18   19 ar
    38   19   20 ar
    39   19   43 1
    40   20   21 ar
    41   20   44 1
    42   21   22 ar
    43   21   24 1
    44   22   23 ar
    45   22   45 1
    46   23   46 1
    47   24   25 3
@<TRIPOS>MOLECULE
ZINC13473523
   46    47     0     0     0
SMALL
USER_CHARGES

@<TRIPOS>ATOM
      1 C1         -0.4859    0.7523    0.1603 C.3       1 <0>        -0.1491
      2 C2         -0.1862   -0.7387    0.3278 C.3       1 <0>        -0.0598
      3 H1          0.3144   -1.1113   -0.5658 H         1 <0>         0.0909
      4 C3          0.7205   -0.9432    1.5431 C.3       1 <0>         0.1254
      5 N1          2.0193   -0.3123    1.2951 N.pl3     1 <0>        -1.1177
      6 S1          3.0711   -0.0618    2.5494 S.o2      1 <0>         2.6103
      7 O1          3.1758   -1.3246    3.1925 O.2       1 <0>        -0.9540
      8 O2          4.2096    0.5438    1.9524 O.2       1 <0>        -0.9533
      9 C4          2.2293    1.1239    3.6339 C.3       1 <0>        -0.5937
     10 C5          3.1189    1.4327    4.8398 C.3       1 <0>        -0.1443
     11 C6          1.9522    2.4147    2.8607 C.3       1 <0>        -0.1397
     12 C7         -1.4762   -1.4906    0.5314 C.ar      1 <0>        -0.0711
     13 C8         -2.2901   -1.1839    1.6071 C.ar      1 <0>        -0.1133
     14 C9         -3.4726   -1.8691    1.7985 C.ar      1 <0>        -0.1005
     15 C10        -3.8465   -2.8717    0.9051 C.ar      1 <0>        -0.0569
     16 C11        -3.0226   -3.1761   -0.1774 C.ar      1 <0>        -0.1000
     17 C12        -1.8447   -2.4809   -0.3614 C.ar      1 <0>        -0.1099
     18 C13        -5.1156   -3.6119    1.1057 C.ar      1 <0>        -0.0125
     19 C14        -5.9403   -3.3009    2.1870 C.ar      1 <0>        -0.1137
     20 C15        -7.1187   -3.9873    2.3744 C.ar      1 <0>        -0.0650
     21 C16        -7.4891   -4.9957    1.4805 C.ar      1 <0>        -0.0294
     22 C17        -6.6622   -5.3058    0.3973 C.ar      1 <0>        -0.0648
     23 C18        -5.4866   -4.6146    0.2095 C.ar      1 <0>        -0.1135
     24 C19        -8.7145   -5.7108    1.6744 C.1       1 <0>         0.2496
     25 N2         -9.6866   -6.2781    1.8283 N.1       1 <0>        -0.4115
     26 H2          0.4472    1.2962    0.0131 H         1 <0>         0.0635
     27 H3         -1.1319    0.8980   -0.7055 H         1 <0>         0.0628
     28 H4         -0.9865    1.1249    1.0540 H         1 <0>         0.0604
     29 H5          0.2589   -0.4914    2.4211 H         1 <0>         0.0709
     30 H6          0.8619   -2.0102    1.7155 H         1 <0>         0.0777
     31 H7          2.2631   -0.0413    0.3962 H         1 <0>         0.4196
     32 H8          1.2872    0.6967    3.9774 H         1 <0>         0.1336
     33 H9          4.0611    1.8599    4.4963 H         1 <0>         0.0733
     34 H10         2.6131    2.1451    5.4915 H         1 <0>         0.0833
     35 H11         3.3164    0.5131    5.3906 H         1 <0>         0.0725
     36 H12         1.3913    2.1826    1.9554 H         1 <0>         0.0702
     37 H13         1.3709    3.0940    3.4842 H         1 <0>         0.0774
     38 H14         2.8970    2.8871    2.5917 H         1 <0>         0.0755
     39 H15        -1.9994   -0.4069    2.2986 H         1 <0>         0.1255
     40 H16        -4.1069   -1.6293    2.6391 H         1 <0>         0.1286
     41 H17        -3.3071   -3.9521   -0.8725 H         1 <0>         0.1290
     42 H18        -1.2076   -2.7131   -1.2020 H         1 <0>         0.1273
     43 H19        -5.6539   -2.5216    2.8777 H         1 <0>         0.1370
     44 H20        -7.7566   -3.7468    3.2121 H         1 <0>         0.1360
     45 H21        -6.9470   -6.0851   -0.2941 H         1 <0>         0.1361
     46 H22        -4.8495   -4.8512   -0.6297 H         1 <0>         0.1372
@<TRIPOS>BOND
     1    1    2 1
     2    1   26 1
     3    1   27 1
     4    1   28 1
     5    2    3 1
     6    2    4 1
     7    2   12 1
     8    4    5 1
     9    4   29 1
    10    4   30 1
    11    5    6 1
    12    5   31 1
    13    6    7 2
    14    6    8 2
    15    6    9 1
    16    9   10 1
    17    9   11 1
    18    9   32 1
    19   10   33 1
    20   10   34 1
    21   10   35 1
    22   11   36 1
    23   11   37 1
    24   11   38 1
    25   12   17 ar
    26   12   13 ar
    27   13   14 ar
    28   13   39 1
    29   14   15 ar
    30   14   40 1
    31   15   16 ar
    32   15   18 1
    33   16   17 ar
    34   16   41 1
    35   17   42 1
    36   18   23 ar
    37   18   19 ar
    38   19   20 ar
    39   19   43 1
    40   20   21 ar
    41   20   44 1
    42   21   22 ar
    43   21   24 1
    44   22   23 ar
    45   22   45 1
    46   23   46 1
    47   24   25 3
@<TRIPOS>MOLECULE
ZINC08662575
   20    21     0     0     0
SMALL
USER_CHARGES

@<TRIPOS>ATOM
      1 C1         -0.0167    1.3839    0.0097 C.ar      1 <0>        -0.0629
      2 C2          1.1833    2.0914    0.0020 C.ar      1 <0>        -0.0261
      3 C3          2.4047    1.4046   -0.0133 C.ar      1 <0>         0.0013
      4 C4          2.4314    0.0433   -0.0214 C.ar      1 <0>        -0.0577
      5 C5          1.2325   -0.6870   -0.0143 C.ar      1 <0>         0.2039
      6 C6          0.0021   -0.0041    0.0020 C.ar      1 <0>         0.0788
      7 N1         -1.1855   -0.7142    0.0091 N.am      1 <0>        -0.6292
      8 C7         -1.1422   -2.0644    0.0010 C.2       1 <0>         0.4776
      9 C8          0.1685   -2.7399   -0.0151 C.2       1 <0>         0.4271
     10 N2          1.2689   -2.0352   -0.0232 N.2       1 <0>        -0.5994
     11 O1          0.2319   -4.0926   -0.0230 O.3       1 <0>        -0.5986
     12 O2         -2.1711   -2.7145    0.0073 O.2       1 <0>        -0.5067
     13 N3          3.6750    2.1645   -0.0214 N.pl3     1 <0>         0.0371
     14 O3          4.7312    1.5764   -0.0346 O.2       1 <0>        -0.1516
     15 O4          3.6563    3.3733   -0.0147 O.3       1 <0>        -0.1710
     16 C9          1.1687    3.5233    0.0093 C.1       1 <0>         0.2573
     17 N4          1.1571    4.6592    0.0152 N.1       1 <0>        -0.4011
     18 H1         -0.9580    1.9132    0.0260 H         1 <0>         0.1477
     19 H2          3.3781   -0.4763   -0.0335 H         1 <0>         0.1666
     20 H3         -2.0367   -0.2493    0.0200 H         1 <0>         0.4071
@<TRIPOS>BOND
     1    1    6 ar
     2    1    2 ar
     3    1   18 1
     4    2    3 ar
     5    2   16 1
     6    3    4 ar
     7    3   13 1
     8    4    5 ar
     9    4   19 1
    10    5   10 1
    11    5    6 ar
    12    6    7 1
    13    7    8 am
    14    7   20 1
    15    8    9 1
    16    8   12 2
    17    9   10 2
    18    9   11 1
    19   13   14 2
    20   13   15 1
    21   16   17 3
