@<TRIPOS>MOLECULE
ZINC00336490
   18    19     0     0     0
SMALL
USER_CHARGES
6-chloroquinoxaline-2,3-diol
@<TRIPOS>ATOM
      1 C1          5.5378    3.5379   -1.1415 C.ar      1 <0>        -0.0893
      2 C2          4.9429    3.2511    0.0495 C.ar      1 <0>        -0.0637
      3 C3          3.6685    2.6617    0.0683 C.ar      1 <0>         0.0927
      4 C4          3.0189    2.3733   -1.1565 C.ar      1 <0>         0.1023
      5 C5          3.6617    2.6823   -2.3657 C.ar      1 <0>        -0.0728
      6 C6          4.8991    3.2538   -2.3471 C.ar      1 <0>        -0.0122
      7 Cl1         5.6897    3.6335   -3.8452 Cl        1 <0>        -0.0450
      8 N1          1.8020    1.8110   -1.1476 N.ar      1 <0>        -0.4291
      9 C7          1.2200    1.5311   -0.0014 C.ar      1 <0>         0.2952
     10 C8          1.8654    1.8236    1.2195 C.ar      1 <0>         0.2934
     11 N2          3.0619    2.3703    1.2276 N.ar      1 <0>        -0.4284
     12 O1          1.2499    1.5337    2.3925 O.3       1 <0>        -0.4610
     13 O2         -0.0110    0.9628    0.0073 O.3       1 <0>        -0.4608
     14 H1          6.5180    3.9912   -1.1519 H         1 <0>         0.1520
     15 H2          5.4497    3.4760    0.9763 H         1 <0>         0.1552
     16 H3          3.1778    2.4678   -3.3071 H         1 <0>         0.1553
     17 H4          1.4419    0.6477    2.7290 H         1 <0>         0.4079
     18 H5          0.0021   -0.0041    0.0020 H         1 <0>         0.4082
@<TRIPOS>BOND
     1    1    6 ar
     2    1    2 ar
     3    1   14 1
     4    2    3 ar
     5    2   15 1
     6    3   11 ar
     7    3    4 ar
     8    4    5 ar
     9    4    8 ar
    10    5    6 ar
    11    5   16 1
    12    6    7 1
    13    8    9 ar
    14    9   10 ar
    15    9   13 1
    16   10   11 ar
    17   10   12 1
    18   12   17 1
    19   13   18 1
@<TRIPOS>MOLECULE
ZINC15020542
   24    25     0     0     0
SMALL
USER_CHARGES

@<TRIPOS>ATOM
      1 C1         -0.0184    1.5028    0.0103 C.3       1 <0>        -0.1185
      2 C2          0.0021   -0.0041    0.0020 C.ar      1 <0>        -0.0696
      3 C3          0.0057   -0.6850   -1.1984 C.ar      1 <0>        -0.1160
      4 C4          0.0245   -2.0750   -1.2099 C.ar      1 <0>         0.1154
      5 C5          0.0393   -2.7770   -0.0030 C.ar      1 <0>         0.1154
      6 C6          0.0350   -2.0801    1.1999 C.ar      1 <0>        -0.1161
      7 C7          0.0229   -0.7001    1.1986 C.ar      1 <0>        -0.0696
      8 C8          0.0255    0.0520    2.5046 C.3       1 <0>        -0.1185
      9 N1          0.0577   -4.1689    0.0065 N.am      1 <0>        -0.6332
     10 C9          0.0620   -4.8530   -1.1556 C.2       1 <0>         0.5080
     11 C10         0.0467   -4.1031   -2.4449 C.2       1 <0>         0.5080
     12 N2          0.0280   -2.7549   -2.4246 N.am      1 <0>        -0.6332
     13 O1          0.0506   -4.7007   -3.5023 O.2       1 <0>        -0.4681
     14 O2          0.0784   -6.0675   -1.1526 O.2       1 <0>        -0.4681
     15 H1          1.0042    1.8801    0.0026 H         1 <0>         0.0758
     16 H2         -0.5455    1.8639   -0.8728 H         1 <0>         0.0701
     17 H3         -0.5286    1.8543    0.9071 H         1 <0>         0.0740
     18 H4         -0.0065   -0.1377   -2.1294 H         1 <0>         0.1395
     19 H5          0.0461   -2.6189    2.1359 H         1 <0>         0.1395
     20 H6         -1.0014    0.2196    2.8293 H         1 <0>         0.0758
     21 H7          0.5545   -0.5311    3.2585 H         1 <0>         0.0701
     22 H8          0.5254    1.0113    2.3704 H         1 <0>         0.0740
     23 H9          0.0170   -2.2581   -3.2577 H         1 <0>         0.4227
     24 H10         0.0679   -4.6474    0.8502 H         1 <0>         0.4227
@<TRIPOS>BOND
     1    1    2 1
     2    1   15 1
     3    1   16 1
     4    1   17 1
     5    2    7 ar
     6    2    3 ar
     7    3    4 ar
     8    3   18 1
     9    4   12 1
    10    4    5 ar
    11    5    6 ar
    12    5    9 1
    13    6    7 ar
    14    6   19 1
    15    7    8 1
    16    8   20 1
    17    8   21 1
    18    8   22 1
    19    9   10 am
    20    9   24 1
    21   10   11 1
    22   10   14 2
    23   11   12 am
    24   11   13 2
    25   12   23 1
@<TRIPOS>MOLECULE
ZINC12428297
   18    19     0     0     0
SMALL
USER_CHARGES

@<TRIPOS>ATOM
      1 C1         -0.0168    1.3862    0.0097 C.ar      1 <0>        -0.1045
      2 C2          1.1691    2.0939    0.0021 C.ar      1 <0>        -0.0139
      3 C3          2.3815    1.4234   -0.0130 C.ar      1 <0>        -0.0845
      4 C4          2.4122    0.0428   -0.0206 C.ar      1 <0>        -0.0327
      5 C5          1.2234   -0.6800   -0.0132 C.ar      1 <0>         0.1328
      6 C6          0.0021   -0.0041    0.0020 C.ar      1 <0>         0.1454
      7 N1         -1.1978   -0.7098    0.0096 N.am      1 <0>        -0.6311
      8 C7         -1.1895   -2.0582    0.0023 C.2       1 <0>         0.5117
      9 C8          0.1151   -2.7807   -0.0140 C.2       1 <0>         0.5110
     10 O1          0.1439   -3.9950   -0.0211 O.2       1 <0>        -0.4536
     11 N2          1.2625   -2.0722   -0.0210 N.am      1 <0>        -0.6332
     12 H1          2.1161   -2.5327   -0.0315 H         1 <0>         0.4259
     13 O2         -2.2340   -2.6781    0.0093 O.2       1 <0>        -0.4544
     14 Cl1         3.9346   -0.7911   -0.0401 Cl        1 <0>        -0.0290
     15 Cl2         1.1406    3.8296    0.0111 Cl        1 <0>        -0.0357
     16 H2         -0.9595    1.9129    0.0260 H         1 <0>         0.1584
     17 H3          3.3056    1.9824   -0.0192 H         1 <0>         0.1589
     18 H4         -2.0412   -0.2308    0.0205 H         1 <0>         0.4285
@<TRIPOS>BOND
     1    1    6 ar
     2    1    2 ar
     3    1   16 1
     4    2    3 ar
     5    2   15 1
     6    3    4 ar
     7    3   17 1
     8    4    5 ar
     9    4   14 1
    10    5   11 1
    11    5    6 ar
    12    6    7 1
    13    7    8 am
    14    7   18 1
    15    8    9 1
    16    8   13 2
    17    9   10 2
    18    9   11 am
    19   11   12 1
@<TRIPOS>MOLECULE
ZINC12428297
   17    18     0     0     0
SMALL
USER_CHARGES

@<TRIPOS>ATOM
      1 C1         -0.0168    1.3862    0.0097 C.ar      1 <0>        -0.1094
      2 C2          1.1683    2.0925    0.0021 C.ar      1 <0>        -0.0647
      3 C3          2.3861    1.4248   -0.0135 C.ar      1 <0>        -0.0944
      4 C4          2.4275    0.0495   -0.0218 C.ar      1 <0>        -0.0347
      5 C5          1.2320   -0.6859   -0.0139 C.ar      1 <0>         0.1832
      6 C6          0.0021   -0.0041    0.0020 C.ar      1 <0>         0.0626
      7 N1         -1.1839   -0.7152    0.0091 N.am      1 <0>        -0.6297
      8 C7         -1.1390   -2.0653    0.0010 C.2       1 <0>         0.4750
      9 C8          0.1705   -2.7392   -0.0151 C.2       1 <0>         0.4190
     10 O1          0.2347   -4.0928   -0.0239 O.3       1 <0>        -0.6202
     11 N2          1.2703   -2.0340   -0.0224 N.2       1 <0>        -0.5943
     12 O2         -2.1676   -2.7165    0.0073 O.2       1 <0>        -0.5221
     13 Cl1         3.9554   -0.7745   -0.0425 Cl        1 <0>        -0.0534
     14 Cl2         1.1372    3.8282    0.0118 Cl        1 <0>        -0.0836
     15 H1         -0.9593    1.9133    0.0260 H         1 <0>         0.1297
     16 H2          3.3070    1.9890   -0.0197 H         1 <0>         0.1353
     17 H3         -2.0357   -0.2512    0.0200 H         1 <0>         0.4016
@<TRIPOS>BOND
     1    1    6 ar
     2    1    2 ar
     3    1   15 1
     4    2    3 ar
     5    2   14 1
     6    3    4 ar
     7    3   16 1
     8    4    5 ar
     9    4   13 1
    10    5   11 1
    11    5    6 ar
    12    6    7 1
    13    7    8 am
    14    7   17 1
    15    8    9 1
    16    8   12 2
    17    9   10 1
    18    9   11 2
@<TRIPOS>MOLECULE
ZINC18182210
   18    19     0     0     0
SMALL
USER_CHARGES

@<TRIPOS>ATOM
      1 C1         -0.0166    1.3754    0.0096 C.ar      1 <0>        -0.1036
      2 C2          1.1701    2.0892    0.0021 C.ar      1 <0>        -0.1036
      3 C3          2.3799    1.4261   -0.0130 C.ar      1 <0>        -0.1181
      4 C4          2.4115    0.0358   -0.0208 C.ar      1 <0>         0.1158
      5 C5          1.2153   -0.6836   -0.0137 C.ar      1 <0>         0.1157
      6 C6          0.0021   -0.0041    0.0020 C.ar      1 <0>        -0.1181
      7 N1          1.2259   -2.0756   -0.0218 N.am      1 <0>        -0.6341
      8 C7          2.3977   -2.7428   -0.0357 C.2       1 <0>         0.5079
      9 C8          3.6759   -1.9741   -0.0428 C.2       1 <0>         0.5080
     10 N2          3.6359   -0.6262   -0.0361 N.am      1 <0>        -0.6341
     11 O1          4.7418   -2.5562   -0.0549 O.2       1 <0>        -0.4670
     12 O2          2.4122   -3.9573   -0.0420 O.2       1 <0>        -0.4670
     13 H1         -0.9602    1.9006    0.0260 H         1 <0>         0.1365
     14 H2          1.1485    3.1690    0.0078 H         1 <0>         0.1365
     15 H3          3.3028    1.9869   -0.0192 H         1 <0>         0.1394
     16 H4         -0.9259   -0.5565    0.0083 H         1 <0>         0.1394
     17 H5          4.4616   -0.1171   -0.0415 H         1 <0>         0.4232
     18 H6          0.3892   -2.5664   -0.0171 H         1 <0>         0.4232
@<TRIPOS>BOND
     1    1    6 ar
     2    1    2 ar
     3    1   13 1
     4    2    3 ar
     5    2   14 1
     6    3    4 ar
     7    3   15 1
     8    4   10 1
     9    4    5 ar
    10    5    6 ar
    11    5    7 1
    12    6   16 1
    13    7    8 am
    14    7   18 1
    15    8    9 1
    16    8   12 2
    17    9   10 am
    18    9   11 2
    19   10   17 1
@<TRIPOS>MOLECULE
ZINC18187630
   18    19     0     0     0
SMALL
USER_CHARGES

@<TRIPOS>ATOM
      1 C1         -0.0166    1.3763    0.0096 C.ar      1 <0>        -0.0987
      2 C2          1.1776    2.0888    0.0020 C.ar      1 <0>         0.1367
      3 C3          2.3933    1.4029   -0.0137 C.ar      1 <0>         0.1367
      4 C4          2.4012    0.0123   -0.0216 C.ar      1 <0>        -0.0987
      5 C5          1.2101   -0.6856   -0.0136 C.ar      1 <0>        -0.0201
      6 C6          0.0021   -0.0041    0.0020 C.ar      1 <0>        -0.0201
      7 Cl1        -1.4910   -0.8897    0.0120 Cl        1 <0>        -0.0282
      8 Cl2         1.2243   -2.4215   -0.0241 Cl        1 <0>        -0.0282
      9 N1          3.5991    2.0989   -0.0219 N.am      1 <0>        -0.6322
     10 H1          4.4387    1.6131   -0.0335 H         1 <0>         0.4272
     11 C7          3.6016    3.4473   -0.0143 C.2       1 <0>         0.5107
     12 O1          4.6511    4.0590   -0.0219 O.2       1 <0>        -0.4559
     13 C8          2.3028    4.1801    0.0029 C.2       1 <0>         0.5108
     14 O2          2.2837    5.3946    0.0095 O.2       1 <0>        -0.4559
     15 N2          1.1499    3.4808    0.0097 N.am      1 <0>        -0.6323
     16 H2          0.3000    3.9482    0.0203 H         1 <0>         0.4272
     17 H3         -0.9593    1.9031    0.0259 H         1 <0>         0.1605
     18 H4          3.3397   -0.5220   -0.0345 H         1 <0>         0.1605
@<TRIPOS>BOND
     1    1    6 ar
     2    1    2 ar
     3    1   17 1
     4    2   15 1
     5    2    3 ar
     6    3    4 ar
     7    3    9 1
     8    4    5 ar
     9    4   18 1
    10    5    6 ar
    11    5    8 1
    12    6    7 1
    13    9   10 1
    14    9   11 am
    15   11   12 2
    16   11   13 1
    17   13   14 2
    18   13   15 am
    19   15   16 1
@<TRIPOS>MOLECULE
ZINC18187630
   18    19     0     0     0
SMALL
USER_CHARGES

@<TRIPOS>ATOM
      1 C1         -0.0163    1.3496    0.0095 C.ar      1 <0>        -0.1720
      2 C2          1.2042    2.0706    0.0017 C.ar      1 <0>         0.3977
      3 N1          1.2018    3.3887    0.0092 N.am      1 <0>        -0.4834
      4 C3          2.3685    4.0638    0.0017 C.2       1 <0>         0.4770
      5 O1          2.3724    5.2780    0.0090 O.2       1 <0>        -0.2305
      6 C4          3.6585    3.3064   -0.0153 C.2       1 <0>         0.4771
      7 O2          4.7169    3.9015   -0.0219 O.2       1 <0>        -0.2305
      8 N2          3.6374    1.9587   -0.0227 N.am      1 <0>        -0.4835
      9 C5          2.4852    1.3184   -0.0146 C.ar      1 <0>         0.3977
     10 C6          2.4506   -0.0986   -0.0219 C.ar      1 <0>        -0.1721
     11 C7          1.2596   -0.7424   -0.0140 C.ar      1 <0>         0.1260
     12 C8          0.0021   -0.0041    0.0020 C.ar      1 <0>         0.1258
     13 Cl1        -1.4985   -0.8768    0.0122 Cl        1 <0>         0.1611
     14 Cl2         1.2289   -2.4781   -0.0229 Cl        1 <0>         0.1612
     15 H1         -0.9578    1.8784    0.0258 H         1 <0>         0.2402
     16 H2          3.3713   -0.6630   -0.0341 H         1 <0>         0.2402
     17 H3          0.3612    3.8725    0.0199 H         1 <0>         0.4840
     18 H4          4.4696    1.4604   -0.0338 H         1 <0>         0.4840
@<TRIPOS>BOND
     1    1   12 ar
     2    1    2 ar
     3    1   15 1
     4    2    9 ar
     5    2    3 2
     6    3    4 am
     7    3   17 1
     8    4    5 2
     9    4    6 1
    10    6    7 2
    11    6    8 am
    12    8    9 2
    13    8   18 1
    14    9   10 ar
    15   10   11 ar
    16   10   16 1
    17   11   12 ar
    18   11   14 1
    19   12   13 1
@<TRIPOS>MOLECULE
ZINC13761193
   21    22     0     0     0
SMALL
USER_CHARGES
6-chloro-7-methyl-1,4-dihydroquinoxaline-2,3-dione
@<TRIPOS>ATOM
      1 C1         -2.5619    3.8628    0.0464 C.3       1 <0>        -0.1224
      2 C2         -1.2424    3.1351    0.0299 C.ar      1 <0>        -0.0571
      3 C3         -0.0625    3.8508    0.0224 C.ar      1 <0>        -0.1089
      4 C4          1.1568    3.1830    0.0077 C.ar      1 <0>         0.1285
      5 C5          1.1819    1.7870    0.0004 C.ar      1 <0>         0.1239
      6 C6         -0.0126    1.0758    0.0080 C.ar      1 <0>        -0.1057
      7 C7         -1.2180    1.7498    0.0173 C.ar      1 <0>        -0.0270
      8 Cl1        -2.7076    0.8583    0.0196 Cl        1 <0>        -0.0479
      9 N1          2.3928    1.1006   -0.0149 N.am      1 <0>        -0.6326
     10 H1          2.3997    0.1306   -0.0205 H         1 <0>         0.4250
     11 C8          3.5564    1.7821   -0.0223 C.2       1 <0>         0.5096
     12 O1          4.6154    1.1876   -0.0360 O.2       1 <0>        -0.4620
     13 C9          3.5298    3.2733   -0.0140 C.2       1 <0>         0.5093
     14 O2          4.5670    3.9054   -0.0201 O.2       1 <0>        -0.4617
     15 N2          2.3426    3.9127    0.0007 N.am      1 <0>        -0.6333
     16 H2          2.3147    4.8823    0.0066 H         1 <0>         0.4250
     17 H3         -2.8899    4.0438   -0.9772 H         1 <0>         0.0819
     18 H4         -3.3049    3.2562    0.5641 H         1 <0>         0.0787
     19 H5         -2.4454    4.8148    0.5642 H         1 <0>         0.0760
     20 H6         -0.0863    4.9306    0.0284 H         1 <0>         0.1498
     21 H7          0.0021   -0.0041    0.0020 H         1 <0>         0.1508
@<TRIPOS>BOND
     1    1    2 1
     2    1   17 1
     3    1   18 1
     4    1   19 1
     5    2    7 ar
     6    2    3 ar
     7    3    4 ar
     8    3   20 1
     9    4   15 1
    10    4    5 ar
    11    5    6 ar
    12    5    9 1
    13    6    7 ar
    14    6   21 1
    15    7    8 1
    16    9   10 1
    17    9   11 am
    18   11   12 2
    19   11   13 1
    20   13   14 2
    21   13   15 am
    22   15   16 1
@<TRIPOS>MOLECULE
ZINC12410487
   24    25     0     0     0
SMALL
USER_CHARGES

@<TRIPOS>ATOM
      1 C1         -0.0184    1.5028    0.0103 C.3       1 <0>        -0.1167
      2 C2          0.0021   -0.0041    0.0020 C.ar      1 <0>        -0.0637
      3 C3          0.0057   -0.6873   -1.2026 C.ar      1 <0>        -0.1072
      4 C4          0.0243   -2.0668   -1.2191 C.ar      1 <0>        -0.0781
      5 C5          0.0396   -2.7770   -0.0235 C.ar      1 <0>         0.1076
      6 C6          0.0355   -2.0883    1.1906 C.ar      1 <0>         0.1266
      7 C7          0.0228   -0.6977    1.1945 C.ar      1 <0>        -0.1267
      8 N1          0.0507   -2.7811    2.3979 N.am      1 <0>        -0.6336
      9 C8          0.0694   -4.1295    2.4036 C.2       1 <0>         0.5082
     10 C9          0.0738   -4.8654    1.1062 C.2       1 <0>         0.5075
     11 N2          0.0584   -4.1687   -0.0483 N.am      1 <0>        -0.6326
     12 O1          0.0910   -6.0797    1.0898 O.2       1 <0>        -0.4684
     13 O2          0.0831   -4.7384    3.4544 O.2       1 <0>        -0.4673
     14 C10         0.0277   -2.8043   -2.5333 C.3       1 <0>        -0.1203
     15 H1          1.0042    1.8801    0.0026 H         1 <0>         0.0759
     16 H2         -0.5455    1.8639   -0.8728 H         1 <0>         0.0718
     17 H3         -0.5286    1.8543    0.9071 H         1 <0>         0.0702
     18 H4         -0.0065   -0.1383   -2.1325 H         1 <0>         0.1359
     19 H5          0.0247   -0.1605    2.1314 H         1 <0>         0.1389
     20 H6          1.0560   -2.9681   -2.8553 H         1 <0>         0.0806
     21 H7         -0.4725   -3.7651   -2.4120 H         1 <0>         0.0650
     22 H8         -0.4981   -2.2131   -3.2830 H         1 <0>         0.0817
     23 H9          0.0480   -2.2933    3.2363 H         1 <0>         0.4230
     24 H10         0.0608   -4.6380   -0.8972 H         1 <0>         0.4215
@<TRIPOS>BOND
     1    1    2 1
     2    1   15 1
     3    1   16 1
     4    1   17 1
     5    2    7 ar
     6    2    3 ar
     7    3    4 ar
     8    3   18 1
     9    4    5 ar
    10    4   14 1
    11    5   11 1
    12    5    6 ar
    13    6    7 ar
    14    6    8 1
    15    7   19 1
    16    8    9 am
    17    8   23 1
    18    9   10 1
    19    9   13 2
    20   10   11 am
    21   10   12 2
    22   11   24 1
    23   14   20 1
    24   14   21 1
    25   14   22 1
@<TRIPOS>MOLECULE
ZINC17014699
   20    21     0     0     0
SMALL
USER_CHARGES

@<TRIPOS>ATOM
      1 C1         -0.0166    1.3746    0.0096 C.ar      1 <0>        -0.1514
      2 C2          1.1730    2.0868    0.0021 C.ar      1 <0>        -0.0461
      3 C3          2.3871    1.4329   -0.0113 C.ar      1 <0>        -0.1644
      4 C4          2.4310    0.0417   -0.0176 C.ar      1 <0>         0.2091
      5 C5          1.2232   -0.6755   -0.0135 C.ar      1 <0>        -0.2013
      6 C6          0.0021   -0.0041    0.0020 C.ar      1 <0>        -0.0195
      7 C7          1.2775   -2.1549   -0.0307 C.2       1 <0>         0.4660
      8 O1          0.3572   -2.8494    0.3560 O.2       1 <0>        -0.4003
      9 C8          2.5541   -2.7284   -0.5609 C.2       1 <0>         0.0217
     10 N1          2.5930   -3.8522   -1.2215 N.2       1 <0>        -0.1917
     11 O2          3.8292   -4.3492   -1.7009 O.3       1 <0>        -0.3497
     12 C9          3.7767   -1.9256   -0.2817 C.2       1 <0>         0.5450
     13 O3          4.8727   -2.4516   -0.2851 O.2       1 <0>        -0.4687
     14 N2          3.6529   -0.6097   -0.0264 N.am      1 <0>        -0.6497
     15 H1         -0.9597    1.9007    0.0259 H         1 <0>         0.1392
     16 H2          1.1486    3.1665    0.0063 H         1 <0>         0.1387
     17 H3          3.3054    2.0012   -0.0172 H         1 <0>         0.1404
     18 H4         -0.9238   -0.5601    0.0077 H         1 <0>         0.1446
     19 H5          3.7577   -5.1872   -2.1781 H         1 <0>         0.4165
     20 H6          4.4542   -0.0957    0.1596 H         1 <0>         0.4214
@<TRIPOS>BOND
     1    1    6 ar
     2    1    2 ar
     3    1   15 1
     4    2    3 ar
     5    2   16 1
     6    3    4 ar
     7    3   17 1
     8    4   14 1
     9    4    5 ar
    10    5    6 ar
    11    5    7 1
    12    6   18 1
    13    7    8 2
    14    7    9 1
    15    9   10 2
    16    9   12 1
    17   10   11 1
    18   11   19 1
    19   12   13 2
    20   12   14 am
    21   14   20 1
@<TRIPOS>MOLECULE
ZINC17014699
   19    20     0     0     0
SMALL
USER_CHARGES

@<TRIPOS>ATOM
      1 C1         -0.0166    1.3748    0.0096 C.ar      1 <0>        -0.2123
      2 C2          1.1722    2.0909    0.0021 C.ar      1 <0>        -0.0599
      3 C3          2.3876    1.4447   -0.0111 C.ar      1 <0>        -0.1696
      4 C4          2.4367    0.0449   -0.0168 C.ar      1 <0>         0.2610
      5 C5          1.2223   -0.6749   -0.0130 C.ar      1 <0>        -0.2903
      6 C6          0.0021   -0.0041    0.0020 C.ar      1 <0>        -0.0215
      7 C7          1.2851   -2.1517   -0.0304 C.2       1 <0>         0.4211
      8 O1          0.3655   -2.8576    0.3391 O.2       1 <0>        -0.4462
      9 C8          2.5799   -2.7028   -0.5434 C.2       1 <0>         0.0316
     10 N1          2.6519   -3.8349   -1.1918 N.2       1 <0>        -0.2245
     11 O2          1.4778   -4.5891   -1.4321 O.3       1 <0>        -0.3997
     12 C9          3.7750   -1.8689   -0.2622 C.2       1 <0>         0.5079
     13 O3          5.0063   -2.4280   -0.2521 O.3       1 <0>        -0.6243
     14 N2          3.6318   -0.5916   -0.0243 N.2       1 <0>        -0.6420
     15 H1         -0.9604    1.8997    0.0260 H         1 <0>         0.1135
     16 H2          1.1433    3.1705    0.0063 H         1 <0>         0.1152
     17 H3          3.3035    2.0171   -0.0166 H         1 <0>         0.1253
     18 H4         -0.9237   -0.5601    0.0084 H         1 <0>         0.1155
     19 H5          1.6308   -5.4108   -1.9184 H         1 <0>         0.3993
@<TRIPOS>BOND
     1    1    6 ar
     2    1    2 ar
     3    1   15 1
     4    2    3 ar
     5    2   16 1
     6    3    4 ar
     7    3   17 1
     8    4   14 1
     9    4    5 ar
    10    5    6 ar
    11    5    7 1
    12    6   18 1
    13    7    8 2
    14    7    9 1
    15    9   10 2
    16    9   12 1
    17   10   11 1
    18   11   19 1
    19   12   13 1
    20   12   14 2
@<TRIPOS>MOLECULE
ZINC17014699
   19    20     0     0     0
SMALL
USER_CHARGES

@<TRIPOS>ATOM
      1 C1         -0.0166    1.3748    0.0096 C.ar      1 <0>        -0.2151
      2 C2          1.1722    2.0909    0.0021 C.ar      1 <0>        -0.0580
      3 C3          2.3876    1.4447   -0.0111 C.ar      1 <0>        -0.1718
      4 C4          2.4367    0.0449   -0.0168 C.ar      1 <0>         0.2672
      5 C5          1.2223   -0.6749   -0.0130 C.ar      1 <0>        -0.2905
      6 C6          0.0021   -0.0041    0.0020 C.ar      1 <0>        -0.0175
      7 C7          1.2851   -2.1517   -0.0304 C.2       1 <0>         0.4714
      8 O1          0.3655   -2.8576    0.3391 O.2       1 <0>        -0.4521
      9 C8          2.5799   -2.7028   -0.5434 C.2       1 <0>         0.0192
     10 N1          2.6519   -3.8349   -1.1918 N.2       1 <0>        -0.2461
     11 O2          3.9041   -4.3076   -1.6541 O.3       1 <0>        -0.3584
     12 C9          3.7750   -1.8689   -0.2622 C.2       1 <0>         0.4660
     13 O3          5.0063   -2.4280   -0.2521 O.3       1 <0>        -0.6178
     14 N2          3.6318   -0.5916   -0.0243 N.2       1 <0>        -0.6560
     15 H1         -0.9604    1.8997    0.0260 H         1 <0>         0.1140
     16 H2          1.1433    3.1705    0.0063 H         1 <0>         0.1146
     17 H3          3.3035    2.0171   -0.0166 H         1 <0>         0.1240
     18 H4         -0.9237   -0.5601    0.0084 H         1 <0>         0.1173
     19 H5          3.8571   -5.1525   -2.1221 H         1 <0>         0.3896
@<TRIPOS>BOND
     1    1    6 ar
     2    1    2 ar
     3    1   15 1
     4    2    3 ar
     5    2   16 1
     6    3    4 ar
     7    3   17 1
     8    4   14 1
     9    4    5 ar
    10    5    6 ar
    11    5    7 1
    12    6   18 1
    13    7    8 2
    14    7    9 1
    15    9   10 2
    16    9   12 1
    17   10   11 1
    18   11   19 1
    19   12   13 1
    20   12   14 2
@<TRIPOS>MOLECULE
ZINC17014699
   19    20     0     0     0
SMALL
USER_CHARGES

@<TRIPOS>ATOM
      1 C1         -0.0166    1.3746    0.0096 C.ar      1 <0>        -0.1660
      2 C2          1.1730    2.0868    0.0021 C.ar      1 <0>        -0.0695
      3 C3          2.3871    1.4329   -0.0113 C.ar      1 <0>        -0.1783
      4 C4          2.4310    0.0417   -0.0176 C.ar      1 <0>         0.2138
      5 C5          1.2232   -0.6755   -0.0135 C.ar      1 <0>        -0.1895
      6 C6          0.0021   -0.0041    0.0020 C.ar      1 <0>        -0.0352
      7 C7          1.2775   -2.1549   -0.0307 C.2       1 <0>         0.4243
      8 O1          0.3569   -2.8494    0.3553 O.2       1 <0>        -0.4387
      9 C8          2.5541   -2.7284   -0.5609 C.2       1 <0>        -0.2007
     10 N1          2.5930   -3.8522   -1.2215 N.2       1 <0>        -0.2038
     11 O2          1.3990   -4.5753   -1.4593 O.3       1 <0>        -0.4841
     12 C9          3.7767   -1.9256   -0.2817 C.2       1 <0>         0.5908
     13 O3          4.8727   -2.4516   -0.2851 O.2       1 <0>        -0.5242
     14 N2          3.6529   -0.6097   -0.0264 N.am      1 <0>        -0.6596
     15 H1         -0.9597    1.9007    0.0259 H         1 <0>         0.1259
     16 H2          1.1486    3.1665    0.0063 H         1 <0>         0.1257
     17 H3          3.3054    2.0012   -0.0172 H         1 <0>         0.1288
     18 H4         -0.9238   -0.5601    0.0077 H         1 <0>         0.1343
     19 H5          4.4542   -0.0957    0.1596 H         1 <0>         0.4058
@<TRIPOS>BOND
     1    1    6 ar
     2    1    2 ar
     3    1   15 1
     4    2    3 ar
     5    2   16 1
     6    3    4 ar
     7    3   17 1
     8    4   14 1
     9    4    5 ar
    10    5    6 ar
    11    5    7 1
    12    6   18 1
    13    7    8 2
    14    7    9 1
    15    9   10 2
    16    9   12 1
    17   10   11 1
    18   12   13 2
    19   12   14 am
    20   14   19 1
@<TRIPOS>MOLECULE
ZINC17014699
   19    20     0     0     0
SMALL
USER_CHARGES
(3Z)-3-hydroxyimino-1H-quinoline-2,4-dione
@<TRIPOS>ATOM
      1 C1         -0.0167    1.3824    0.0096 C.ar      1 <0>        -0.1752
      2 C2          0.0021   -0.0041    0.0020 C.ar      1 <0>        -0.0626
      3 C3          1.1962   -0.6937   -0.0153 C.ar      1 <0>        -0.1851
      4 C4          2.4030   -0.0003   -0.0247 C.ar      1 <0>         0.2359
      5 C5          2.3790    1.4042   -0.0130 C.ar      1 <0>        -0.2002
      6 C6          1.1662    2.0906    0.0022 C.ar      1 <0>        -0.0294
      7 C7          3.6665    2.1350   -0.0148 C.2       1 <0>         0.4619
      8 O1          3.7659    3.2874   -0.3903 O.2       1 <0>        -0.4661
      9 C8          4.8359    1.3443    0.4823 C.2       1 <0>        -0.2009
     10 N1          5.8267    1.8944    1.1277 N.2       1 <0>        -0.2087
     11 O2          6.9087    1.0985    1.5758 O.3       1 <0>        -0.4777
     12 C9          4.7890   -0.1146    0.1879 C.2       1 <0>         0.5494
     13 O3          5.8120   -0.7707    0.1623 O.2       1 <0>        -0.4947
     14 N2          3.5990   -0.6978   -0.0489 N.am      1 <0>        -0.6793
     15 H1         -0.9599    1.9085    0.0170 H         1 <0>         0.1254
     16 H2         -0.9295   -0.5504    0.0094 H         1 <0>         0.1249
     17 H3          1.1949   -1.7736   -0.0219 H         1 <0>         0.1287
     18 H4          1.1531    3.1705    0.0084 H         1 <0>         0.1333
     19 H5          3.6028   -1.7756   -0.2687 H         1 <0>         0.4203
@<TRIPOS>BOND
     1    1    6 ar
     2    1    2 ar
     3    1   15 1
     4    2    3 ar
     5    2   16 1
     6    3    4 ar
     7    3   17 1
     8    4   14 1
     9    4    5 ar
    10    5    6 ar
    11    5    7 1
    12    6   18 1
    13    7    8 2
    14    7    9 1
    15    9   10 2
    16    9   12 1
    17   10   11 1
    18   12   13 2
    19   12   14 am
    20   14   19 1
