@<TRIPOS>MOLECULE
ZINC18118278
   22    23     0     0     0
SMALL
USER_CHARGES

@<TRIPOS>ATOM
      1 C1          0.0496    1.1063    0.6344 C.ar      1 <0>        -0.0815
      2 C2          0.8293    1.9861   -0.1610 C.ar      1 <0>         0.4075
      3 N1          0.4596    3.2355   -0.3488 N.am      1 <0>        -0.4279
      4 C3          1.2172    4.0533   -1.1085 C.2       1 <0>         0.4679
      5 O1          0.8827    5.2069   -1.2858 O.2       1 <0>        -0.1860
      6 C4          2.4726    3.5290   -1.7307 C.2       1 <0>         0.4680
      7 O2          3.1640    4.2540   -2.4164 O.2       1 <0>        -0.1859
      8 N2          2.8311    2.2450   -1.5240 N.am      1 <0>        -0.4280
      9 C5          2.0762    1.4654   -0.7789 C.ar      1 <0>         0.4074
     10 C6          2.4324    0.1113   -0.5464 C.ar      1 <0>        -0.0816
     11 C7          1.6375   -0.6655    0.2237 C.ar      1 <0>         0.1372
     12 C8          0.4549   -0.1716    0.8097 C.ar      1 <0>         0.1371
     13 N3         -0.3677   -1.0785    1.6416 N.pl3     1 <0>        -0.0219
     14 O3         -1.5741   -1.0221    1.5858 O.2       1 <0>        -0.0173
     15 O4          0.1668   -1.8755    2.3769 O.3       1 <0>        -0.0340
     16 N4          2.0208   -2.0759    0.4581 N.pl3     1 <0>        -0.0219
     17 O5          3.1825   -2.3672    0.6234 O.2       1 <0>        -0.0173
     18 O6          1.1722   -2.9366    0.4842 O.3       1 <0>        -0.0339
     19 H1         -0.8595    1.4568    1.1003 H         1 <0>         0.2615
     20 H2          3.3326   -0.2963   -0.9822 H         1 <0>         0.2615
     21 H3         -0.3561    3.5673    0.0580 H         1 <0>         0.4946
     22 H4          3.6434    1.8969   -1.9239 H         1 <0>         0.4946
@<TRIPOS>BOND
     1    1   12 ar
     2    1    2 ar
     3    1   19 1
     4    2    9 ar
     5    2    3 2
     6    3    4 am
     7    3   21 1
     8    4    5 2
     9    4    6 1
    10    6    7 2
    11    6    8 am
    12    8    9 2
    13    8   22 1
    14    9   10 ar
    15   10   11 ar
    16   10   20 1
    17   11   12 ar
    18   11   16 1
    19   12   13 1
    20   13   14 2
    21   13   15 1
    22   16   17 2
    23   16   18 1
@<TRIPOS>MOLECULE
ZINC18118278
   21    22     0     0     0
SMALL
USER_CHARGES

@<TRIPOS>ATOM
      1 C1          0.0417    1.2522    0.5309 C.ar      1 <0>        -0.0473
      2 C2          0.8780    2.0146   -0.2789 C.ar      1 <0>         0.0748
      3 C3          2.0479    1.4409   -0.8068 C.ar      1 <0>         0.2260
      4 C4          2.3544    0.1053   -0.5080 C.ar      1 <0>        -0.0622
      5 C5          1.5202   -0.6244    0.2883 C.ar      1 <0>         0.0219
      6 C6          0.3650   -0.0580    0.8097 C.ar      1 <0>        -0.0602
      7 N1         -0.5259   -0.8673    1.6712 N.pl3     1 <0>         0.0426
      8 O1         -1.7257   -0.7484    1.5809 O.2       1 <0>        -0.1529
      9 O2         -0.0539   -1.6473    2.4653 O.3       1 <0>        -0.1493
     10 N2          1.8502   -2.0336    0.5987 N.pl3     1 <0>         0.0304
     11 O3          2.9984   -2.3560    0.7971 O.2       1 <0>        -0.1355
     12 O4          0.9715   -2.8622    0.6539 O.3       1 <0>        -0.1417
     13 N3          2.8727    2.1624   -1.5937 N.2       1 <0>        -0.5947
     14 C7          2.6068    3.4079   -1.8848 C.2       1 <0>         0.4324
     15 O5          3.4503    4.1124   -2.6771 O.3       1 <0>        -0.5802
     16 C8          1.3904    4.0475   -1.3530 C.2       1 <0>         0.4795
     17 O6          1.1361    5.2074   -1.6209 O.2       1 <0>        -0.4979
     18 N4          0.5617    3.3300   -0.5634 N.am      1 <0>        -0.6270
     19 H1         -0.2442    3.7314   -0.2024 H         1 <0>         0.4104
     20 H2         -0.8563    1.6877    0.9435 H         1 <0>         0.1592
     21 H3          3.2502   -0.3457   -0.9085 H         1 <0>         0.1717
@<TRIPOS>BOND
     1    1    6 ar
     2    1    2 ar
     3    1   20 1
     4    2   18 1
     5    2    3 ar
     6    3    4 ar
     7    3   13 1
     8    4    5 ar
     9    4   21 1
    10    5    6 ar
    11    5   10 1
    12    6    7 1
    13    7    8 2
    14    7    9 1
    15   10   11 2
    16   10   12 1
    17   13   14 2
    18   14   15 1
    19   14   16 1
    20   16   17 2
    21   16   18 am
    22   18   19 1
@<TRIPOS>MOLECULE
ZINC18118278
   22    23     0     0     0
SMALL
USER_CHARGES

@<TRIPOS>ATOM
      1 C1          0.0382    1.2610    0.5152 C.ar      1 <0>        -0.0552
      2 C2          0.8758    2.0183   -0.2964 C.ar      1 <0>         0.1719
      3 C3          2.0393    1.4471   -0.8145 C.ar      1 <0>         0.1720
      4 C4          2.3510    0.1254   -0.5146 C.ar      1 <0>        -0.0553
      5 C5          1.5125   -0.6159    0.2921 C.ar      1 <0>         0.0166
      6 C6          0.3581   -0.0491    0.8060 C.ar      1 <0>         0.0165
      7 N1         -0.5357   -0.8520    1.6707 N.pl3     1 <0>         0.0206
      8 O1         -1.7351   -0.7324    1.5766 O.2       1 <0>        -0.1120
      9 O2         -0.0664   -1.6272    2.4709 O.3       1 <0>        -0.1151
     10 N2          1.8476   -2.0224    0.6091 N.pl3     1 <0>         0.0206
     11 O3          2.9970   -2.3396    0.8090 O.2       1 <0>        -0.1120
     12 O4          0.9720   -2.8539    0.6680 O.3       1 <0>        -0.1151
     13 N3          2.8903    2.1887   -1.6291 N.am      1 <0>        -0.6303
     14 C7          2.5958    3.4709   -1.9250 C.2       1 <0>         0.5137
     15 C8          1.3528    4.0814   -1.3711 C.2       1 <0>         0.5137
     16 N4          0.5461    3.3396   -0.5854 N.am      1 <0>        -0.6303
     17 O5          1.0696    5.2348   -1.6257 O.2       1 <0>        -0.4318
     18 O6          3.3354    4.1221   -2.6351 O.2       1 <0>        -0.4318
     19 H1         -0.8610    1.7001    0.9216 H         1 <0>         0.1865
     20 H2          3.2498   -0.3211   -0.9137 H         1 <0>         0.1866
     21 H3          3.6965    1.7826   -1.9842 H         1 <0>         0.4351
     22 H4         -0.2650    3.7271   -0.2210 H         1 <0>         0.4351
@<TRIPOS>BOND
     1    1    6 ar
     2    1    2 ar
     3    1   19 1
     4    2   16 1
     5    2    3 ar
     6    3    4 ar
     7    3   13 1
     8    4    5 ar
     9    4   20 1
    10    5    6 ar
    11    5   10 1
    12    6    7 1
    13    7    8 2
    14    7    9 1
    15   10   11 2
    16   10   12 1
    17   13   14 am
    18   13   21 1
    19   14   15 1
    20   14   18 2
    21   15   16 am
    22   15   17 2
    23   16   22 1
@<TRIPOS>MOLECULE
ZINC14951272
   26    28     0     0     0
SMALL
USER_CHARGES

@<TRIPOS>ATOM
      1 C1         -0.0425    0.5463   -0.5268 C.2       1 <0>        -0.0251
      2 C2          1.2091    0.3392   -0.9779 C.2       1 <0>        -0.0516
      3 N1          2.0613    0.7198    0.0267 N.pl3     1 <0>        -0.4127
      4 C3          1.2915    1.1481    1.0610 C.2       1 <0>         0.2332
      5 N2          0.0370    1.0395    0.7180 N.2       1 <0>        -0.4915
      6 C4          3.4606    0.6754   -0.0071 C.ar      1 <0>         0.1187
      7 C5          4.1483    1.3667   -0.9903 C.ar      1 <0>        -0.1065
      8 C6          5.5365    1.3226   -1.0230 C.ar      1 <0>         0.0977
      9 C7          6.2341    0.5752   -0.0560 C.ar      1 <0>         0.1863
     10 C8          5.5167   -0.1173    0.9310 C.ar      1 <0>        -0.0500
     11 C9          4.1546   -0.0598    0.9528 C.ar      1 <0>        -0.0329
     12 N3          3.4061   -0.7891    2.0011 N.pl3     1 <0>         0.0380
     13 O1          4.0014   -1.3281    2.9048 O.2       1 <0>        -0.1603
     14 O2          2.1993   -0.8457    1.9536 O.3       1 <0>        -0.1597
     15 N4          7.5814    0.5210   -0.0713 N.2       1 <0>        -0.5990
     16 C10         8.2711    1.1575   -0.9804 C.2       1 <0>         0.4239
     17 O3          9.6246    1.0871   -0.9750 O.3       1 <0>        -0.6032
     18 C11         7.5808    1.9508   -2.0111 C.2       1 <0>         0.4780
     19 O4          8.2180    2.5461   -2.8607 O.2       1 <0>        -0.5055
     20 N5          6.2312    2.0102   -2.0011 N.am      1 <0>        -0.6289
     21 H1          5.7564    2.5270   -2.6707 H         1 <0>         0.4062
     22 H2         -0.9531    0.3530   -1.0745 H         1 <0>         0.1689
     23 H3          1.4883   -0.0519   -1.9451 H         1 <0>         0.1709
     24 H4          1.6565    1.5167    2.0083 H         1 <0>         0.1937
     25 H5          3.6070    1.9381   -1.7299 H         1 <0>         0.1453
     26 H6          6.0442   -0.6933    1.6769 H         1 <0>         0.1660
@<TRIPOS>BOND
     1    1    5 1
     2    1    2 2
     3    1   22 1
     4    2    3 1
     5    2   23 1
     6    3    4 1
     7    3    6 1
     8    4    5 2
     9    4   24 1
    10    6   11 ar
    11    6    7 ar
    12    7    8 ar
    13    7   25 1
    14    8   20 1
    15    8    9 ar
    16    9   10 ar
    17    9   15 1
    18   10   11 ar
    19   10   26 1
    20   11   12 1
    21   12   13 2
    22   12   14 1
    23   15   16 2
    24   16   17 1
    25   16   18 1
    26   18   19 2
    27   18   20 am
    28   20   21 1
@<TRIPOS>MOLECULE
ZINC14951272
   26    28     0     0     0
SMALL
USER_CHARGES

@<TRIPOS>ATOM
      1 C1          0.0021    1.0261    0.6815 C.2       1 <0>        -0.0328
      2 C2          1.2851    1.1518    1.0710 C.2       1 <0>        -0.0035
      3 N1          2.0612    0.7200    0.0269 N.pl3     1 <0>        -0.4186
      4 C3          1.2169    0.3440   -0.9683 C.2       1 <0>         0.1943
      5 N2         -0.0103    0.5316   -0.5652 N.2       1 <0>        -0.4866
      6 C4          3.4631    0.6752   -0.0075 C.ar      1 <0>         0.1872
      7 C5          4.1483    1.3642   -0.9882 C.ar      1 <0>        -0.1214
      8 C6          5.5486    1.3201   -1.0226 C.ar      1 <0>         0.2401
      9 C7          6.2409    0.5716   -0.0537 C.ar      1 <0>         0.0483
     10 C8          5.5325   -0.1160    0.9268 C.ar      1 <0>        -0.0431
     11 C9          4.1569   -0.0597    0.9520 C.ar      1 <0>        -0.1014
     12 N3          3.4100   -0.7888    2.0017 N.pl3     1 <0>         0.0519
     13 O1          4.0069   -1.3273    2.9047 O.2       1 <0>        -0.1911
     14 O2          2.2033   -0.8458    1.9559 O.3       1 <0>        -0.1636
     15 N4          7.6231    0.5201   -0.0760 N.am      1 <0>        -0.6298
     16 C10         8.2893    1.1961   -1.0371 C.2       1 <0>         0.4781
     17 C11         7.5249    1.9678   -2.0326 C.2       1 <0>         0.4315
     18 N5          6.2198    1.9933   -1.9802 N.2       1 <0>        -0.6005
     19 O3          8.1765    2.6523   -3.0035 O.3       1 <0>        -0.5880
     20 O4          9.5056    1.1685   -1.0799 O.2       1 <0>        -0.5063
     21 H1         -0.8666    1.2759    1.2725 H         1 <0>         0.1696
     22 H2          1.6353    1.5219    2.0233 H         1 <0>         0.1635
     23 H3          1.5115   -0.0444   -1.9320 H         1 <0>         0.2051
     24 H4          3.6064    1.9355   -1.7274 H         1 <0>         0.1574
     25 H5          6.0625   -0.6912    1.6715 H         1 <0>         0.1524
     26 H6          8.1069    0.0062    0.5893 H         1 <0>         0.4074
@<TRIPOS>BOND
     1    1    5 1
     2    1    2 2
     3    1   21 1
     4    2    3 1
     5    2   22 1
     6    3    4 1
     7    3    6 1
     8    4    5 2
     9    4   23 1
    10    6   11 ar
    11    6    7 ar
    12    7    8 ar
    13    7   24 1
    14    8   18 1
    15    8    9 ar
    16    9   10 ar
    17    9   15 1
    18   10   11 ar
    19   10   25 1
    20   11   12 1
    21   12   13 2
    22   12   14 1
    23   15   16 am
    24   15   26 1
    25   16   17 1
    26   16   20 2
    27   17   18 2
    28   17   19 1
@<TRIPOS>MOLECULE
ZINC14951272
   27    29     0     0     0
SMALL
USER_CHARGES

@<TRIPOS>ATOM
      1 C1         -0.0420    0.5400   -0.5314 C.2       1 <0>        -0.0063
      2 C2          1.2106    0.3345   -0.9812 C.2       1 <0>        -0.0534
      3 N1          2.0611    0.7160    0.0240 N.pl3     1 <0>        -0.4382
      4 C3          1.2902    1.1432    1.0573 C.2       1 <0>         0.2377
      5 N2          0.0358    1.0332    0.7134 N.2       1 <0>        -0.4758
      6 C4          3.4628    0.6732   -0.0086 C.ar      1 <0>         0.2086
      7 C5          4.1533    1.3638   -0.9916 C.ar      1 <0>        -0.1178
      8 C6          5.5416    1.3220   -1.0247 C.ar      1 <0>         0.1918
      9 C7          6.2365    0.5821   -0.0651 C.ar      1 <0>         0.1277
     10 C8          5.5350   -0.1082    0.9174 C.ar      1 <0>        -0.0389
     11 C9          4.1572   -0.0574    0.9489 C.ar      1 <0>        -0.0426
     12 N3          3.4154   -0.7886    2.0007 N.pl3     1 <0>         0.0306
     13 O1          4.0164   -1.3259    2.9017 O.2       1 <0>        -0.1407
     14 O2          2.2087   -0.8485    1.9587 O.3       1 <0>        -0.1333
     15 N4          7.6280    0.5288   -0.0836 N.am      1 <0>        -0.6314
     16 C10         8.3177    1.1945   -1.0320 C.2       1 <0>         0.5123
     17 C11         7.5754    1.9847   -2.0560 C.2       1 <0>         0.5126
     18 N5          6.2281    2.0184   -2.0154 N.am      1 <0>        -0.6326
     19 O3          8.1785    2.5911   -2.9184 O.2       1 <0>        -0.4391
     20 O4          9.5315    1.1512   -1.0518 O.2       1 <0>        -0.4434
     21 H1         -0.9518    0.3457   -1.0799 H         1 <0>         0.1777
     22 H2          1.4912   -0.0559   -1.9483 H         1 <0>         0.1790
     23 H3          1.6541    1.5121    2.0049 H         1 <0>         0.2004
     24 H4          3.6123    1.9341   -1.7322 H         1 <0>         0.1717
     25 H5          6.0704   -0.6814    1.6599 H         1 <0>         0.1797
     26 H6          5.7364    2.5291   -2.6775 H         1 <0>         0.4318
     27 H7          8.1018    0.0124    0.5870 H         1 <0>         0.4319
@<TRIPOS>BOND
     1    1    5 1
     2    1    2 2
     3    1   21 1
     4    2    3 1
     5    2   22 1
     6    3    4 1
     7    3    6 1
     8    4    5 2
     9    4   23 1
    10    6   11 ar
    11    6    7 ar
    12    7    8 ar
    13    7   24 1
    14    8   18 1
    15    8    9 ar
    16    9   10 ar
    17    9   15 1
    18   10   11 ar
    19   10   25 1
    20   11   12 1
    21   12   13 2
    22   12   14 1
    23   15   16 am
    24   15   27 1
    25   16   17 1
    26   16   20 2
    27   17   18 am
    28   17   19 2
    29   18   26 1
@<TRIPOS>MOLECULE
ZINC14951272
   26    28     0     0     0
SMALL
USER_CHARGES
6-imidazol-1-yl-7-nitro-quinoxaline-2,3-dione
@<TRIPOS>ATOM
      1 C1         -0.9692    2.3670   -0.5011 C.2       1 <0>         0.0203
      2 C2          0.1710    1.8137   -0.9544 C.2       1 <0>         0.0322
      3 N1          1.1010    1.9441    0.0456 N.pl3     1 <0>        -0.3920
      4 C3          0.4856    2.5787    1.0814 C.cat     1 <0>         0.3472
      5 C4          2.4211    1.5101    0.0089 C.ar      1 <0>         0.1649
      6 C5          3.2440    1.9712   -0.9737 C.ar      1 <0>        -0.0242
      7 C6          4.5864    1.5528   -1.0315 C.ar      1 <0>         0.2441
      8 N2          5.3912    2.0023   -1.9805 N.2       1 <0>        -0.4313
      9 C7          6.6689    1.5908   -2.0264 C.2       1 <0>         0.4244
     10 O1          7.4122    2.0008   -2.8957 O.2       1 <0>        -0.2992
     11 C8          7.1712    0.6250   -1.0008 C.2       1 <0>         0.4198
     12 O2          8.3236    0.2452   -1.0318 O.2       1 <0>        -0.2904
     13 N3          6.3332    0.1780   -0.0399 N.2       1 <0>        -0.4107
     14 C9          5.0867    0.5932   -0.0128 C.ar      1 <0>         0.2261
     15 C10         4.1626    0.1193    1.0230 C.ar      1 <0>         0.0707
     16 C11         2.8885    0.5661    1.0223 C.ar      1 <0>        -0.0270
     17 N4          1.9499    0.0920    2.0641 N.pl3     1 <0>         0.0210
     18 O3          2.3570   -0.5958    2.9831 O.2       1 <0>        -0.0756
     19 O4          0.7705    0.3898    2.0022 O.3       1 <0>        -0.1704
     20 H1         -1.9008    2.4314   -1.0437 H         1 <0>         0.2316
     21 H2          0.3244    1.3552   -1.9202 H         1 <0>         0.2287
     22 H3          0.9431    2.8349    2.0255 H         1 <0>         0.2572
     23 H4          2.8653    2.6649   -1.7098 H         1 <0>         0.1988
     24 H5          4.4972   -0.5779    1.7768 H         1 <0>         0.2143
     25 N5         -0.7504    2.8198    0.7433 N.pl3     1 <0>        -0.4696
     26 H6         -1.4480    3.2838    1.3368 H         1 <0>         0.4890
@<TRIPOS>BOND
     1    1    2 2
     2    1   20 1
     3    1   25 1
     4    2    3 1
     5    2   21 1
     6    3    4 1
     7    3    5 1
     8    4   22 1
     9    4   25 2
    10    5   16 ar
    11    5    6 ar
    12    6    7 ar
    13    6   23 1
    14    7   14 ar
    15    7    8 2
    16    8    9 1
    17    9   10 2
    18    9   11 1
    19   11   12 2
    20   11   13 1
    21   13   14 2
    22   14   15 ar
    23   15   16 ar
    24   15   24 1
    25   16   17 1
    26   17   18 2
    27   17   19 1
    28   25   26 1
@<TRIPOS>MOLECULE
ZINC08585017
   31    33     0     0     0
SMALL
USER_CHARGES

@<TRIPOS>ATOM
      1 C1          0.2332    1.3841    0.6570 C.ar      1 <0>        -0.1163
      2 C2          1.3450    2.1030    0.3352 C.ar      1 <0>        -0.0461
      3 C3          2.5286    1.4337   -0.0104 C.ar      1 <0>        -0.0508
      4 C4          2.5507    0.0178   -0.0197 C.ar      1 <0>         0.0703
      5 C5          1.3858   -0.6903    0.3181 C.ar      1 <0>        -0.6623
      6 C6          0.2539   -0.0082    0.6481 C.ar      1 <0>         0.0100
      7 S1          1.3881   -2.4523    0.3133 S.o2      1 <0>         2.6604
      8 O1          1.2671   -2.8548   -1.0441 O.2       1 <0>        -0.9037
      9 O2          2.4738   -2.8593    1.1348 O.2       1 <0>        -0.9426
     10 N1          0.0047   -2.9457    1.0783 N.pl3     1 <0>        -1.2465
     11 C7          3.7370   -0.6553   -0.3670 C.ar      1 <0>        -0.0313
     12 C8          4.8514    0.0498   -0.6900 C.ar      1 <0>        -0.0208
     13 C9          4.8498    1.4521   -0.6862 C.ar      1 <0>         0.1138
     14 C10         3.6989    2.1491   -0.3497 C.ar      1 <0>         0.1787
     15 N2          3.6832    3.5358   -0.3424 N.am      1 <0>        -0.6274
     16 H1          2.8706    4.0090   -0.1045 H         1 <0>         0.4261
     17 C11         4.7946    4.2283   -0.6646 C.2       1 <0>         0.5118
     18 O3          4.7862    5.4433   -0.6593 O.2       1 <0>        -0.4441
     19 C12         6.0334    3.4831   -1.0268 C.2       1 <0>         0.5112
     20 O4          7.0481    4.0831   -1.3210 O.2       1 <0>        -0.4495
     21 N3          6.0144    2.1351   -1.0235 N.am      1 <0>        -0.6258
     22 H2          6.8149    1.6397   -1.2576 H         1 <0>         0.4304
     23 N4          3.7698   -2.1354   -0.3796 N.pl3     1 <0>        -0.0336
     24 O5          4.3500   -2.7346    0.4957 O.2       1 <0>        -0.0101
     25 O6          3.2166   -2.7448   -1.2651 O.3       1 <0>        -0.1547
     26 H3         -0.6756    1.9014    0.9270 H         1 <0>         0.1537
     27 H4          1.3152    3.1825    0.3457 H         1 <0>         0.1466
     28 H5         -0.6405   -0.5552    0.9075 H         1 <0>         0.1465
     29 H6         -0.6187   -2.2884    1.4249 H         1 <0>         0.4109
     30 H7         -0.1821   -3.8921    1.1798 H         1 <0>         0.4276
     31 H8          5.7553   -0.4788   -0.9543 H         1 <0>         0.1677
@<TRIPOS>BOND
     1    1    6 ar
     2    1    2 ar
     3    1   26 1
     4    2    3 ar
     5    2   27 1
     6    3   14 ar
     7    3    4 ar
     8    4    5 ar
     9    4   11 ar
    10    5    6 ar
    11    5    7 1
    12    6   28 1
    13    7    8 2
    14    7    9 2
    15    7   10 1
    16   10   29 1
    17   10   30 1
    18   11   12 ar
    19   11   23 1
    20   12   13 ar
    21   12   31 1
    22   13   21 1
    23   13   14 ar
    24   14   15 1
    25   15   16 1
    26   15   17 am
    27   17   18 2
    28   17   19 1
    29   19   20 2
    30   19   21 am
    31   21   22 1
    32   23   24 2
    33   23   25 1
@<TRIPOS>MOLECULE
ZINC08585017
   30    32     0     0     0
SMALL
USER_CHARGES

@<TRIPOS>ATOM
      1 C1         -0.6276    0.4370   -1.7736 C.ar      1 <0>        -0.1731
      2 C2          0.3567    1.2003   -2.3318 C.ar      1 <0>         0.0069
      3 C3          1.6968    0.8795   -2.0978 C.ar      1 <0>        -0.0630
      4 C4          2.0190   -0.2327   -1.2850 C.ar      1 <0>         0.0918
      5 C5          0.9824   -0.9962   -0.7260 C.ar      1 <0>        -0.6997
      6 C6         -0.3146   -0.6572   -0.9739 C.ar      1 <0>         0.0068
      7 S1          1.3554   -2.3868    0.2896 S.o2      1 <0>         2.6622
      8 O1          1.7041   -3.4487   -0.5879 O.2       1 <0>        -0.9158
      9 O2          2.2299   -1.9224    1.3088 O.2       1 <0>        -0.9452
     10 N1         -0.0506   -2.8358    1.0407 N.pl3     1 <0>        -1.2459
     11 C7          3.3708   -0.5559   -1.0503 C.ar      1 <0>        -0.1204
     12 C8          4.3691    0.1831   -1.5919 C.ar      1 <0>         0.0054
     13 C9          4.1065    1.2943   -2.4040 C.ar      1 <0>        -0.0110
     14 C10         2.7853    1.6709   -2.6771 C.ar      1 <0>         0.2503
     15 N2          2.5158    2.7321   -3.4521 N.2       1 <0>        -0.5968
     16 C11         3.4796    3.4477   -3.9760 C.2       1 <0>         0.4326
     17 O3          3.1851    4.5165   -4.7560 O.3       1 <0>        -0.5869
     18 C12         4.8815    3.0897   -3.7160 C.2       1 <0>         0.4736
     19 O4          5.7864    3.7475   -4.1978 O.2       1 <0>        -0.5174
     20 N3          5.1522    2.0207   -2.9364 N.am      1 <0>        -0.6182
     21 H1          6.0702    1.7673   -2.7519 H         1 <0>         0.4056
     22 N4          3.7049   -1.7200   -0.1990 N.pl3     1 <0>        -0.0190
     23 O5          4.1212   -1.5487    0.9230 O.2       1 <0>        -0.0412
     24 O6          3.5614   -2.8420   -0.6258 O.3       1 <0>        -0.1772
     25 H2         -1.6628    0.6885   -1.9514 H         1 <0>         0.1355
     26 H3          0.1015    2.0474   -2.9513 H         1 <0>         0.1531
     27 H4         -1.1104   -1.2463   -0.5426 H         1 <0>         0.1338
     28 H5         -0.4520   -3.6967    0.8440 H         1 <0>         0.4197
     29 H6         -0.4727   -2.2379    1.6772 H         1 <0>         0.4165
     30 H7          5.3943   -0.0914   -1.3921 H         1 <0>         0.1369
@<TRIPOS>BOND
     1    1    6 ar
     2    1    2 ar
     3    1   25 1
     4    2    3 ar
     5    2   26 1
     6    3   14 ar
     7    3    4 ar
     8    4    5 ar
     9    4   11 ar
    10    5    6 ar
    11    5    7 1
    12    6   27 1
    13    7    8 2
    14    7    9 2
    15    7   10 1
    16   10   28 1
    17   10   29 1
    18   11   12 ar
    19   11   22 1
    20   12   13 ar
    21   12   30 1
    22   13   20 1
    23   13   14 ar
    24   14   15 1
    25   15   16 2
    26   16   17 1
    27   16   18 1
    28   18   19 2
    29   18   20 am
    30   20   21 1
    31   22   23 2
    32   22   24 1
@<TRIPOS>MOLECULE
ZINC08585017
   30    32     0     0     0
SMALL
USER_CHARGES

@<TRIPOS>ATOM
      1 C1          0.2456    1.3834    0.6714 C.ar      1 <0>        -0.1313
      2 C2          1.3577    2.1012    0.3447 C.ar      1 <0>        -0.0563
      3 C3          2.5384    1.4313   -0.0062 C.ar      1 <0>        -0.0329
      4 C4          2.5597    0.0160   -0.0166 C.ar      1 <0>         0.0376
      5 C5          1.3970   -0.6903    0.3261 C.ar      1 <0>        -0.6495
      6 C6          0.2655   -0.0079    0.6614 C.ar      1 <0>        -0.0272
      7 S1          1.3984   -2.4523    0.3206 S.o2      1 <0>         2.6599
      8 O1          1.2733   -2.8543   -1.0366 O.2       1 <0>        -0.9123
      9 O2          2.4863   -2.8602    1.1387 O.2       1 <0>        -0.9464
     10 N1          0.0171   -2.9454    1.0895 N.pl3     1 <0>        -1.2511
     11 C7          3.7448   -0.6631   -0.3704 C.ar      1 <0>        -0.0537
     12 C8          4.8595    0.0289   -0.6994 C.ar      1 <0>         0.0031
     13 C9          4.8669    1.4424   -0.6970 C.ar      1 <0>         0.1698
     14 C10         3.7083    2.1457   -0.3510 C.ar      1 <0>         0.0654
     15 N2          3.7054    3.5214   -0.3466 N.am      1 <0>        -0.6172
     16 H1          2.9024    4.0100   -0.1071 H         1 <0>         0.4012
     17 C11         4.8349    4.1831   -0.6796 C.2       1 <0>         0.4746
     18 O3          4.8602    5.4008   -0.6836 O.2       1 <0>        -0.5142
     19 C12         6.0339    3.4096   -1.0369 C.2       1 <0>         0.4197
     20 O4          7.1791    4.0511   -1.3748 O.3       1 <0>        -0.6118
     21 N3          5.9939    2.1025   -1.0293 N.2       1 <0>        -0.5931
     22 N4          3.7686   -2.1433   -0.3812 N.pl3     1 <0>        -0.0254
     23 O5          4.3466   -2.7449    0.4938 O.2       1 <0>        -0.0281
     24 O6          3.2101   -2.7504   -1.2650 O.3       1 <0>        -0.1734
     25 H2         -0.6615    1.9014    0.9458 H         1 <0>         0.1381
     26 H3          1.3293    3.1807    0.3559 H         1 <0>         0.1345
     27 H4         -0.6278   -0.5549    0.9243 H         1 <0>         0.1324
     28 H5         -0.6050   -2.2879    1.4382 H         1 <0>         0.4093
     29 H6         -0.1699   -3.8918    1.1912 H         1 <0>         0.4219
     30 H7          5.7581   -0.5068   -0.9677 H         1 <0>         0.1561
@<TRIPOS>BOND
     1    1    6 ar
     2    1    2 ar
     3    1   25 1
     4    2    3 ar
     5    2   26 1
     6    3   14 ar
     7    3    4 ar
     8    4    5 ar
     9    4   11 ar
    10    5    6 ar
    11    5    7 1
    12    6   27 1
    13    7    8 2
    14    7    9 2
    15    7   10 1
    16   10   28 1
    17   10   29 1
    18   11   12 ar
    19   11   22 1
    20   12   13 ar
    21   12   30 1
    22   13   21 1
    23   13   14 ar
    24   14   15 1
    25   15   16 1
    26   15   17 am
    27   17   18 2
    28   17   19 1
    29   19   20 1
    30   19   21 2
    31   22   23 2
    32   22   24 1
@<TRIPOS>MOLECULE
ZINC03995575
   29    29     0     0     0
SMALL
USER_CHARGES

@<TRIPOS>ATOM
      1 C1          1.0799   -0.3943   -0.7951 C.3       1 <0>        -0.1264
      2 C2         -0.0539    0.0466    0.0944 C.2       1 <0>        -0.0851
      3 C3          0.1239    1.0269    0.9449 C.2       1 <0>        -0.2152
      4 C4         -1.3923   -0.6404    0.0054 C.3       1 <0>        -0.0829
      5 H1         -1.2738   -1.7222    0.0665 H         1 <0>         0.1010
      6 C5         -2.3455   -0.1298    1.1150 C.3       1 <0>        -0.0057
      7 N1         -3.6945   -0.3983    0.5543 N.4       1 <0>        -0.4952
      8 C6         -3.6039   -0.0757   -0.8862 C.3       1 <0>        -0.0344
      9 H2         -3.9248    0.9517   -1.0576 H         1 <0>         0.1243
     10 C7         -2.1258   -0.2430   -1.2962 C.3       1 <0>        -0.0443
     11 H3         -2.0240   -1.0302   -2.0432 H         1 <0>         0.1083
     12 C8         -1.5723    1.0774   -1.8356 C.3       1 <0>        -0.1808
     13 C9         -2.1700    1.3564   -3.1906 C.2       1 <0>         0.4629
     14 O1         -2.9649    0.5718   -3.6795 O.co2     1 <0>        -0.6259
     15 O2         -1.8586    2.3667   -3.7980 O.co2     1 <0>        -0.7225
     16 C10        -4.4676   -1.0222   -1.6795 C.2       1 <0>         0.4844
     17 O3         -5.1257   -1.8732   -1.1058 O.co2     1 <0>        -0.7147
     18 O4         -4.5083   -0.9368   -2.8951 O.co2     1 <0>        -0.5649
     19 H4          1.9427    0.2513   -0.6309 H         1 <0>         0.0649
     20 H5          1.3469   -1.4245   -0.5597 H         1 <0>         0.0674
     21 H6          0.7702   -0.3284   -1.8381 H         1 <0>         0.0792
     22 H7         -0.6562    1.2804    1.6475 H         1 <0>         0.0960
     23 H8          1.0505    1.5817    0.9435 H         1 <0>         0.1029
     24 H9         -2.1947   -0.6883    2.0388 H         1 <0>         0.1211
     25 H10        -2.2040    0.9380    1.2824 H         1 <0>         0.1276
     26 H11        -3.9359   -1.3700    0.6788 H         1 <0>         0.4255
     27 H12        -1.8299    1.8859   -1.1515 H         1 <0>         0.0481
     28 H13        -0.4881    1.0078   -1.9241 H         1 <0>         0.0711
     29 H14        -4.3805    0.1919    1.0005 H         1 <0>         0.4136
@<TRIPOS>BOND
     1    1    2 1
     2    1   19 1
     3    1   20 1
     4    1   21 1
     5    2    3 2
     6    2    4 1
     7    3   22 1
     8    3   23 1
     9    4    5 1
    10    4   10 1
    11    4    6 1
    12    6    7 1
    13    6   24 1
    14    6   25 1
    15    7    8 1
    16    7   26 1
    17    7   29 1
    18    8    9 1
    19    8   10 1
    20    8   16 1
    21   10   11 1
    22   10   12 1
    23   12   13 1
    24   12   27 1
    25   12   28 1
    26   13   14 2
    27   13   15 1
    28   16   17 2
    29   16   18 1
@<TRIPOS>MOLECULE
ZINC01482113
   18    17     0     0     0
SMALL
USER_CHARGES

@<TRIPOS>ATOM
      1 C1         -0.0187    1.5258    0.0104 C.3       1 <0>        -0.1000
      2 C2          0.0021   -0.0041    0.0020 C.3       1 <0>        -0.1962
      3 C3         -1.4117   -0.5257    0.0127 C.2       1 <0>         0.4893
      4 O1         -2.3491    0.2539    0.0259 O.co2     1 <0>        -0.6870
      5 O2         -1.6182   -1.7273    0.0082 O.co2     1 <0>        -0.7019
      6 C4          1.4167    2.0553   -0.0004 C.3       1 <0>        -0.0520
      7 H1          1.9535    1.6326   -0.8497 H         1 <0>         0.1269
      8 C5          1.3970    3.5578   -0.1160 C.2       1 <0>         0.4945
      9 O3          1.7295    4.2467    0.8334 O.co2     1 <0>        -0.6861
     10 O4          1.0484    4.0844   -1.1589 O.co2     1 <0>        -0.6413
     11 N1          2.0906    1.6690    1.2464 N.4       1 <0>        -0.6105
     12 H2         -0.5459    1.8868   -0.8726 H         1 <0>         0.1064
     13 H3         -0.5289    1.8773    0.9072 H         1 <0>         0.0773
     14 H4          0.5123   -0.3556   -0.8948 H         1 <0>         0.0672
     15 H5          0.5293   -0.3651    0.8851 H         1 <0>         0.0471
     16 H6          2.1039    0.6630    1.3237 H         1 <0>         0.4141
     17 H7          3.0372    2.0182    1.2392 H         1 <0>         0.4227
     18 H8          1.5937    2.0603    2.0325 H         1 <0>         0.4293
@<TRIPOS>BOND
     1    1    2 1
     2    1    6 1
     3    1   12 1
     4    1   13 1
     5    2    3 1
     6    2   14 1
     7    2   15 1
     8    3    4 2
     9    3    5 1
    10    6    7 1
    11    6    8 1
    12    6   11 1
    13    8    9 2
    14    8   10 1
    15   11   16 1
    16   11   17 1
    17   11   18 1
@<TRIPOS>MOLECULE
ZINC00895124
   18    17     0     0     0
SMALL
USER_CHARGES

@<TRIPOS>ATOM
      1 C1         -0.0187    1.5258    0.0104 C.3       1 <0>        -0.1010
      2 C2          0.0021   -0.0041    0.0020 C.3       1 <0>        -0.1959
      3 C3         -1.4117   -0.5257    0.0127 C.2       1 <0>         0.4893
      4 O1         -2.3491    0.2539    0.0259 O.co2     1 <0>        -0.6871
      5 O2         -1.6182   -1.7273    0.0082 O.co2     1 <0>        -0.7016
      6 C4          1.4167    2.0553   -0.0004 C.3       1 <0>        -0.0510
      7 H1          1.9696    1.6236    0.8338 H         1 <0>         0.1263
      8 C5          1.3993    3.5565    0.1316 C.2       1 <0>         0.4931
      9 O3          1.4342    4.0717    1.2361 O.co2     1 <0>        -0.6465
     10 O4          1.3504    4.2557   -0.8660 O.co2     1 <0>        -0.6784
     11 N1          2.0667    1.6824   -1.2639 N.4       1 <0>        -0.6121
     12 H2         -0.5459    1.8868   -0.8726 H         1 <0>         0.0805
     13 H3         -0.5289    1.8773    0.9072 H         1 <0>         0.1026
     14 H4          0.5123   -0.3556   -0.8948 H         1 <0>         0.0475
     15 H5          0.5293   -0.3651    0.8851 H         1 <0>         0.0673
     16 H6          3.0133    2.0317   -1.2711 H         1 <0>         0.4211
     17 H7          2.0783    0.6774   -1.3524 H         1 <0>         0.4148
     18 H8          1.5549    2.0821   -2.0362 H         1 <0>         0.4310
@<TRIPOS>BOND
     1    1    2 1
     2    1    6 1
     3    1   12 1
     4    1   13 1
     5    2    3 1
     6    2   14 1
     7    2   15 1
     8    3    4 2
     9    3    5 1
    10    6    7 1
    11    6    8 1
    12    6   11 1
    13    8    9 2
    14    8   10 1
    15   11   16 1
    16   11   17 1
    17   11   18 1
