@<TRIPOS>MOLECULE
ZINC13285175
   60    63     0     0     0
SMALL
USER_CHARGES
N-cyclohexyl-7-[(2-methoxyethyl-methyl-amino)methyl]-N-methyl-thiazolo[3,2-a]benzimidazole-2-carboxamide
@<TRIPOS>ATOM
      1 C1         -1.5336   -0.7254    1.2968 C.3       1 <0>        -0.0524
      2 C2         -1.9076    1.2819   -0.0045 C.3       1 <0>         0.0017
      3 C3         -0.5193    1.8468    0.3031 C.3       1 <0>         0.0246
      4 O1          0.3723    1.5284   -0.7673 O.3       1 <0>        -0.4037
      5 C4          1.7033    2.0130   -0.5786 C.3       1 <0>         0.0304
      6 C5         -3.0925   -0.7565   -0.5556 C.3       1 <0>         0.0541
      7 C6         -2.9060   -2.2315   -0.8018 C.ar      1 <0>        -0.1560
      8 C7         -3.1838   -3.1395    0.2096 C.ar      1 <0>        -0.0939
      9 C8         -3.0195   -4.4905    0.0021 C.ar      1 <0>        -0.0582
     10 C9         -2.5688   -4.9501   -1.2395 C.ar      1 <0>         0.1166
     11 C10        -2.2901   -4.0267   -2.2570 C.ar      1 <0>         0.0381
     12 C11        -2.4655   -2.6705   -2.0342 C.ar      1 <0>        -0.0543
     13 N1         -1.8622   -4.7620   -3.3726 N.pl3     1 <0>        -0.4534
     14 C12        -1.4477   -4.5147   -4.6501 C.2       1 <0>         0.1246
     15 C13        -1.0996   -5.5317   -5.4700 C.2       1 <0>        -0.2175
     16 S1         -1.3550   -6.9527   -4.4187 S.3       1 <0>         0.2075
     17 C14        -1.9057   -6.0777   -2.9705 C.2       1 <0>         0.2311
     18 N2         -2.3137   -6.1862   -1.7391 N.2       1 <0>        -0.4433
     19 C15        -0.6335   -5.4812   -6.8608 C.2       1 <0>         0.6129
     20 O2         -0.6467   -4.4274   -7.4690 O.2       1 <0>        -0.5142
     21 N3         -0.1909   -6.6021   -7.4642 N.am      1 <0>        -0.5967
     22 C16        -0.2114   -7.8782   -6.7450 C.3       1 <0>         0.0624
     23 C17         0.3107   -6.5444   -8.8395 C.3       1 <0>         0.1412
     24 C18        -0.5353   -7.4568   -9.7297 C.3       1 <0>        -0.1281
     25 C19        -0.0114   -7.3965  -11.1659 C.3       1 <0>        -0.1180
     26 C20         1.4458   -7.8619  -11.1972 C.3       1 <0>        -0.1241
     27 C21         2.2918   -6.9495  -10.3070 C.3       1 <0>        -0.1176
     28 C22         1.7679   -7.0098   -8.8708 C.3       1 <0>        -0.1287
     29 H1         -2.3085   -0.4233    2.0013 H         1 <0>         0.1264
     30 H2         -1.4923   -1.8135    1.2467 H         1 <0>         0.1248
     31 H3         -0.5698   -0.3402    1.6297 H         1 <0>         0.1194
     32 H4         -2.2432    1.6503   -0.9739 H         1 <0>         0.1374
     33 H5         -2.6084    1.5998    0.7675 H         1 <0>         0.1463
     34 H6         -0.5837    2.9294    0.4125 H         1 <0>         0.0978
     35 H7         -0.1461    1.4095    1.2291 H         1 <0>         0.0755
     36 H8          1.6851    3.0990   -0.4874 H         1 <0>         0.0561
     37 H9          2.1227    1.5791    0.3292 H         1 <0>         0.0518
     38 H10         2.3175    1.7304   -1.4336 H         1 <0>         0.0999
     39 H11        -3.8915   -0.6075    0.1707 H         1 <0>         0.1428
     40 H12        -3.3550   -0.2622   -1.4910 H         1 <0>         0.1358
     41 H13        -3.5314   -2.7834    1.1681 H         1 <0>         0.1451
     42 H14        -3.2380   -5.1918    0.7939 H         1 <0>         0.1519
     43 H15        -2.2546   -1.9599   -2.8196 H         1 <0>         0.1370
     44 H16        -1.3978   -3.4972   -5.0089 H         1 <0>         0.1888
     45 H17        -1.2012   -8.3269   -6.8292 H         1 <0>         0.0758
     46 H18         0.5302   -8.5505   -7.1765 H         1 <0>         0.1041
     47 H19         0.0215   -7.7067   -5.6941 H         1 <0>         0.0726
     48 H20         0.2486   -5.5198   -9.2062 H         1 <0>         0.1084
     49 H21        -0.4732   -8.4814   -9.3630 H         1 <0>         0.0688
     50 H22        -1.5734   -7.1253   -9.7074 H         1 <0>         0.0682
     51 H23        -0.0735   -6.3720  -11.5326 H         1 <0>         0.0664
     52 H24        -0.6142   -8.0466  -11.8001 H         1 <0>         0.0702
     53 H25         1.8190   -7.8190  -12.2204 H         1 <0>         0.0678
     54 H26         1.5079   -8.8865  -10.8305 H         1 <0>         0.0643
     55 H27         2.2297   -5.9249  -10.6737 H         1 <0>         0.0665
     56 H28         3.3299   -7.2810  -10.3293 H         1 <0>         0.0699
     57 H29         2.3706   -6.3597   -8.2366 H         1 <0>         0.0676
     58 H30         1.8300   -8.0343   -8.5041 H         1 <0>         0.0690
     59 N4         -1.8225   -0.1930   -0.0514 N.4       1 <0>        -0.3964
     60 H31        -1.0623   -0.4631   -0.6866 H         1 <0>         0.4350
@<TRIPOS>BOND
     1    1   29 1
     2    1   30 1
     3    1   31 1
     4    1   59 1
     5    2    3 1
     6    2   32 1
     7    2   33 1
     8    2   59 1
     9    3    4 1
    10    3   34 1
    11    3   35 1
    12    4    5 1
    13    5   36 1
    14    5   37 1
    15    5   38 1
    16    6    7 1
    17    6   39 1
    18    6   40 1
    19    6   59 1
    20    7   12 ar
    21    7    8 ar
    22    8    9 ar
    23    8   41 1
    24    9   10 ar
    25    9   42 1
    26   10   18 1
    27   10   11 ar
    28   11   12 ar
    29   11   13 1
    30   12   43 1
    31   13   17 1
    32   13   14 1
    33   14   15 2
    34   14   44 1
    35   15   16 1
    36   15   19 1
    37   16   17 1
    38   17   18 2
    39   19   20 2
    40   19   21 am
    41   21   22 1
    42   21   23 1
    43   22   45 1
    44   22   46 1
    45   22   47 1
    46   23   28 1
    47   23   24 1
    48   23   48 1
    49   24   25 1
    50   24   49 1
    51   24   50 1
    52   25   26 1
    53   25   51 1
    54   25   52 1
    55   26   27 1
    56   26   53 1
    57   26   54 1
    58   27   28 1
    59   27   55 1
    60   27   56 1
    61   28   57 1
    62   28   58 1
    63   59   60 1
@<TRIPOS>MOLECULE
ZINC03946640
   36    39     0     0     0
SMALL
USER_CHARGES

@<TRIPOS>ATOM
      1 C1         -0.0153    1.3806    0.0295 C.ar      1 <0>        -0.1318
      2 C2          0.1396    0.2186    0.7630 C.ar      1 <0>        -0.0995
      3 C3          1.3440   -0.4571    0.7429 C.ar      1 <0>        -0.1213
      4 C4          2.3999    0.0313   -0.0153 C.ar      1 <0>         0.1406
      5 C5          2.2410    1.1983   -0.7511 C.ar      1 <0>        -0.1415
      6 C6          1.0343    1.8696   -0.7265 C.ar      1 <0>        -0.0999
      7 N1          3.6215   -0.6506   -0.0375 N.am      1 <0>        -0.6577
      8 C7          3.6447   -1.9949    0.0568 C.2       1 <0>         0.5782
      9 O1          2.6055   -2.6203    0.0643 O.2       1 <0>        -0.4973
     10 C8          4.9618   -2.7209    0.1528 C.3       1 <0>         0.0275
     11 C9          5.1390   -3.9830   -0.6894 C.3       1 <0>        -0.1372
     12 C10         4.9681   -4.1068    0.8281 C.3       1 <0>        -0.1361
     13 H1          4.0373   -4.5109    1.2263 H         1 <0>         0.1520
     14 C11         6.2450   -4.3911    1.6167 C.2       1 <0>         0.1959
     15 N2          6.2622   -5.1213    2.6850 N.2       1 <0>        -0.3084
     16 O2          5.0621   -5.6957    3.1694 O.3       1 <0>        -0.3974
     17 C12         7.4643   -3.7595    1.0537 C.ar      1 <0>        -0.1042
     18 C13         8.7064   -4.3757    1.1322 C.ar      1 <0>        -0.0520
     19 C14         9.8098   -3.7512    0.5832 C.ar      1 <0>        -0.1360
     20 C15         9.6754   -2.5219   -0.0398 C.ar      1 <0>        -0.0738
     21 C16         8.4432   -1.9006   -0.1186 C.ar      1 <0>        -0.1310
     22 C17         7.3266   -2.5086    0.4303 C.ar      1 <0>         0.1316
     23 O3          6.1067   -1.8978    0.4007 O.3       1 <0>        -0.2754
     24 H2         -0.9593    1.9049    0.0437 H         1 <0>         0.1253
     25 H3         -0.6820   -0.1608    1.3524 H         1 <0>         0.1274
     26 H4          1.4645   -1.3643    1.3165 H         1 <0>         0.1333
     27 H5          3.0605    1.5810   -1.3415 H         1 <0>         0.1273
     28 H6          0.9101    2.7772   -1.2985 H         1 <0>         0.1284
     29 H7          4.4517   -0.1559   -0.1207 H         1 <0>         0.4195
     30 H8          4.3019   -4.2905   -1.3161 H         1 <0>         0.1311
     31 H9          6.1295   -4.1774   -1.1010 H         1 <0>         0.1208
     32 H10         5.1746   -6.2239    3.9715 H         1 <0>         0.4088
     33 H11         8.8088   -5.3349    1.6178 H         1 <0>         0.1373
     34 H12        10.7797   -4.2228    0.6406 H         1 <0>         0.1359
     35 H13        10.5431   -2.0430   -0.4688 H         1 <0>         0.1381
     36 H14         8.3512   -0.9422   -0.6080 H         1 <0>         0.1417
@<TRIPOS>BOND
     1    1    6 ar
     2    1    2 ar
     3    1   24 1
     4    2    3 ar
     5    2   25 1
     6    3    4 ar
     7    3   26 1
     8    4    5 ar
     9    4    7 1
    10    5    6 ar
    11    5   27 1
    12    6   28 1
    13    7    8 am
    14    7   29 1
    15    8    9 2
    16    8   10 1
    17   10   12 1
    18   10   23 1
    19   10   11 1
    20   11   12 1
    21   11   30 1
    22   11   31 1
    23   12   13 1
    24   12   14 1
    25   14   15 2
    26   14   17 1
    27   15   16 1
    28   16   32 1
    29   17   22 ar
    30   17   18 ar
    31   18   19 ar
    32   18   33 1
    33   19   20 ar
    34   19   34 1
    35   20   21 ar
    36   20   35 1
    37   21   22 ar
    38   21   36 1
    39   22   23 1
@<TRIPOS>MOLECULE
ZINC07999025
   36    39     0     0     0
SMALL
USER_CHARGES

@<TRIPOS>ATOM
      1 C1         -0.0175    1.3775   -0.0138 C.ar      1 <0>        -0.1306
      2 C2          1.0919    1.9439    0.5867 C.ar      1 <0>        -0.1015
      3 C3          2.2998    1.2741    0.5805 C.ar      1 <0>        -0.1400
      4 C4          2.3992    0.0304   -0.0291 C.ar      1 <0>         0.1368
      5 C5          1.2831   -0.5359   -0.6308 C.ar      1 <0>        -0.1205
      6 C6          0.0782    0.1392   -0.6216 C.ar      1 <0>        -0.1016
      7 N1          3.6215   -0.6506   -0.0375 N.am      1 <0>        -0.6574
      8 C7          3.6447   -1.9949    0.0568 C.2       1 <0>         0.5784
      9 O1          2.6055   -2.6203    0.0643 O.2       1 <0>        -0.4985
     10 C8          4.9618   -2.7209    0.1528 C.3       1 <0>         0.0282
     11 C9          5.0747   -3.8536    1.1717 C.3       1 <0>        -0.1363
     12 C10         5.0078   -4.1868   -0.3223 C.3       1 <0>        -0.1370
     13 H1          4.1047   -4.6465   -0.7238 H         1 <0>         0.1521
     14 C11         6.3346   -4.5713   -0.9744 C.2       1 <0>         0.1959
     15 N2          6.4217   -5.4417   -1.9280 N.2       1 <0>        -0.3085
     16 O2          5.2549   -6.0830   -2.4100 O.3       1 <0>        -0.3975
     17 C12         7.5153   -3.8621   -0.4216 C.ar      1 <0>        -0.1042
     18 C13         8.7569   -4.4773   -0.3285 C.ar      1 <0>        -0.0521
     19 C14         9.8229   -3.7776    0.2034 C.ar      1 <0>        -0.1360
     20 C15         9.6516   -2.4749    0.6407 C.ar      1 <0>        -0.0739
     21 C16         8.4199   -1.8546    0.5479 C.ar      1 <0>        -0.1308
     22 C17         7.3410   -2.5377    0.0120 C.ar      1 <0>         0.1318
     23 O3          6.1249   -1.9345   -0.1270 O.3       1 <0>        -0.2762
     24 H2         -0.9619    1.9015   -0.0040 H         1 <0>         0.1250
     25 H3          1.0139    2.9112    1.0606 H         1 <0>         0.1282
     26 H4          3.1661    1.7174    1.0490 H         1 <0>         0.1272
     27 H5          1.3573   -1.5029   -1.1061 H         1 <0>         0.1381
     28 H6         -0.7902   -0.3007   -1.0894 H         1 <0>         0.1273
     29 H7          4.4522   -0.1552   -0.1111 H         1 <0>         0.4198
     30 H8          6.0335   -3.9845    1.6732 H         1 <0>         0.1208
     31 H9          4.1949   -4.0755    1.7758 H         1 <0>         0.1310
     32 H10         5.4198   -6.7162   -3.1220 H         1 <0>         0.4088
     33 H11         8.8881   -5.4937   -0.6693 H         1 <0>         0.1373
     34 H12        10.7922   -4.2479    0.2786 H         1 <0>         0.1359
     35 H13        10.4898   -1.9377    1.0593 H         1 <0>         0.1381
     36 H14         8.2990   -0.8385    0.8932 H         1 <0>         0.1416
@<TRIPOS>BOND
     1    1    6 ar
     2    1    2 ar
     3    1   24 1
     4    2    3 ar
     5    2   25 1
     6    3    4 ar
     7    3   26 1
     8    4    5 ar
     9    4    7 1
    10    5    6 ar
    11    5   27 1
    12    6   28 1
    13    7    8 am
    14    7   29 1
    15    8    9 2
    16    8   10 1
    17   10   12 1
    18   10   23 1
    19   10   11 1
    20   11   12 1
    21   11   30 1
    22   11   31 1
    23   12   13 1
    24   12   14 1
    25   14   15 2
    26   14   17 1
    27   15   16 1
    28   16   32 1
    29   17   22 ar
    30   17   18 ar
    31   18   19 ar
    32   18   33 1
    33   19   20 ar
    34   19   34 1
    35   20   21 ar
    36   20   35 1
    37   21   22 ar
    38   21   36 1
    39   22   23 1
@<TRIPOS>MOLECULE
ZINC07999025
   36    39     0     0     0
SMALL
USER_CHARGES

@<TRIPOS>ATOM
      1 C1         -0.0175    1.3775   -0.0138 C.ar      1 <0>        -0.1305
      2 C2          1.0919    1.9439    0.5867 C.ar      1 <0>        -0.1016
      3 C3          2.2998    1.2741    0.5805 C.ar      1 <0>        -0.1399
      4 C4          2.3992    0.0304   -0.0291 C.ar      1 <0>         0.1366
      5 C5          1.2831   -0.5359   -0.6308 C.ar      1 <0>        -0.1201
      6 C6          0.0782    0.1392   -0.6216 C.ar      1 <0>        -0.1016
      7 N1          3.6215   -0.6506   -0.0375 N.am      1 <0>        -0.6568
      8 C7          3.6447   -1.9949    0.0568 C.2       1 <0>         0.5790
      9 O1          2.6055   -2.6203    0.0643 O.2       1 <0>        -0.4979
     10 C8          4.9618   -2.7209    0.1528 C.3       1 <0>         0.0297
     11 C9          5.0747   -3.8536    1.1717 C.3       1 <0>        -0.1358
     12 C10         5.0078   -4.1868   -0.3223 C.3       1 <0>        -0.0890
     13 H1          4.1047   -4.6465   -0.7238 H         1 <0>         0.1560
     14 C11         6.3346   -4.5713   -0.9744 C.2       1 <0>         0.1936
     15 N2          6.4217   -5.4417   -1.9280 N.2       1 <0>        -0.3077
     16 O2          7.6839   -5.7529   -2.4894 O.3       1 <0>        -0.3968
     17 C12         7.5153   -3.8621   -0.4216 C.ar      1 <0>        -0.1507
     18 C13         8.7569   -4.4773   -0.3285 C.ar      1 <0>        -0.0479
     19 C14         9.8229   -3.7776    0.2034 C.ar      1 <0>        -0.1390
     20 C15         9.6516   -2.4749    0.6407 C.ar      1 <0>        -0.0753
     21 C16         8.4199   -1.8546    0.5479 C.ar      1 <0>        -0.1345
     22 C17         7.3410   -2.5377    0.0120 C.ar      1 <0>         0.1282
     23 O3          6.1249   -1.9345   -0.1270 O.3       1 <0>        -0.2760
     24 H2         -0.9619    1.9015   -0.0040 H         1 <0>         0.1250
     25 H3          1.0139    2.9112    1.0606 H         1 <0>         0.1281
     26 H4          3.1661    1.7174    1.0490 H         1 <0>         0.1271
     27 H5          1.3573   -1.5029   -1.1061 H         1 <0>         0.1389
     28 H6         -0.7902   -0.3007   -1.0894 H         1 <0>         0.1274
     29 H7          4.4522   -0.1552   -0.1111 H         1 <0>         0.4200
     30 H8          6.0335   -3.9845    1.6732 H         1 <0>         0.1214
     31 H9          4.1949   -4.0755    1.7758 H         1 <0>         0.1356
     32 H10         7.6485   -6.4133   -3.1948 H         1 <0>         0.4064
     33 H11         8.8881   -5.4937   -0.6693 H         1 <0>         0.1390
     34 H12        10.7922   -4.2479    0.2786 H         1 <0>         0.1334
     35 H13        10.4898   -1.9377    1.0593 H         1 <0>         0.1364
     36 H14         8.2990   -0.8385    0.8932 H         1 <0>         0.1393
@<TRIPOS>BOND
     1    1    6 ar
     2    1    2 ar
     3    1   24 1
     4    2    3 ar
     5    2   25 1
     6    3    4 ar
     7    3   26 1
     8    4    5 ar
     9    4    7 1
    10    5    6 ar
    11    5   27 1
    12    6   28 1
    13    7    8 am
    14    7   29 1
    15    8    9 2
    16    8   10 1
    17   10   12 1
    18   10   23 1
    19   10   11 1
    20   11   12 1
    21   11   30 1
    22   11   31 1
    23   12   13 1
    24   12   14 1
    25   14   15 2
    26   14   17 1
    27   15   16 1
    28   16   32 1
    29   17   22 ar
    30   17   18 ar
    31   18   19 ar
    32   18   33 1
    33   19   20 ar
    34   19   34 1
    35   20   21 ar
    36   20   35 1
    37   21   22 ar
    38   21   36 1
    39   22   23 1
@<TRIPOS>MOLECULE
ZINC07992853
   47    50     0     0     0
SMALL
USER_CHARGES

@<TRIPOS>ATOM
      1 C1         -0.0173    1.4248    0.0099 C.3       1 <0>         0.0297
      2 O1          0.0021   -0.0041    0.0020 O.3       1 <0>        -0.3789
      3 C2          0.6518   -0.5703   -1.1379 C.3       1 <0>         0.0851
      4 C3         -0.3723   -0.7855   -2.2540 C.3       1 <0>        -0.1407
      5 C4         -1.4665   -1.7369   -1.7658 C.3       1 <0>        -0.1014
      6 C5         -0.8410   -3.0794   -1.3818 C.3       1 <0>        -0.1291
      7 C6          0.1831   -2.8641   -0.2656 C.3       1 <0>        -0.1035
      8 C7          1.2773   -1.9127   -0.7538 C.3       1 <0>        -0.1134
      9 C8         -1.9187   -4.0165   -0.9008 C.2       1 <0>         0.4036
     10 O2         -2.9475   -3.5710   -0.4382 O.2       1 <0>        -0.4480
     11 C9         -1.7231   -5.4702   -0.9924 C.ar      1 <0>        -0.1814
     12 C10        -0.5244   -5.9842   -1.5251 C.ar      1 <0>        -0.0559
     13 C11        -0.3221   -7.3218   -1.6193 C.ar      1 <0>        -0.1103
     14 C12        -1.3149   -8.2205   -1.1834 C.ar      1 <0>         0.1938
     15 C13        -2.5252   -7.7142   -0.6451 C.ar      1 <0>        -0.1468
     16 C14        -2.7191   -6.3317   -0.5479 C.ar      1 <0>        -0.0102
     17 C15        -3.5108   -8.6239   -0.2117 C.ar      1 <0>        -0.0164
     18 C16        -3.2619   -9.9615   -0.3297 C.ar      1 <0>        -0.1940
     19 C17        -2.0502  -10.4012   -0.8716 C.ar      1 <0>         0.3770
     20 N1         -1.1305   -9.5386   -1.2712 N.ar      1 <0>        -0.5043
     21 O3         -1.7795  -11.7237   -1.0115 O.3       1 <0>        -0.2993
     22 C18        -2.5637  -12.6497   -0.2597 C.3       1 <0>         0.0633
     23 C19        -4.0457  -12.3139   -0.4685 C.3       1 <0>        -0.1634
     24 C20        -4.3148  -10.9340    0.1373 C.3       1 <0>        -0.0788
     25 H1          1.0053    1.8021    0.0021 H         1 <0>         0.0404
     26 H2         -0.5445    1.7859   -0.8732 H         1 <0>         0.0403
     27 H3         -0.5275    1.7763    0.9067 H         1 <0>         0.0851
     28 H4          1.4313    0.1075   -1.4857 H         1 <0>         0.0620
     29 H5         -0.8179    0.1709   -2.5276 H         1 <0>         0.0669
     30 H6          0.1233   -1.2174   -3.1235 H         1 <0>         0.0729
     31 H7         -1.9621   -1.3050   -0.8963 H         1 <0>         0.0812
     32 H8         -2.1960   -1.8902   -2.5610 H         1 <0>         0.0625
     33 H9         -0.3454   -3.5112   -2.2512 H         1 <0>         0.0965
     34 H10        -0.3125   -2.4323    0.6039 H         1 <0>         0.0782
     35 H11         0.6287   -3.8205    0.0080 H         1 <0>         0.0692
     36 H12         1.7729   -2.3446   -1.6233 H         1 <0>         0.0783
     37 H13         2.0069   -1.7594    0.0414 H         1 <0>         0.0743
     38 H14         0.2433   -5.3040   -1.8631 H         1 <0>         0.1405
     39 H15         0.6028   -7.6989   -2.0301 H         1 <0>         0.1431
     40 H16        -3.6362   -5.9377   -0.1353 H         1 <0>         0.1423
     41 H17        -4.4425   -8.2708    0.2049 H         1 <0>         0.1473
     42 H18        -2.3655  -13.6638   -0.6067 H         1 <0>         0.1195
     43 H19        -2.3147  -12.5663    0.7982 H         1 <0>         0.0717
     44 H20        -4.2723  -12.2978   -1.5345 H         1 <0>         0.0820
     45 H21        -4.6652  -13.0605    0.0283 H         1 <0>         0.0941
     46 H22        -4.2877  -11.0035    1.2248 H         1 <0>         0.0857
     47 H23        -5.2976  -10.5843   -0.1790 H         1 <0>         0.0890
@<TRIPOS>BOND
     1    1    2 1
     2    1   25 1
     3    1   26 1
     4    1   27 1
     5    2    3 1
     6    3    8 1
     7    3    4 1
     8    3   28 1
     9    4    5 1
    10    4   29 1
    11    4   30 1
    12    5    6 1
    13    5   31 1
    14    5   32 1
    15    6    7 1
    16    6    9 1
    17    6   33 1
    18    7    8 1
    19    7   34 1
    20    7   35 1
    21    8   36 1
    22    8   37 1
    23    9   10 2
    24    9   11 1
    25   11   16 ar
    26   11   12 ar
    27   12   13 ar
    28   12   38 1
    29   13   14 ar
    30   13   39 1
    31   14   20 ar
    32   14   15 ar
    33   15   16 ar
    34   15   17 ar
    35   16   40 1
    36   17   18 ar
    37   17   41 1
    38   18   24 1
    39   18   19 ar
    40   19   20 ar
    41   19   21 1
    42   21   22 1
    43   22   23 1
    44   22   42 1
    45   22   43 1
    46   23   24 1
    47   23   44 1
    48   23   45 1
    49   24   46 1
    50   24   47 1
@<TRIPOS>MOLECULE
ZINC13613025
   49    51     0     0     0
SMALL
USER_CHARGES
(3-ethyl-2-methoxy-6-quinolyl)-(4-methoxycyclohexyl)methanone
@<TRIPOS>ATOM
      1 C1          2.9997    6.1288    0.3872 C.3       1 <0>        -0.1473
      2 C2          2.3753    5.6351   -0.9195 C.3       1 <0>        -0.0751
      3 C3          2.3061    4.1297   -0.9059 C.ar      1 <0>        -0.1415
      4 C4          1.1347    3.5026   -0.6023 C.ar      1 <0>        -0.0200
      5 C5          1.1129    2.0918   -0.6013 C.ar      1 <0>        -0.1457
      6 C6         -0.0577    1.3869   -0.2982 C.ar      1 <0>        -0.0077
      7 C7         -0.0390   -0.0028   -0.3067 C.ar      1 <0>        -0.1842
      8 C8          1.1473   -0.6959   -0.6181 C.ar      1 <0>        -0.0571
      9 C9          2.2881   -0.0248   -0.9135 C.ar      1 <0>        -0.1143
     10 C10         2.3010    1.3833   -0.9131 C.ar      1 <0>         0.1913
     11 N1          3.4189    2.0559   -1.2025 N.ar      1 <0>        -0.5435
     12 C11         3.4451    3.3722   -1.2054 C.ar      1 <0>         0.3693
     13 O1          4.6026    4.0095   -1.5052 O.3       1 <0>        -0.2993
     14 C12         5.7355    3.1911   -1.8029 C.3       1 <0>         0.0369
     15 C13        -1.2626   -0.7527    0.0101 C.2       1 <0>         0.4038
     16 O2         -2.2855   -0.1589    0.2782 O.2       1 <0>        -0.4386
     17 C14        -1.2462   -2.2596    0.0019 C.3       1 <0>        -0.1260
     18 C15        -1.2544   -2.7618   -1.4434 C.3       1 <0>        -0.1077
     19 C16        -2.5160   -2.2617   -2.1499 C.3       1 <0>        -0.1463
     20 C17        -3.7527   -2.7891   -1.4196 C.3       1 <0>         0.0919
     21 C18        -3.7444   -2.2869    0.0256 C.3       1 <0>        -0.1411
     22 C19        -2.4828   -2.7871    0.7321 C.3       1 <0>        -0.1022
     23 O3         -4.9309   -2.3220   -2.0795 O.3       1 <0>        -0.3837
     24 C20        -5.4058   -3.1937   -3.1074 C.3       1 <0>         0.0300
     25 H1          4.0051    5.7197    0.4867 H         1 <0>         0.0585
     26 H2          3.0497    7.2176    0.3773 H         1 <0>         0.0625
     27 H3          2.3890    5.8007    1.2283 H         1 <0>         0.0540
     28 H4          2.9860    5.9631   -1.7607 H         1 <0>         0.0814
     29 H5          1.3699    6.0441   -1.0191 H         1 <0>         0.0765
     30 H6          0.2464    4.0707   -0.3685 H         1 <0>         0.1512
     31 H7         -0.9684    1.9181   -0.0641 H         1 <0>         0.1432
     32 H8          1.1483   -1.7759   -0.6212 H         1 <0>         0.1384
     33 H9          3.1889   -0.5716   -1.1500 H         1 <0>         0.1401
     34 H10         5.9630    2.5592   -0.9443 H         1 <0>         0.0619
     35 H11         5.5141    2.5643   -2.6668 H         1 <0>         0.0619
     36 H12         6.5938    3.8254   -2.0247 H         1 <0>         0.0999
     37 H13        -0.4217   -2.5865    0.4637 H         1 <0>         0.0938
     38 H14        -0.3734   -2.3861   -1.9636 H         1 <0>         0.0758
     39 H15        -1.2426   -3.8518   -1.4493 H         1 <0>         0.0792
     40 H16        -2.5219   -2.6194   -3.1795 H         1 <0>         0.0673
     41 H17        -2.5278   -1.1717   -2.1439 H         1 <0>         0.0706
     42 H18        -3.7408   -3.8791   -1.4256 H         1 <0>         0.0573
     43 H19        -4.6254   -2.6627    0.5459 H         1 <0>         0.0655
     44 H20        -3.7562   -1.1970    0.0316 H         1 <0>         0.1102
     45 H21        -2.4710   -3.8770    0.7262 H         1 <0>         0.0706
     46 H22        -2.4770   -2.4293    1.7617 H         1 <0>         0.0727
     47 H23        -4.6353   -3.3105   -3.8694 H         1 <0>         0.0396
     48 H24        -5.6423   -4.1671   -2.6777 H         1 <0>         0.0407
     49 H25        -6.3020   -2.7685   -3.5591 H         1 <0>         0.0853
@<TRIPOS>BOND
     1    1    2 1
     2    1   25 1
     3    1   26 1
     4    1   27 1
     5    2    3 1
     6    2   28 1
     7    2   29 1
     8    3   12 ar
     9    3    4 ar
    10    4    5 ar
    11    4   30 1
    12    5   10 ar
    13    5    6 ar
    14    6    7 ar
    15    6   31 1
    16    7    8 ar
    17    7   15 1
    18    8    9 ar
    19    8   32 1
    20    9   10 ar
    21    9   33 1
    22   10   11 ar
    23   11   12 ar
    24   12   13 1
    25   13   14 1
    26   14   34 1
    27   14   35 1
    28   14   36 1
    29   15   16 2
    30   15   17 1
    31   17   22 1
    32   17   18 1
    33   17   37 1
    34   18   19 1
    35   18   38 1
    36   18   39 1
    37   19   20 1
    38   19   40 1
    39   19   41 1
    40   20   21 1
    41   20   23 1
    42   20   42 1
    43   21   22 1
    44   21   43 1
    45   21   44 1
    46   22   45 1
    47   22   46 1
    48   23   24 1
    49   24   47 1
    50   24   48 1
    51   24   49 1
@<TRIPOS>MOLECULE
ZINC13613027
   45    47     0     0     0
SMALL
USER_CHARGES
(2-chloro-3-ethyl-6-quinolyl)-(4-methoxycyclohexyl)methanone
@<TRIPOS>ATOM
      1 C1          3.0105    6.1243    0.3810 C.3       1 <0>        -0.1509
      2 C2          2.3860    5.6300   -0.9254 C.3       1 <0>        -0.0857
      3 C3          2.3132    4.1248   -0.9094 C.ar      1 <0>        -0.1241
      4 C4          1.1377    3.5003   -0.6053 C.ar      1 <0>        -0.0325
      5 C5          1.1142    2.0911   -0.6019 C.ar      1 <0>        -0.1141
      6 C6         -0.0576    1.3860   -0.2984 C.ar      1 <0>        -0.0208
      7 C7         -0.0389   -0.0028   -0.3070 C.ar      1 <0>        -0.1639
      8 C8          1.1473   -0.6963   -0.6180 C.ar      1 <0>        -0.0654
      9 C9          2.2886   -0.0260   -0.9131 C.ar      1 <0>        -0.0965
     10 C10         2.3022    1.3822   -0.9134 C.ar      1 <0>         0.1611
     11 N1          3.4197    2.0550   -1.2022 N.ar      1 <0>        -0.4690
     12 C11         3.4461    3.3676   -1.2056 C.ar      1 <0>         0.2228
     13 Cl1         4.9304    4.1820   -1.5895 Cl        1 <0>        -0.0161
     14 C12        -1.2633   -0.7529    0.0096 C.2       1 <0>         0.4022
     15 O1         -2.2861   -0.1589    0.2774 O.2       1 <0>        -0.4334
     16 C13        -1.2471   -2.2598    0.0014 C.3       1 <0>        -0.1258
     17 C14        -1.2548   -2.7620   -1.4439 C.3       1 <0>        -0.1083
     18 C15        -2.5160   -2.2616   -2.1509 C.3       1 <0>        -0.1466
     19 C16        -3.7531   -2.7889   -1.4211 C.3       1 <0>         0.0917
     20 C17        -3.7453   -2.2867    0.0241 C.3       1 <0>        -0.1412
     21 C18        -2.4841   -2.7871    0.7312 C.3       1 <0>        -0.1025
     22 O2         -4.9310   -2.3216   -2.0814 O.3       1 <0>        -0.3837
     23 C19        -5.4056   -3.1933   -3.1095 C.3       1 <0>         0.0298
     24 H1          2.3983    5.7991    1.2222 H         1 <0>         0.0569
     25 H2          4.0148    5.7130    0.4821 H         1 <0>         0.0597
     26 H3          3.0632    7.2130    0.3694 H         1 <0>         0.0665
     27 H4          2.9982    5.9552   -1.7666 H         1 <0>         0.0846
     28 H5          1.3817    6.0413   -1.0265 H         1 <0>         0.0823
     29 H6          0.2505    4.0706   -0.3730 H         1 <0>         0.1539
     30 H7         -0.9683    1.9174   -0.0643 H         1 <0>         0.1469
     31 H8          1.1478   -1.7763   -0.6210 H         1 <0>         0.1425
     32 H9          3.1892   -0.5734   -1.1490 H         1 <0>         0.1454
     33 H10        -0.4228   -2.5868    0.4635 H         1 <0>         0.0948
     34 H11        -0.3736   -2.3863   -1.9638 H         1 <0>         0.0760
     35 H12        -1.2431   -3.8519   -1.4498 H         1 <0>         0.0805
     36 H13        -2.5216   -2.6194   -3.1805 H         1 <0>         0.0681
     37 H14        -2.5277   -1.1717   -2.1449 H         1 <0>         0.0701
     38 H15        -3.7414   -3.8789   -1.4270 H         1 <0>         0.0579
     39 H16        -4.6266   -2.6624    0.5441 H         1 <0>         0.0663
     40 H17        -3.7570   -1.1968    0.0301 H         1 <0>         0.1095
     41 H18        -2.4724   -3.8770    0.7252 H         1 <0>         0.0717
     42 H19        -2.4786   -2.4293    1.7607 H         1 <0>         0.0732
     43 H20        -4.6348   -3.3102   -3.8713 H         1 <0>         0.0398
     44 H21        -5.6425   -4.1667   -2.6799 H         1 <0>         0.0410
     45 H22        -6.3016   -2.7679   -3.5616 H         1 <0>         0.0855
@<TRIPOS>BOND
     1    1    2 1
     2    1   24 1
     3    1   25 1
     4    1   26 1
     5    2    3 1
     6    2   27 1
     7    2   28 1
     8    3   12 ar
     9    3    4 ar
    10    4    5 ar
    11    4   29 1
    12    5   10 ar
    13    5    6 ar
    14    6    7 ar
    15    6   30 1
    16    7    8 ar
    17    7   14 1
    18    8    9 ar
    19    8   31 1
    20    9   10 ar
    21    9   32 1
    22   10   11 ar
    23   11   12 ar
    24   12   13 1
    25   14   15 2
    26   14   16 1
    27   16   21 1
    28   16   17 1
    29   16   33 1
    30   17   18 1
    31   17   34 1
    32   17   35 1
    33   18   19 1
    34   18   36 1
    35   18   37 1
    36   19   20 1
    37   19   22 1
    38   19   38 1
    39   20   21 1
    40   20   39 1
    41   20   40 1
    42   21   41 1
    43   21   42 1
    44   22   23 1
    45   23   43 1
    46   23   44 1
    47   23   45 1
@<TRIPOS>MOLECULE
ZINC13779018
   19    19     0     0     0
SMALL
USER_CHARGES

@<TRIPOS>ATOM
      1 C1         -0.0187    1.5258    0.0104 C.3       1 <0>         0.1559
      2 C2          0.0021   -0.0041    0.0020 C.3       1 <0>        -0.0639
      3 H1          0.4501   -0.3665    0.9272 H         1 <0>         0.1320
      4 C3         -1.4075   -0.5249   -0.1112 C.2       1 <0>         0.4991
      5 O1         -1.7761   -1.0680   -1.1386 O.co2     1 <0>        -0.6678
      6 O2         -2.1794   -0.4033    0.8248 O.co2     1 <0>        -0.6405
      7 N1          0.7922   -0.4768   -1.1426 N.4       1 <0>        -0.6027
      8 N2          1.3557    2.0329    0.0000 N.pl3     1 <0>        -0.5059
      9 C4          2.1974    2.0610   -1.0502 C.2       1 <0>         0.5942
     10 O3          1.9169    1.6204   -2.2941 O.3       1 <0>        -0.6607
     11 N3          3.3403    2.5907   -0.6628 N.2       1 <0>        -0.6559
     12 C5          3.2823    2.9189    0.6279 C.2       1 <0>         0.5845
     13 O4          4.1815    3.4284    1.2748 O.2       1 <0>        -0.5268
     14 O5          2.0627    2.5981    1.0944 O.3       1 <0>        -0.1559
     15 H2         -0.5459    1.8868   -0.8726 H         1 <0>         0.1126
     16 H3         -0.5289    1.8773    0.9072 H         1 <0>         0.1283
     17 H4          0.3774   -0.1413   -1.9991 H         1 <0>         0.4369
     18 H5          1.7359   -0.1280   -1.0669 H         1 <0>         0.4173
     19 H6          0.8059   -1.4857   -1.1482 H         1 <0>         0.4191
@<TRIPOS>BOND
     1    1    2 1
     2    1    8 1
     3    1   15 1
     4    1   16 1
     5    2    3 1
     6    2    4 1
     7    2    7 1
     8    4    5 2
     9    4    6 1
    10    7   17 1
    11    7   18 1
    12    7   19 1
    13    8   14 1
    14    8    9 1
    15    9   10 1
    16    9   11 2
    17   11   12 1
    18   12   13 2
    19   12   14 1
@<TRIPOS>MOLECULE
ZINC13779018
   20    20     0     0     0
SMALL
USER_CHARGES

@<TRIPOS>ATOM
      1 C1         -0.0187    1.5258    0.0104 C.3       1 <0>         0.1622
      2 C2          0.0021   -0.0041    0.0020 C.3       1 <0>         0.0738
      3 H1          0.4501   -0.3665    0.9272 H         1 <0>         0.1320
      4 C3         -1.4075   -0.5249   -0.1112 C.2       1 <0>         0.4457
      5 O1         -1.8299   -0.8975   -1.1801 O.2       1 <0>        -0.5041
      6 O2         -2.1938   -0.5750    0.9756 O.3       1 <0>        -0.5011
      7 N1          0.7922   -0.4768   -1.1426 N.3       1 <0>        -0.8119
      8 N2          1.3557    2.0329    0.0000 N.pl3     1 <0>        -0.4321
      9 C4          2.1974    2.0610   -1.0502 C.2       1 <0>         0.6249
     10 N3          3.3406    2.5899   -0.6626 N.2       1 <0>        -0.6311
     11 C5          3.2828    2.9177    0.6282 C.2       1 <0>         0.5998
     12 O3          4.1822    3.4265    1.2753 O.2       1 <0>        -0.4634
     13 O4          2.0627    2.5981    1.0944 O.3       1 <0>        -0.1103
     14 O5          1.9169    1.6204   -2.2941 O.3       1 <0>        -0.4110
     15 H2         -0.5459    1.8868   -0.8726 H         1 <0>         0.1177
     16 H3         -0.5289    1.8773    0.9072 H         1 <0>         0.1297
     17 H4         -3.0795   -0.9232    0.8045 H         1 <0>         0.4131
     18 H5          0.8750   -1.4823   -1.1342 H         1 <0>         0.3592
     19 H6          0.3968   -0.1538   -2.0130 H         1 <0>         0.3617
     20 H7          2.6463    1.7214   -2.9209 H         1 <0>         0.4452
@<TRIPOS>BOND
     1    1    2 1
     2    1    8 1
     3    1   15 1
     4    1   16 1
     5    2    3 1
     6    2    4 1
     7    2    7 1
     8    4    5 2
     9    4    6 1
    10    6   17 1
    11    7   18 1
    12    7   19 1
    13    8   13 1
    14    8    9 1
    15    9   10 2
    16    9   14 1
    17   10   11 1
    18   11   12 2
    19   11   13 1
    20   14   20 1
@<TRIPOS>MOLECULE
ZINC04391801
   23    24     0     0     0
SMALL
USER_CHARGES
3-aminobicyclo[2.1.1]hexane-3,5-dicarboxylic acid
@<TRIPOS>ATOM
      1 C1         -0.1932    1.8486    1.3557 C.3       1 <0>        -0.1075
      2 C2         -0.0127    1.0858    0.0080 C.3       1 <0>        -0.1190
      3 H1          0.0021   -0.0041    0.0020 H         1 <0>         0.1102
      4 C3         -0.8680    1.8164   -1.0830 C.3       1 <0>        -0.1018
      5 C4         -0.5567    3.3008   -0.6708 C.3       1 <0>         0.0043
      6 C5          0.4072    3.0300    0.5346 C.3       1 <0>        -0.1028
      7 H2          0.8428    3.8891    1.0448 H         1 <0>         0.1136
      8 C6          1.3119    1.8907   -0.0003 C.3       1 <0>        -0.1477
      9 H3          1.7207    2.0692   -0.9949 H         1 <0>         0.0572
     10 C7          2.3393    1.4013    0.9875 C.2       1 <0>         0.4810
     11 O1          2.4893    1.9777    2.0388 O.co2     1 <0>        -0.6253
     12 C8         -1.7980    4.0331   -0.2304 C.2       1 <0>         0.4745
     13 O2         -2.1775    3.9453    0.9133 O.co2     1 <0>        -0.5698
     14 H4         -1.2312    1.9915    1.6558 H         1 <0>         0.0810
     15 H5          0.4460    1.4918    2.1633 H         1 <0>         0.1155
     16 H6         -0.5164    1.5826   -2.0879 H         1 <0>         0.0842
     17 H7         -1.9293    1.5935   -0.9730 H         1 <0>         0.0957
     18 H8         -0.4992    4.1875   -2.5280 H         1 <0>         0.4340
     19 H9          0.5323    4.8784   -1.4215 H         1 <0>         0.4272
     20 O3          3.0880    0.3250    0.6995 O.co2     1 <0>        -0.7600
     21 O4         -2.4821    4.7830   -1.1088 O.co2     1 <0>        -0.7509
     22 N1          0.1452    3.9998   -1.7617 N.4       1 <0>        -0.6124
     23 H10         0.9103    3.4072   -2.1050 H         1 <0>         0.4190
@<TRIPOS>BOND
     1    1    6 1
     2    1    2 1
     3    1   14 1
     4    1   15 1
     5    2    3 1
     6    2    8 1
     7    2    4 1
     8    4    5 1
     9    4   16 1
    10    4   17 1
    11    5    6 1
    12    5   12 1
    13    5   22 1
    14    6    7 1
    15    6    8 1
    16    8    9 1
    17    8   10 1
    18   10   11 2
    19   10   20 1
    20   12   13 2
    21   12   21 1
    22   18   22 1
    23   19   22 1
    24   22   23 1
@<TRIPOS>MOLECULE
ZINC25720507
   16    16     0     0     0
SMALL
USER_CHARGES

@<TRIPOS>ATOM
      1 C1         -0.0171    1.4063    0.0098 C.2       1 <0>        -0.3479
      2 C2         -1.3010    1.8118    0.0183 C.2       1 <0>         0.1234
      3 O1         -2.0979    0.7371    0.0165 O.3       1 <0>        -0.0447
      4 N1         -1.2818   -0.4209    0.0061 N.am      1 <0>        -0.5850
      5 C3          0.0021   -0.0041    0.0020 C.2       1 <0>         0.5367
      6 O2          0.9941   -0.7148   -0.0119 O.2       1 <0>        -0.5394
      7 C4         -1.7655    3.2454    0.0289 C.3       1 <0>         0.0826
      8 H1         -0.9032    3.9061    0.1181 H         1 <0>         0.1200
      9 C5         -2.4978    3.5456   -1.2536 C.2       1 <0>         0.5051
     10 O3         -3.7035    3.7263   -1.2391 O.co2     1 <0>        -0.6618
     11 O4         -1.8846    3.6077   -2.3055 O.co2     1 <0>        -0.6809
     12 N2         -2.6667    3.4597    1.1690 N.3       1 <0>        -0.8080
     13 H2          0.8497    2.0506    0.0050 H         1 <0>         0.1700
     14 H3         -3.4746    2.8582    1.1094 H         1 <0>         0.3518
     15 H4         -2.1811    3.3274    2.0436 H         1 <0>         0.3283
     16 H5         -1.5883   -1.3412    0.0026 H         1 <0>         0.4499
@<TRIPOS>BOND
     1    1    5 1
     2    1   13 1
     3    1    2 2
     4    2    3 1
     5    2    7 1
     6    3    4 1
     7    4    5 am
     8    4   16 1
     9    5    6 2
    10    7    8 1
    11    7    9 1
    12    7   12 1
    13    9   10 2
    14    9   11 1
    15   12   14 1
    16   12   15 1
@<TRIPOS>MOLECULE
ZINC00968043
   22    22     0     0     0
SMALL
USER_CHARGES

@<TRIPOS>ATOM
      1 C1         -0.0167    1.3835    0.0096 C.ar      1 <0>        -0.1260
      2 C2          1.1697    2.0917    0.0021 C.ar      1 <0>        -0.0725
      3 C3          2.3775    1.4207   -0.0130 C.ar      1 <0>        -0.1545
      4 C4          2.4016    0.0332   -0.0212 C.ar      1 <0>         0.1359
      5 C5          1.2126   -0.6797   -0.0137 C.ar      1 <0>        -0.1635
      6 C6          0.0021   -0.0041    0.0020 C.ar      1 <0>         0.1355
      7 O1         -1.1651   -0.7001    0.0099 O.3       1 <0>        -0.4909
      8 O2          3.5897   -0.6262   -0.0370 O.3       1 <0>        -0.4962
      9 C7          1.1464    3.5985    0.0100 C.3       1 <0>        -0.0046
     10 H1          0.1719    3.9486   -0.3306 H         1 <0>         0.1442
     11 C8          1.3984    4.0976    1.4094 C.2       1 <0>         0.4934
     12 O3          2.5383    4.3165    1.7826 O.co2     1 <0>        -0.6614
     13 O4          0.4624    4.2823    2.1685 O.co2     1 <0>        -0.6274
     14 N1          2.1912    4.1091   -0.8875 N.4       1 <0>        -0.6126
     15 H2         -0.9594    1.9102    0.0260 H         1 <0>         0.1424
     16 H3          3.3035    1.9765   -0.0189 H         1 <0>         0.1325
     17 H4          1.2293   -1.7595   -0.0204 H         1 <0>         0.1421
     18 H5         -1.5117   -0.8968   -0.8712 H         1 <0>         0.3968
     19 H6          3.9426   -0.8221    0.8418 H         1 <0>         0.4012
     20 H7          2.0225    3.7750   -1.8245 H         1 <0>         0.4189
     21 H8          2.1756    5.1180   -0.8823 H         1 <0>         0.4346
     22 H9          3.0933    3.7850   -0.5722 H         1 <0>         0.4321
@<TRIPOS>BOND
     1    1    6 ar
     2    1    2 ar
     3    1   15 1
     4    2    3 ar
     5    2    9 1
     6    3    4 ar
     7    3   16 1
     8    4    5 ar
     9    4    8 1
    10    5    6 ar
    11    5   17 1
    12    6    7 1
    13    7   18 1
    14    8   19 1
    15    9   10 1
    16    9   11 1
    17    9   14 1
    18   11   12 2
    19   11   13 1
    20   14   20 1
    21   14   21 1
    22   14   22 1
@<TRIPOS>MOLECULE
ZINC01482113
   18    17     0     0     0
SMALL
USER_CHARGES

@<TRIPOS>ATOM
      1 C1         -0.0187    1.5258    0.0104 C.3       1 <0>        -0.1000
      2 C2          0.0021   -0.0041    0.0020 C.3       1 <0>        -0.1962
      3 C3         -1.4117   -0.5257    0.0127 C.2       1 <0>         0.4893
      4 O1         -2.3491    0.2539    0.0259 O.co2     1 <0>        -0.6870
      5 O2         -1.6182   -1.7273    0.0082 O.co2     1 <0>        -0.7019
      6 C4          1.4167    2.0553   -0.0004 C.3       1 <0>        -0.0520
      7 H1          1.9535    1.6326   -0.8497 H         1 <0>         0.1269
      8 C5          1.3970    3.5578   -0.1160 C.2       1 <0>         0.4945
      9 O3          1.7295    4.2467    0.8334 O.co2     1 <0>        -0.6861
     10 O4          1.0484    4.0844   -1.1589 O.co2     1 <0>        -0.6413
     11 N1          2.0906    1.6690    1.2464 N.4       1 <0>        -0.6105
     12 H2         -0.5459    1.8868   -0.8726 H         1 <0>         0.1064
     13 H3         -0.5289    1.8773    0.9072 H         1 <0>         0.0773
     14 H4          0.5123   -0.3556   -0.8948 H         1 <0>         0.0672
     15 H5          0.5293   -0.3651    0.8851 H         1 <0>         0.0471
     16 H6          2.1039    0.6630    1.3237 H         1 <0>         0.4141
     17 H7          3.0372    2.0182    1.2392 H         1 <0>         0.4227
     18 H8          1.5937    2.0603    2.0325 H         1 <0>         0.4293
@<TRIPOS>BOND
     1    1    2 1
     2    1    6 1
     3    1   12 1
     4    1   13 1
     5    2    3 1
     6    2   14 1
     7    2   15 1
     8    3    4 2
     9    3    5 1
    10    6    7 1
    11    6    8 1
    12    6   11 1
    13    8    9 2
    14    8   10 1
    15   11   16 1
    16   11   17 1
    17   11   18 1
@<TRIPOS>MOLECULE
ZINC00895124
   18    17     0     0     0
SMALL
USER_CHARGES

@<TRIPOS>ATOM
      1 C1         -0.0187    1.5258    0.0104 C.3       1 <0>        -0.1010
      2 C2          0.0021   -0.0041    0.0020 C.3       1 <0>        -0.1959
      3 C3         -1.4117   -0.5257    0.0127 C.2       1 <0>         0.4893
      4 O1         -2.3491    0.2539    0.0259 O.co2     1 <0>        -0.6871
      5 O2         -1.6182   -1.7273    0.0082 O.co2     1 <0>        -0.7016
      6 C4          1.4167    2.0553   -0.0004 C.3       1 <0>        -0.0510
      7 H1          1.9696    1.6236    0.8338 H         1 <0>         0.1263
      8 C5          1.3993    3.5565    0.1316 C.2       1 <0>         0.4931
      9 O3          1.4342    4.0717    1.2361 O.co2     1 <0>        -0.6465
     10 O4          1.3504    4.2557   -0.8660 O.co2     1 <0>        -0.6784
     11 N1          2.0667    1.6824   -1.2639 N.4       1 <0>        -0.6121
     12 H2         -0.5459    1.8868   -0.8726 H         1 <0>         0.0805
     13 H3         -0.5289    1.8773    0.9072 H         1 <0>         0.1026
     14 H4          0.5123   -0.3556   -0.8948 H         1 <0>         0.0475
     15 H5          0.5293   -0.3651    0.8851 H         1 <0>         0.0673
     16 H6          3.0133    2.0317   -1.2711 H         1 <0>         0.4211
     17 H7          2.0783    0.6774   -1.3524 H         1 <0>         0.4148
     18 H8          1.5549    2.0821   -2.0362 H         1 <0>         0.4310
@<TRIPOS>BOND
     1    1    2 1
     2    1    6 1
     3    1   12 1
     4    1   13 1
     5    2    3 1
     6    2   14 1
     7    2   15 1
     8    3    4 2
     9    3    5 1
    10    6    7 1
    11    6    8 1
    12    6   11 1
    13    8    9 2
    14    8   10 1
    15   11   16 1
    16   11   17 1
    17   11   18 1
@<TRIPOS>MOLECULE
ZINC02559033
   22    22     0     0     0
SMALL
USER_CHARGES

@<TRIPOS>ATOM
      1 C1         -0.0167    1.3796    0.0096 C.ar      1 <0>        -0.1019
      2 C2          1.1662    2.0887    0.0021 C.ar      1 <0>        -0.0799
      3 C3          2.3855    1.4066   -0.0131 C.ar      1 <0>        -0.1179
      4 C4          2.3967    0.0095   -0.0207 C.ar      1 <0>        -0.0785
      5 C5          1.2059   -0.6864   -0.0130 C.ar      1 <0>        -0.1400
      6 C6          0.0021   -0.0041    0.0020 C.ar      1 <0>        -0.1215
      7 C7         -1.2948   -0.7716    0.0107 C.3       1 <0>         0.0018
      8 H1         -2.0958   -0.1275    0.3736 H         1 <0>         0.1348
      9 C8         -1.6153   -1.2323   -1.3879 C.2       1 <0>         0.4982
     10 O1         -1.5480   -2.4165   -1.6701 O.co2     1 <0>        -0.6793
     11 O2         -1.9417   -0.4208   -2.2372 O.co2     1 <0>        -0.6314
     12 N1         -1.1670   -1.9388    0.8935 N.4       1 <0>        -0.6099
     13 C9          3.6552    2.1581   -0.0217 C.2       1 <0>         0.5176
     14 O3          3.6420    3.3809   -0.0154 O.co2     1 <0>        -0.6819
     15 O4          4.7207    1.5581   -0.0350 O.co2     1 <0>        -0.6836
     16 H2         -0.9599    1.9055    0.0260 H         1 <0>         0.1224
     17 H3          1.1501    3.1686    0.0077 H         1 <0>         0.1337
     18 H4          3.3355   -0.5243   -0.0328 H         1 <0>         0.1324
     19 H5          1.2130   -1.7663   -0.0192 H         1 <0>         0.1108
     20 H6         -2.0353   -2.4527    0.8993 H         1 <0>         0.4280
     21 H7         -0.4256   -2.5350    0.5576 H         1 <0>         0.4299
     22 H8         -0.9525   -1.6304    1.8299 H         1 <0>         0.4163
@<TRIPOS>BOND
     1    1    6 ar
     2    1    2 ar
     3    1   16 1
     4    2    3 ar
     5    2   17 1
     6    3    4 ar
     7    3   13 1
     8    4    5 ar
     9    4   18 1
    10    5    6 ar
    11    5   19 1
    12    6    7 1
    13    7    8 1
    14    7    9 1
    15    7   12 1
    16    9   10 2
    17    9   11 1
    18   12   20 1
    19   12   21 1
    20   12   22 1
    21   13   14 2
    22   13   15 1
