@<TRIPOS>MOLECULE
ZINC58593499
   26    27     0     0     0
SMALL
USER_CHARGES

@<TRIPOS>ATOM
      1 C1         -0.0167    1.3796    0.0096 C.ar      1 <0>        -0.1115
      2 C2          1.1681    2.0946    0.0022 C.ar      1 <0>        -0.1219
      3 C3          2.3774    1.4318   -0.0130 C.ar      1 <0>        -0.0982
      4 C4          2.4043    0.0345   -0.0208 C.ar      1 <0>        -0.0736
      5 C5          1.2037   -0.6807   -0.0131 C.ar      1 <0>        -0.1055
      6 C6          0.0021   -0.0041    0.0020 C.ar      1 <0>        -0.1212
      7 C7          3.6924   -0.6811   -0.0374 C.2       1 <0>        -0.0397
      8 C8          3.7144   -2.0244   -0.0449 C.2       1 <0>        -0.1364
      9 C9          5.0014   -2.7395   -0.0615 C.ar      1 <0>         0.2520
     10 C10         5.0378   -4.1406   -0.0753 C.ar      1 <0>        -0.2806
     11 C11         6.2699   -4.7664   -0.0911 C.ar      1 <0>         0.1942
     12 N1          7.3711   -4.0305   -0.0928 N.ar      1 <0>        -0.5785
     13 C12         7.3090   -2.7067   -0.0796 C.ar      1 <0>         0.5703
     14 N2          6.1522   -2.0643   -0.0693 N.ar      1 <0>        -0.5729
     15 N3          8.4851   -1.9769   -0.0819 N.pl3     1 <0>        -0.8226
     16 H1         -0.9607    1.9041    0.0260 H         1 <0>         0.1240
     17 H2          1.1457    3.1744    0.0078 H         1 <0>         0.1257
     18 H3          3.3013    1.9911   -0.0191 H         1 <0>         0.1268
     19 H4          1.2168   -1.7606   -0.0191 H         1 <0>         0.1270
     20 H5         -0.9266   -0.5554    0.0079 H         1 <0>         0.1256
     21 H6          4.6186   -0.1258   -0.0436 H         1 <0>         0.1356
     22 H7          2.7882   -2.5797   -0.0386 H         1 <0>         0.1372
     23 H8          4.1247   -4.7174   -0.0732 H         1 <0>         0.1458
     24 H9          6.3342   -5.8444   -0.1017 H         1 <0>         0.1692
     25 H10         9.3401   -2.4349   -0.0931 H         1 <0>         0.4151
     26 H11         8.4543   -1.0074   -0.0723 H         1 <0>         0.4140
@<TRIPOS>BOND
     1    1    6 ar
     2    1    2 ar
     3    1   16 1
     4    2    3 ar
     5    2   17 1
     6    3    4 ar
     7    3   18 1
     8    4    5 ar
     9    4    7 1
    10    5    6 ar
    11    5   19 1
    12    6   20 1
    13    7    8 2
    14    7   21 1
    15    8    9 1
    16    8   22 1
    17    9   14 ar
    18    9   10 ar
    19   10   11 ar
    20   10   23 1
    21   11   12 ar
    22   11   24 1
    23   12   13 ar
    24   13   14 ar
    25   13   15 1
    26   15   25 1
    27   15   26 1
@<TRIPOS>MOLECULE
ZINC00813644
   41    43     0     0     0
SMALL
USER_CHARGES

@<TRIPOS>ATOM
      1 C1          0.7398    0.9656   -0.7552 C.3       1 <0>         0.0282
      2 O1          0.6083   -0.4369   -0.5146 O.3       1 <0>        -0.3181
      3 C2          0.9225   -0.8815    0.7314 C.ar      1 <0>         0.1190
      4 C3          1.3422    0.0131    1.7014 C.ar      1 <0>        -0.1889
      5 C4          1.6620   -0.4431    2.9732 C.ar      1 <0>         0.1660
      6 C5          1.5617   -1.7958    3.2723 C.ar      1 <0>        -0.1554
      7 C6          1.1437   -2.6896    2.3058 C.ar      1 <0>        -0.0745
      8 C7          0.8172   -2.2371    1.0355 C.ar      1 <0>         0.1081
      9 N1          0.3870   -3.1441    0.0568 N.am      1 <0>        -0.6551
     10 C8          0.7906   -4.4292    0.1050 C.2       1 <0>         0.5551
     11 O2          1.4634   -4.8205    1.0391 O.2       1 <0>        -0.4971
     12 C9          0.4155   -5.3623   -0.9772 C.ar      1 <0>        -0.1330
     13 C10        -0.3522   -4.9150   -2.0545 C.ar      1 <0>        -0.0734
     14 C11        -0.6985   -5.7910   -3.0615 C.ar      1 <0>        -0.1232
     15 C12        -0.2872   -7.1116   -3.0071 C.ar      1 <0>        -0.0776
     16 C13         0.4732   -7.5627   -1.9440 C.ar      1 <0>        -0.1208
     17 C14         0.8321   -6.6950   -0.9306 C.ar      1 <0>         0.0167
     18 Cl1         1.7924   -7.2607    0.4003 Cl        1 <0>        -0.0275
     19 N2          2.0863    0.4607    3.9543 N.am      1 <0>        -0.6662
     20 C15         1.5548    1.6981    4.0058 C.2       1 <0>         0.6091
     21 O3          0.7673    2.0583    3.1504 O.2       1 <0>        -0.5087
     22 C16         1.9250    2.6101    5.0916 C.2       1 <0>        -0.2665
     23 C17         1.4942    3.9066    5.3293 C.2       1 <0>        -0.0591
     24 C18         2.0234    4.5170    6.4411 C.2       1 <0>        -0.1862
     25 C19         2.9059    3.8336    7.2110 C.2       1 <0>        -0.2150
     26 S1          3.0404    2.3391    6.4556 S.3       1 <0>         0.2113
     27 H1          1.7738    1.2674   -0.5887 H         1 <0>         0.0557
     28 H2          0.4585    1.1854   -1.7851 H         1 <0>         0.1017
     29 H3          0.0873    1.5136   -0.0755 H         1 <0>         0.0619
     30 H4          1.4209    1.0648    1.4688 H         1 <0>         0.1512
     31 H5          1.8112   -2.1492    4.2619 H         1 <0>         0.1335
     32 H6          1.0671   -3.7411    2.5402 H         1 <0>         0.1645
     33 H7         -0.2012   -2.8469   -0.6549 H         1 <0>         0.4128
     34 H8         -0.6744   -3.8851   -2.0986 H         1 <0>         0.1354
     35 H9         -1.2925   -5.4459   -3.8948 H         1 <0>         0.1378
     36 H10        -0.5619   -7.7931   -3.7987 H         1 <0>         0.1391
     37 H11         0.7907   -8.5943   -1.9079 H         1 <0>         0.1422
     38 H12         2.7629    0.1963    4.5972 H         1 <0>         0.4120
     39 H13         0.7880    4.4050    4.6818 H         1 <0>         0.1514
     40 H14         1.7406    5.5272    6.6978 H         1 <0>         0.1416
     41 H15         3.4048    4.1712    8.1074 H         1 <0>         0.1919
@<TRIPOS>BOND
     1    1    2 1
     2    1   27 1
     3    1   28 1
     4    1   29 1
     5    2    3 1
     6    3    8 ar
     7    3    4 ar
     8    4    5 ar
     9    4   30 1
    10    5    6 ar
    11    5   19 1
    12    6    7 ar
    13    6   31 1
    14    7    8 ar
    15    7   32 1
    16    8    9 1
    17    9   10 am
    18    9   33 1
    19   10   11 2
    20   10   12 1
    21   12   17 ar
    22   12   13 ar
    23   13   14 ar
    24   13   34 1
    25   14   15 ar
    26   14   35 1
    27   15   16 ar
    28   15   36 1
    29   16   17 ar
    30   16   37 1
    31   17   18 1
    32   19   20 am
    33   19   38 1
    34   20   21 2
    35   20   22 1
    36   22   26 1
    37   22   23 2
    38   23   24 1
    39   23   39 1
    40   24   25 2
    41   24   40 1
    42   25   26 1
    43   25   41 1
@<TRIPOS>MOLECULE
ZINC00813647
   41    43     0     0     0
SMALL
USER_CHARGES

@<TRIPOS>ATOM
      1 C1         -0.1149    1.2052    0.1498 C.3       1 <0>         0.0280
      2 O1          0.0492   -0.2074    0.0098 O.3       1 <0>        -0.3176
      3 C2          0.7578   -0.6430   -1.0658 C.ar      1 <0>         0.1193
      4 C3          1.2877    0.2693   -1.9625 C.ar      1 <0>        -0.2111
      5 C4          2.0114   -0.1777   -3.0600 C.ar      1 <0>         0.1662
      6 C5          2.2033   -1.5390   -3.2586 C.ar      1 <0>        -0.1308
      7 C6          1.6754   -2.4505   -2.3651 C.ar      1 <0>        -0.0764
      8 C7          0.9565   -2.0077   -1.2641 C.ar      1 <0>         0.1101
      9 N1          0.4255   -2.9332   -0.3547 N.am      1 <0>        -0.6546
     10 C8          0.1465   -4.1890   -0.7568 C.2       1 <0>         0.5544
     11 O2          0.4241   -4.5413   -1.8869 O.2       1 <0>        -0.4948
     12 C9         -0.4966   -5.1375    0.1757 C.ar      1 <0>        -0.1328
     13 C10        -0.8220   -4.7347    1.4725 C.ar      1 <0>        -0.0736
     14 C11        -1.4226   -5.6248    2.3376 C.ar      1 <0>        -0.1234
     15 C12        -1.7033   -6.9156    1.9240 C.ar      1 <0>        -0.0775
     16 C13        -1.3843   -7.3226    0.6416 C.ar      1 <0>        -0.1205
     17 C14        -0.7873   -6.4400   -0.2377 C.ar      1 <0>         0.0166
     18 Cl1        -0.3938   -6.9498   -1.8498 Cl        1 <0>        -0.0267
     19 N2          2.5474    0.7439   -3.9669 N.am      1 <0>        -0.6637
     20 C15         3.7305    0.4937   -4.5619 C.2       1 <0>         0.6065
     21 O3          4.3798   -0.4837   -4.2384 O.2       1 <0>        -0.4940
     22 C16         4.2356    1.3989   -5.5989 C.2       1 <0>        -0.0891
     23 C17         5.4098    1.2607   -6.2823 C.2       1 <0>        -0.1078
     24 C18         5.4896    2.3445   -7.1707 C.2       1 <0>        -0.2249
     25 C19         4.3749    3.0874   -6.9929 C.2       1 <0>         0.0022
     26 O4          3.6190    2.5112   -6.0492 O.3       1 <0>        -0.1661
     27 H1          0.8636    1.6783    0.2326 H         1 <0>         0.0572
     28 H2         -0.6359    1.5987   -0.7230 H         1 <0>         0.0572
     29 H3         -0.6975    1.4163    1.0465 H         1 <0>         0.1027
     30 H4          1.1380    1.3278   -1.8086 H         1 <0>         0.1373
     31 H5          2.7658   -1.8853   -4.1131 H         1 <0>         0.1397
     32 H6          1.8255   -3.5085   -2.5216 H         1 <0>         0.1677
     33 H7          0.2589   -2.6698    0.5639 H         1 <0>         0.4129
     34 H8         -0.6035   -3.7281    1.7973 H         1 <0>         0.1352
     35 H9         -1.6743   -5.3140    3.3409 H         1 <0>         0.1378
     36 H10        -2.1735   -7.6083    2.6063 H         1 <0>         0.1392
     37 H11        -1.6062   -8.3311    0.3254 H         1 <0>         0.1423
     38 H12         2.0673    1.5626   -4.1672 H         1 <0>         0.4156
     39 H13         6.1364    0.4708   -6.1623 H         1 <0>         0.1633
     40 H14         6.2913    2.5469   -7.8654 H         1 <0>         0.1604
     41 H15         4.1316    3.9941   -7.5269 H         1 <0>         0.2138
@<TRIPOS>BOND
     1    1    2 1
     2    1   27 1
     3    1   28 1
     4    1   29 1
     5    2    3 1
     6    3    8 ar
     7    3    4 ar
     8    4    5 ar
     9    4   30 1
    10    5    6 ar
    11    5   19 1
    12    6    7 ar
    13    6   31 1
    14    7    8 ar
    15    7   32 1
    16    8    9 1
    17    9   10 am
    18    9   33 1
    19   10   11 2
    20   10   12 1
    21   12   17 ar
    22   12   13 ar
    23   13   14 ar
    24   13   34 1
    25   14   15 ar
    26   14   35 1
    27   15   16 ar
    28   15   36 1
    29   16   17 ar
    30   16   37 1
    31   17   18 1
    32   19   20 am
    33   19   38 1
    34   20   21 2
    35   20   22 1
    36   22   26 1
    37   22   23 2
    38   23   24 1
    39   23   39 1
    40   24   25 2
    41   24   40 1
    42   25   26 1
    43   25   41 1
@<TRIPOS>MOLECULE
ZINC01141333
   41    43     0     0     0
SMALL
USER_CHARGES

@<TRIPOS>ATOM
      1 C1         -0.1149    1.2052    0.1497 C.3       1 <0>         0.0278
      2 O1          0.0493   -0.2074    0.0098 O.3       1 <0>        -0.3172
      3 C2          0.7578   -0.6429   -1.0659 C.ar      1 <0>         0.1195
      4 C3          1.2877    0.2694   -1.9626 C.ar      1 <0>        -0.2097
      5 C4          2.0113   -0.1776   -3.0602 C.ar      1 <0>         0.1641
      6 C5          2.2032   -1.5389   -3.2588 C.ar      1 <0>        -0.1300
      7 C6          1.6754   -2.4504   -2.3653 C.ar      1 <0>        -0.0765
      8 C7          0.9566   -2.0076   -1.2642 C.ar      1 <0>         0.1118
      9 N1          0.4260   -2.9332   -0.3546 N.am      1 <0>        -0.6548
     10 C8          0.1474   -4.1891   -0.7564 C.2       1 <0>         0.5547
     11 O2          0.4249   -4.5415   -1.8865 O.2       1 <0>        -0.4947
     12 C9         -0.4952   -5.1377    0.1764 C.ar      1 <0>        -0.1330
     13 C10        -0.8205   -4.7347    1.4731 C.ar      1 <0>        -0.0735
     14 C11        -1.4202   -5.6250    2.3388 C.ar      1 <0>        -0.1233
     15 C12        -1.7001   -6.9161    1.9256 C.ar      1 <0>        -0.0773
     16 C13        -1.3813   -7.3232    0.6432 C.ar      1 <0>        -0.1205
     17 C14        -0.7855   -6.4403   -0.2367 C.ar      1 <0>         0.0167
     18 Cl1        -0.3922   -6.9503   -1.8488 Cl        1 <0>        -0.0266
     19 N2          2.5472    0.7440   -3.9671 N.am      1 <0>        -0.6614
     20 C15         3.7303    0.4939   -4.5622 C.2       1 <0>         0.6067
     21 O3          4.3797   -0.4836   -4.2387 O.2       1 <0>        -0.4868
     22 C16         4.2350    1.3986   -5.5984 C.2       1 <0>        -0.0613
     23 C17         5.4096    1.2602   -6.2821 C.2       1 <0>        -0.1063
     24 C18         5.4900    2.3431   -7.1702 C.2       1 <0>        -0.1633
     25 C19         4.3740    3.0874   -6.9927 C.2       1 <0>         0.0006
     26 O4          3.6179    2.5113   -6.0487 O.3       1 <0>        -0.1490
     27 Br1         3.9480    4.6745   -7.9285 Br        1 <0>         0.0693
     28 H1          0.8637    1.6783    0.2325 H         1 <0>         0.0573
     29 H2         -0.6360    1.5987   -0.7230 H         1 <0>         0.0574
     30 H3         -0.6974    1.4162    1.0465 H         1 <0>         0.1030
     31 H4          1.1379    1.3279   -1.8087 H         1 <0>         0.1377
     32 H5          2.7656   -1.8851   -4.1133 H         1 <0>         0.1400
     33 H6          1.8258   -3.5083   -2.5216 H         1 <0>         0.1682
     34 H7          0.2595   -2.6697    0.5640 H         1 <0>         0.4131
     35 H8         -0.6026   -3.7279    1.7976 H         1 <0>         0.1352
     36 H9         -1.6717   -5.3142    3.3420 H         1 <0>         0.1378
     37 H10        -2.1696   -7.6090    2.6082 H         1 <0>         0.1393
     38 H11        -1.6025   -8.3320    0.3273 H         1 <0>         0.1424
     39 H12         2.0671    1.5628   -4.1674 H         1 <0>         0.4162
     40 H13         6.1359    0.4700   -6.1621 H         1 <0>         0.1741
     41 H14         6.2920    2.5450   -7.8648 H         1 <0>         0.1723
@<TRIPOS>BOND
     1    1    2 1
     2    1   28 1
     3    1   29 1
     4    1   30 1
     5    2    3 1
     6    3    8 ar
     7    3    4 ar
     8    4    5 ar
     9    4   31 1
    10    5    6 ar
    11    5   19 1
    12    6    7 ar
    13    6   32 1
    14    7    8 ar
    15    7   33 1
    16    8    9 1
    17    9   10 am
    18    9   34 1
    19   10   11 2
    20   10   12 1
    21   12   17 ar
    22   12   13 ar
    23   13   14 ar
    24   13   35 1
    25   14   15 ar
    26   14   36 1
    27   15   16 ar
    28   15   37 1
    29   16   17 ar
    30   16   38 1
    31   17   18 1
    32   19   20 am
    33   19   39 1
    34   20   21 2
    35   20   22 1
    36   22   26 1
    37   22   23 2
    38   23   24 1
    39   23   40 1
    40   24   25 2
    41   24   41 1
    42   25   26 1
    43   25   27 1
@<TRIPOS>MOLECULE
ZINC66076277
   39    41     0     0     0
SMALL
USER_CHARGES

@<TRIPOS>ATOM
      1 C1         -0.0390    1.3721    0.1027 C.ar      1 <0>        -0.1225
      2 C2          0.9805    2.0922   -0.4957 C.ar      1 <0>        -0.0759
      3 C3          2.0271    1.4360   -1.1169 C.ar      1 <0>        -0.1201
      4 C4          2.0615    0.0552   -1.1439 C.ar      1 <0>         0.0175
      5 C5          1.0354   -0.6771   -0.5417 C.ar      1 <0>        -0.1343
      6 C6         -0.0179   -0.0065    0.0834 C.ar      1 <0>        -0.0733
      7 C7          1.0643   -2.1540   -0.5665 C.2       1 <0>         0.5580
      8 O1          1.9826   -2.7349   -1.1120 O.2       1 <0>        -0.4909
      9 N1          0.0728   -2.8573    0.0154 N.am      1 <0>        -0.6658
     10 C8          0.0493   -4.2536   -0.0904 C.ar      1 <0>         0.1450
     11 C9          1.2395   -4.9690   -0.1050 C.ar      1 <0>        -0.0881
     12 C10         1.2165   -6.3453   -0.2093 C.ar      1 <0>        -0.1150
     13 C11         0.0029   -7.0153   -0.2992 C.ar      1 <0>         0.1413
     14 C12        -1.1878   -6.3007   -0.2842 C.ar      1 <0>        -0.0940
     15 C13        -1.1653   -4.9238   -0.1750 C.ar      1 <0>        -0.0442
     16 Cl1        -2.6536   -4.0304   -0.1496 Cl        1 <0>        -0.0582
     17 N2         -0.0197   -8.4108   -0.4053 N.am      1 <0>        -0.6521
     18 C14        -0.9630   -9.0143   -1.1553 C.2       1 <0>         0.5748
     19 O2         -1.8429   -8.3541   -1.6719 O.2       1 <0>        -0.5087
     20 C15        -0.9273  -10.4824   -1.3498 C.ar      1 <0>         0.0729
     21 C16        -1.9021  -11.0997   -2.1309 C.ar      1 <0>        -0.1063
     22 C17        -1.8552  -12.4738   -2.3040 C.ar      1 <0>        -0.0797
     23 C18        -0.8348  -13.1833   -1.6898 C.ar      1 <0>        -0.1438
     24 C19         0.1012  -12.5039   -0.9268 C.ar      1 <0>         0.1003
     25 N3          0.0361  -11.1981   -0.7830 N.ar      1 <0>        -0.4605
     26 Cl2         3.3757   -0.7677   -1.9245 Cl        1 <0>        -0.0265
     27 H1         -0.8510    1.8915    0.5899 H         1 <0>         0.1386
     28 H2          0.9582    3.1719   -0.4777 H         1 <0>         0.1400
     29 H3          2.8192    2.0040   -1.5821 H         1 <0>         0.1429
     30 H4         -0.8143   -0.5665    0.5509 H         1 <0>         0.1340
     31 H5         -0.6245   -2.3964    0.5076 H         1 <0>         0.4111
     32 H6          2.1832   -4.4486   -0.0351 H         1 <0>         0.1564
     33 H7          2.1423   -6.9012   -0.2213 H         1 <0>         0.1394
     34 H8         -2.1312   -6.8217   -0.3544 H         1 <0>         0.1553
     35 H9          0.6435   -8.9435    0.0608 H         1 <0>         0.4245
     36 H10        -2.6833  -10.5156   -2.5945 H         1 <0>         0.1508
     37 H11        -2.5970  -12.9805   -2.9035 H         1 <0>         0.1459
     38 H12        -0.7702  -14.2552   -1.8046 H         1 <0>         0.1444
     39 H13         0.8972  -13.0536   -0.4466 H         1 <0>         0.1668
@<TRIPOS>BOND
     1    1    6 ar
     2    1    2 ar
     3    1   27 1
     4    2    3 ar
     5    2   28 1
     6    3    4 ar
     7    3   29 1
     8    4    5 ar
     9    4   26 1
    10    5    6 ar
    11    5    7 1
    12    6   30 1
    13    7    8 2
    14    7    9 am
    15    9   10 1
    16    9   31 1
    17   10   15 ar
    18   10   11 ar
    19   11   12 ar
    20   11   32 1
    21   12   13 ar
    22   12   33 1
    23   13   14 ar
    24   13   17 1
    25   14   15 ar
    26   14   34 1
    27   15   16 1
    28   17   18 am
    29   17   35 1
    30   18   19 2
    31   18   20 1
    32   20   25 ar
    33   20   21 ar
    34   21   22 ar
    35   21   36 1
    36   22   23 ar
    37   22   37 1
    38   23   24 ar
    39   23   38 1
    40   24   25 ar
    41   24   39 1
@<TRIPOS>MOLECULE
ZINC03869280
   17    16     0     0     0
SMALL
USER_CHARGES

@<TRIPOS>ATOM
      1 C1         -0.0187    1.5258    0.0104 C.3       1 <0>         0.1201
      2 C2          0.0021   -0.0041    0.0020 C.3       1 <0>        -0.0471
      3 H1          0.6044   -0.3639    0.8362 H         1 <0>         0.1324
      4 C3         -1.4051   -0.5263    0.1365 C.2       1 <0>         0.4988
      5 O1         -1.9459   -1.0721   -0.8102 O.co2     1 <0>        -0.6895
      6 O2         -2.0029   -0.4029    1.1919 O.co2     1 <0>        -0.6428
      7 N1          0.5820   -0.4790   -1.2614 N.4       1 <0>        -0.6052
      8 O3          1.3220    2.0204    0.0003 O.3       1 <0>        -0.7682
      9 P1          1.6773    3.5907    0.0053 P.3       1 <0>         2.1196
     10 O4          0.9547    4.2935   -1.1940 O.2       1 <0>        -1.1824
     11 O5          1.1965    4.2306    1.3521 O.3       1 <0>        -1.1793
     12 O6          3.2264    3.7760   -0.1372 O.3       1 <0>        -1.1618
     13 H2         -0.5459    1.8868   -0.8726 H         1 <0>         0.0551
     14 H3         -0.5289    1.8773    0.9072 H         1 <0>         0.0812
     15 H4          1.5242   -0.1293   -1.3514 H         1 <0>         0.4271
     16 H5          0.5957   -1.4879   -1.2669 H         1 <0>         0.4155
     17 H6          0.0244   -0.1459   -2.0336 H         1 <0>         0.4264
@<TRIPOS>BOND
     1    1    2 1
     2    1    8 1
     3    1   13 1
     4    1   14 1
     5    2    3 1
     6    2    4 1
     7    2    7 1
     8    4    5 2
     9    4    6 1
    10    7   15 1
    11    7   16 1
    12    7   17 1
    13    8    9 1
    14    9   10 2
    15    9   11 1
    16    9   12 1
@<TRIPOS>MOLECULE
ZINC19632743
   20    19     0     0     0
SMALL
USER_CHARGES

@<TRIPOS>ATOM
      1 C1         -0.0187    1.5258    0.0104 C.3       1 <0>        -0.0985
      2 C2          0.0021   -0.0041    0.0020 C.3       1 <0>        -0.7423
      3 P1         -1.7082   -0.6351    0.0150 P.3       1 <0>         2.2529
      4 O1         -2.4691   -0.0359    1.2187 O.2       1 <0>        -1.0899
      5 O2         -2.4170   -0.2287   -1.2963 O.3       1 <0>        -1.0881
      6 O3         -1.6871   -2.2402    0.1384 O.3       1 <0>        -0.9064
      7 C3          1.4167    2.0553   -0.0004 C.3       1 <0>        -0.0481
      8 H1          1.9535    1.6326   -0.8497 H         1 <0>         0.1243
      9 C4          1.3970    3.5578   -0.1160 C.2       1 <0>         0.4947
     10 O4          1.7295    4.2467    0.8334 O.co2     1 <0>        -0.6823
     11 O5          1.0484    4.0844   -1.1589 O.co2     1 <0>        -0.6363
     12 N1          2.0906    1.6690    1.2464 N.4       1 <0>        -0.6104
     13 H2         -0.5459    1.8868   -0.8726 H         1 <0>         0.1162
     14 H3         -0.5289    1.8773    0.9072 H         1 <0>         0.0904
     15 H4          0.5123   -0.3556   -0.8948 H         1 <0>         0.0822
     16 H5          0.5293   -0.3651    0.8851 H         1 <0>         0.0600
     17 H6         -2.5651   -2.6452    0.1513 H         1 <0>         0.4152
     18 H7          2.1039    0.6630    1.3237 H         1 <0>         0.4110
     19 H8          3.0372    2.0182    1.2392 H         1 <0>         0.4240
     20 H9          1.5937    2.0603    2.0325 H         1 <0>         0.4313
@<TRIPOS>BOND
     1    1    2 1
     2    1    7 1
     3    1   13 1
     4    1   14 1
     5    2    3 1
     6    2   15 1
     7    2   16 1
     8    3    4 2
     9    3    5 1
    10    3    6 1
    11    6   17 1
    12    7    8 1
    13    7    9 1
    14    7   12 1
    15    9   10 2
    16    9   11 1
    17   12   18 1
    18   12   19 1
    19   12   20 1
@<TRIPOS>MOLECULE
ZINC03826602
   44    47     0     0     0
SMALL
USER_CHARGES

@<TRIPOS>ATOM
      1 C1         -2.0652   -0.8598    0.6816 C.ar      1 <0>        -0.1307
      2 C2         -1.4521   -0.1116   -0.3067 C.ar      1 <0>        -0.0780
      3 C3         -0.2478   -0.5258   -0.8385 C.ar      1 <0>        -0.1082
      4 C4          0.3518   -1.6944   -0.3817 C.ar      1 <0>         0.1485
      5 C5         -0.2642   -2.4413    0.6088 C.ar      1 <0>        -0.1566
      6 C6         -1.4726   -2.0216    1.1374 C.ar      1 <0>        -0.0298
      7 C7          0.3651   -3.7076    1.1223 C.3       1 <0>        -0.0043
      8 C8          1.4114   -4.2062    0.1633 C.ar      1 <0>        -0.1792
      9 C9          1.8465   -5.5168    0.2561 C.ar      1 <0>        -0.0847
     10 C10         2.8075   -5.9936   -0.6143 C.ar      1 <0>        -0.1422
     11 C11         3.3387   -5.1614   -1.5827 C.ar      1 <0>        -0.0829
     12 C12         2.9082   -3.8538   -1.6802 C.ar      1 <0>        -0.1445
     13 C13         1.9410   -3.3703   -0.8057 C.ar      1 <0>         0.0839
     14 O1          1.5344   -2.0829   -0.9159 O.3       1 <0>        -0.2343
     15 C14         1.0151   -3.4331    2.4799 C.3       1 <0>        -0.1014
     16 C15         2.0274   -2.2945    2.3397 C.3       1 <0>         0.0088
     17 C16         2.6935   -2.0348    3.6924 C.3       1 <0>        -0.1343
     18 H1          2.0566   -2.1784    4.5653 H         1 <0>         0.1359
     19 C17         4.1741   -2.3945    3.8314 C.3       1 <0>        -0.1905
     20 C18         3.7460   -0.9265    3.7605 C.3       1 <0>        -0.1789
     21 H2          3.9640   -0.3823    2.8415 H         1 <0>         0.1011
     22 C19         3.8233   -0.1172    5.0294 C.2       1 <0>         0.5190
     23 O2          4.8881    0.3579    5.3855 O.co2     1 <0>        -0.6942
     24 O3          2.8209    0.0625    5.6998 O.co2     1 <0>        -0.6777
     25 C20         1.3189   -1.0461    1.8808 C.2       1 <0>         0.5149
     26 O4          0.2686   -0.7142    2.4034 O.co2     1 <0>        -0.6129
     27 O5          1.7961   -0.3680    0.9869 O.co2     1 <0>        -0.6652
     28 N1          3.0505   -2.6674    1.3537 N.4       1 <0>        -0.6246
     29 H3         -3.0057   -0.5334    1.1005 H         1 <0>         0.1165
     30 H4         -1.9159    0.7965   -0.6627 H         1 <0>         0.1212
     31 H5          0.2297    0.0586   -1.6110 H         1 <0>         0.1216
     32 H6         -1.9536   -2.6040    1.9093 H         1 <0>         0.1161
     33 H7         -0.4056   -4.4692    1.2411 H         1 <0>         0.1043
     34 H8          1.4338   -6.1688    1.0117 H         1 <0>         0.1387
     35 H9          3.1445   -7.0168   -0.5382 H         1 <0>         0.1347
     36 H10         4.0905   -5.5346   -2.2623 H         1 <0>         0.1391
     37 H11         3.3234   -3.2047   -2.4369 H         1 <0>         0.1440
     38 H12         0.2472   -3.1500    3.1998 H         1 <0>         0.1175
     39 H13         1.5249   -4.3318    2.8270 H         1 <0>         0.0757
     40 H14         4.5114   -2.7742    4.7958 H         1 <0>         0.1075
     41 H15         4.6737   -2.8160    2.9592 H         1 <0>         0.0689
     42 H16         2.8070   -2.2812    0.4539 H         1 <0>         0.4233
     43 H17         3.9459   -2.3044    1.6444 H         1 <0>         0.4120
     44 H18         3.1012   -3.6729    1.2856 H         1 <0>         0.4021
@<TRIPOS>BOND
     1    1    6 ar
     2    1    2 ar
     3    1   29 1
     4    2    3 ar
     5    2   30 1
     6    3    4 ar
     7    3   31 1
     8    4   14 1
     9    4    5 ar
    10    5    6 ar
    11    5    7 1
    12    6   32 1
    13    7    8 1
    14    7   15 1
    15    7   33 1
    16    8   13 ar
    17    8    9 ar
    18    9   10 ar
    19    9   34 1
    20   10   11 ar
    21   10   35 1
    22   11   12 ar
    23   11   36 1
    24   12   13 ar
    25   12   37 1
    26   13   14 1
    27   15   16 1
    28   15   38 1
    29   15   39 1
    30   16   17 1
    31   16   25 1
    32   16   28 1
    33   17   18 1
    34   17   20 1
    35   17   19 1
    36   19   20 1
    37   19   40 1
    38   19   41 1
    39   20   21 1
    40   20   22 1
    41   22   23 2
    42   22   24 1
    43   25   26 2
    44   25   27 1
    45   28   42 1
    46   28   43 1
    47   28   44 1
@<TRIPOS>MOLECULE
ZINC28245996
   21    21     0     0     0
SMALL
USER_CHARGES
(1S,2S)-1-amino-2-(phosphonomethyl)cyclopropane-1-carboxylic acid
@<TRIPOS>ATOM
      1 C1         -1.1553    2.1600   -0.7407 C.3       1 <0>        -0.1155
      2 C2         -1.1407    2.1518    0.7899 C.3       1 <0>        -0.0954
      3 H1         -1.8472    1.8410    1.5736 H         1 <0>         0.1673
      4 C3         -0.0178    1.4648    0.0101 C.3       1 <0>        -0.1011
      5 C4          1.3328    2.1332    0.0008 C.2       1 <0>         0.4902
      6 O1          1.4181    3.3254    0.1776 O.co2     1 <0>        -0.5680
      7 O2          2.4410    1.4041   -0.2039 O.co2     1 <0>        -0.7541
      8 N1          0.0021   -0.0041    0.0020 N.4       1 <0>        -0.6259
      9 C5         -0.8065    3.4651    1.5002 C.3       1 <0>        -0.7120
     10 P1         -2.1212    3.8586    2.7001 P.3       1 <0>         2.2715
     11 O3         -2.3030    2.7174    3.6247 O.2       1 <0>        -1.0889
     12 O4         -1.7072    5.1686    3.5395 O.3       1 <0>        -1.1148
     13 O5         -3.4987    4.1377    1.9148 O.3       1 <0>        -0.9360
     14 H2         -0.7423    2.9599   -1.3728 H         1 <0>         0.1147
     15 H3         -1.6794    1.4275   -1.3721 H         1 <0>         0.1004
     16 H4          0.8690   -0.3622    0.5767 H         1 <0>         0.4586
     17 H5          0.0755   -0.3641   -1.0348 H         1 <0>         0.4383
     18 H6          0.1531    3.3625    2.0281 H         1 <0>         0.1072
     19 H7         -0.7324    4.2744    0.7589 H         1 <0>         0.0839
     20 H8         -4.4098    4.3928    2.4760 H         1 <0>         0.4437
     21 H9         -0.9232   -0.3858    0.4581 H         1 <0>         0.4357
@<TRIPOS>BOND
     1    1    4 1
     2    1    2 1
     3    1   14 1
     4    1   15 1
     5    2    3 1
     6    2    4 1
     7    2    9 1
     8    4    5 1
     9    4    8 1
    10    5    6 2
    11    5    7 1
    12    8   16 1
    13    8   17 1
    14    8   21 1
    15    9   10 1
    16    9   18 1
    17    9   19 1
    18   10   11 2
    19   10   12 1
    20   10   13 1
    21   13   20 1
@<TRIPOS>MOLECULE
ZINC28245996
   20    20     0     0     0
SMALL
USER_CHARGES
(1S,2S)-1-amino-2-(phosphonomethyl)cyclopropane-1-carboxylic acid
@<TRIPOS>ATOM
      1 C1         -1.1553    2.1600   -0.7407 C.3       1 <0>        -0.1014
      2 C2         -1.1407    2.1518    0.7899 C.3       1 <0>        -0.0824
      3 H1         -1.8472    1.8410    1.5736 H         1 <0>         0.1844
      4 C3         -0.0178    1.4648    0.0101 C.3       1 <0>        -0.1261
      5 C4          1.3328    2.1332    0.0008 C.2       1 <0>         0.4936
      6 O1          1.4181    3.3254    0.1776 O.co2     1 <0>        -0.5635
      7 O2          2.4410    1.4041   -0.2039 O.co2     1 <0>        -0.7755
      8 N1          0.0021   -0.0041    0.0020 N.4       1 <0>        -0.6205
      9 C5         -0.8065    3.4651    1.5002 C.3       1 <0>        -0.7029
     10 P1         -2.1212    3.8586    2.7001 P.3       1 <0>         2.2107
     11 O3         -2.3030    2.7174    3.6247 O.2       1 <0>        -1.1573
     12 O4         -1.7072    5.1686    3.5395 O.3       1 <0>        -1.1947
     13 O5         -3.4987    4.1377    1.9148 O.3       1 <0>        -1.1919
     14 H2         -0.7423    2.9599   -1.3728 H         1 <0>         0.1017
     15 H3         -1.6794    1.4275   -1.3721 H         1 <0>         0.0868
     16 H4          0.8690   -0.3622    0.5767 H         1 <0>         0.4510
     17 H5          0.0755   -0.3641   -1.0348 H         1 <0>         0.4274
     18 H6          0.1531    3.3625    2.0281 H         1 <0>         0.0671
     19 H7         -0.7324    4.2744    0.7589 H         1 <0>         0.0589
     20 H8         -0.9232   -0.3858    0.4581 H         1 <0>         0.4347
@<TRIPOS>BOND
     1    1    4 1
     2    1    2 1
     3    1   14 1
     4    1   15 1
     5    2    3 1
     6    2    4 1
     7    2    9 1
     8    4    5 1
     9    4    8 1
    10    5    6 2
    11    5    7 1
    12    8   16 1
    13    8   17 1
    14    8   20 1
    15    9   10 1
    16    9   18 1
    17    9   19 1
    18   10   11 2
    19   10   12 1
    20   10   13 1
@<TRIPOS>MOLECULE
ZINC28246005
   21    21     0     0     0
SMALL
USER_CHARGES
(1R,2S)-1-amino-2-(phosphonomethyl)cyclopropane-1-carboxylic acid
@<TRIPOS>ATOM
      1 C1         -0.0127    1.0858    0.0080 C.3       1 <0>        -0.1072
      2 C2         -1.1502    1.7810   -0.7428 C.3       1 <0>        -0.0472
      3 H1         -1.8716    1.4785   -1.5162 H         1 <0>         0.1628
      4 C3         -1.1356    1.7728    0.7878 C.3       1 <0>        -0.1082
      5 C4         -2.1364    0.8909    1.4889 C.2       1 <0>         0.4966
      6 O1         -2.5854   -0.0794    0.9259 O.co2     1 <0>        -0.5730
      7 O2         -2.5292    1.1832    2.7387 O.co2     1 <0>        -0.7524
      8 N1         -0.8147    3.0338    1.4698 N.4       1 <0>        -0.6270
      9 C5         -0.8295    3.1019   -1.4452 C.3       1 <0>        -0.7479
     10 P1         -1.3326    2.9979   -3.1943 P.3       1 <0>         2.2680
     11 O3         -0.6887    1.8233   -3.8238 O.2       1 <0>        -1.0735
     12 O4         -2.9328    2.8452   -3.2843 O.3       1 <0>        -1.1007
     13 O5         -0.8770    4.3365   -3.9642 O.3       1 <0>        -0.9409
     14 H2          0.9505    1.5497    0.2669 H         1 <0>         0.0981
     15 H3          0.0135    0.0172    0.2676 H         1 <0>         0.1219
     16 H4         -1.7106    3.4101    1.9853 H         1 <0>         0.4566
     17 H5         -0.4785    3.7754    0.7302 H         1 <0>         0.4271
     18 H6         -1.3765    3.9204   -0.9544 H         1 <0>         0.0787
     19 H7          0.2516    3.2959   -1.3856 H         1 <0>         0.0782
     20 H8         -1.0955    4.4562   -5.0356 H         1 <0>         0.4504
     21 H9         -0.0147    2.8600    2.2045 H         1 <0>         0.4396
@<TRIPOS>BOND
     1    1    4 1
     2    1    2 1
     3    1   14 1
     4    1   15 1
     5    2    3 1
     6    2    4 1
     7    2    9 1
     8    4    5 1
     9    4    8 1
    10    5    6 2
    11    5    7 1
    12    8   16 1
    13    8   17 1
    14    8   21 1
    15    9   10 1
    16    9   18 1
    17    9   19 1
    18   10   11 2
    19   10   12 1
    20   10   13 1
    21   13   20 1
@<TRIPOS>MOLECULE
ZINC28246005
   20    20     0     0     0
SMALL
USER_CHARGES
(1R,2S)-1-amino-2-(phosphonomethyl)cyclopropane-1-carboxylic acid
@<TRIPOS>ATOM
      1 C1         -0.0127    1.0858    0.0080 C.3       1 <0>        -0.1020
      2 C2         -1.1502    1.7810   -0.7428 C.3       1 <0>        -0.0490
      3 H1         -1.8716    1.4785   -1.5162 H         1 <0>         0.1719
      4 C3         -1.1356    1.7728    0.7878 C.3       1 <0>        -0.1254
      5 C4         -2.1364    0.8909    1.4889 C.2       1 <0>         0.5019
      6 O1         -2.5854   -0.0794    0.9259 O.co2     1 <0>        -0.5784
      7 O2         -2.5292    1.1832    2.7387 O.co2     1 <0>        -0.7670
      8 N1         -0.8147    3.0338    1.4698 N.4       1 <0>        -0.6231
      9 C5         -0.8295    3.1019   -1.4452 C.3       1 <0>        -0.7336
     10 P1         -1.3326    2.9979   -3.1943 P.3       1 <0>         2.1966
     11 O3         -0.6887    1.8233   -3.8238 O.2       1 <0>        -1.1427
     12 O4         -2.9328    2.8452   -3.2843 O.3       1 <0>        -1.1799
     13 O5         -0.8770    4.3365   -3.9642 O.3       1 <0>        -1.1880
     14 H2          0.9505    1.5497    0.2669 H         1 <0>         0.0874
     15 H3          0.0135    0.0172    0.2676 H         1 <0>         0.1094
     16 H4         -1.7106    3.4101    1.9853 H         1 <0>         0.4498
     17 H5         -0.4785    3.7754    0.7302 H         1 <0>         0.4323
     18 H6         -1.3765    3.9204   -0.9544 H         1 <0>         0.0557
     19 H7          0.2516    3.2959   -1.3856 H         1 <0>         0.0549
     20 H8         -0.0147    2.8600    2.2045 H         1 <0>         0.4292
@<TRIPOS>BOND
     1    1    4 1
     2    1    2 1
     3    1   14 1
     4    1   15 1
     5    2    3 1
     6    2    4 1
     7    2    9 1
     8    4    5 1
     9    4    8 1
    10    5    6 2
    11    5    7 1
    12    8   16 1
    13    8   17 1
    14    8   20 1
    15    9   10 1
    16    9   18 1
    17    9   19 1
    18   10   11 2
    19   10   12 1
    20   10   13 1
@<TRIPOS>MOLECULE
ZINC28246012
   21    21     0     0     0
SMALL
USER_CHARGES
(1S,2R)-1-amino-2-(phosphonomethyl)cyclopropane-1-carboxylic acid
@<TRIPOS>ATOM
      1 C1          3.7702    0.8023   -0.9104 C.3       1 <0>        -0.1072
      2 C2          2.4458    1.5134   -1.1949 C.3       1 <0>        -0.0473
      3 H1          1.5181    1.2486   -1.7233 H         1 <0>         0.1628
      4 C3          3.7684    2.1715   -1.5931 C.3       1 <0>        -0.1081
      5 C4          4.1084    2.2178   -3.0605 C.2       1 <0>         0.4966
      6 O1          3.6367    1.4014   -3.8160 O.co2     1 <0>        -0.5729
      7 O2          4.9353    3.1661   -3.5282 O.co2     1 <0>        -0.7525
      8 N1          4.2176    3.3247   -0.8016 N.4       1 <0>        -0.6270
      9 C5          1.6923    2.1068   -0.0028 C.3       1 <0>        -0.7479
     10 P1         -0.0180    1.4758    0.0102 P.3       1 <0>         2.2679
     11 O3          0.0021   -0.0041    0.0020 O.2       1 <0>        -1.0735
     12 O4         -0.7967    2.0091   -1.2942 O.3       1 <0>        -1.1007
     13 O5         -0.7716    1.9950    1.3348 O.3       1 <0>        -0.9409
     14 H2          4.2461    0.0634   -1.5719 H         1 <0>         0.1219
     15 H3          4.3311    0.8641    0.0338 H         1 <0>         0.0982
     16 H4          4.1633    4.2351   -1.4166 H         1 <0>         0.4566
     17 H5          5.2558    3.1637   -0.4758 H         1 <0>         0.4396
     18 H6          2.1970    1.8175    0.9308 H         1 <0>         0.0782
     19 H7          1.6779    3.2035   -0.0872 H         1 <0>         0.0787
     20 H8         -1.8193    1.7140    1.5174 H         1 <0>         0.4505
     21 H9          3.5700    3.4388    0.0802 H         1 <0>         0.4271
@<TRIPOS>BOND
     1    1    4 1
     2    1    2 1
     3    1   14 1
     4    1   15 1
     5    2    3 1
     6    2    4 1
     7    2    9 1
     8    4    5 1
     9    4    8 1
    10    5    6 2
    11    5    7 1
    12    8   16 1
    13    8   17 1
    14    8   21 1
    15    9   10 1
    16    9   18 1
    17    9   19 1
    18   10   11 2
    19   10   12 1
    20   10   13 1
    21   13   20 1
@<TRIPOS>MOLECULE
ZINC28246012
   20    20     0     0     0
SMALL
USER_CHARGES
(1S,2R)-1-amino-2-(phosphonomethyl)cyclopropane-1-carboxylic acid
@<TRIPOS>ATOM
      1 C1          3.7702    0.8023   -0.9104 C.3       1 <0>        -0.1020
      2 C2          2.4458    1.5134   -1.1949 C.3       1 <0>        -0.0491
      3 H1          1.5181    1.2486   -1.7233 H         1 <0>         0.1719
      4 C3          3.7684    2.1715   -1.5931 C.3       1 <0>        -0.1253
      5 C4          4.1084    2.2178   -3.0605 C.2       1 <0>         0.5019
      6 O1          3.6367    1.4014   -3.8160 O.co2     1 <0>        -0.5783
      7 O2          4.9353    3.1661   -3.5282 O.co2     1 <0>        -0.7670
      8 N1          4.2176    3.3247   -0.8016 N.4       1 <0>        -0.6231
      9 C5          1.6923    2.1068   -0.0028 C.3       1 <0>        -0.7336
     10 P1         -0.0180    1.4758    0.0102 P.3       1 <0>         2.1965
     11 O3          0.0021   -0.0041    0.0020 O.2       1 <0>        -1.1426
     12 O4         -0.7967    2.0091   -1.2942 O.3       1 <0>        -1.1800
     13 O5         -0.7716    1.9950    1.3348 O.3       1 <0>        -1.1879
     14 H2          4.2461    0.0634   -1.5719 H         1 <0>         0.1094
     15 H3          4.3311    0.8641    0.0338 H         1 <0>         0.0875
     16 H4          4.1633    4.2351   -1.4166 H         1 <0>         0.4498
     17 H5          5.2558    3.1637   -0.4758 H         1 <0>         0.4292
     18 H6          2.1970    1.8175    0.9308 H         1 <0>         0.0549
     19 H7          1.6779    3.2035   -0.0872 H         1 <0>         0.0557
     20 H8          3.5700    3.4388    0.0802 H         1 <0>         0.4323
@<TRIPOS>BOND
     1    1    4 1
     2    1    2 1
     3    1   14 1
     4    1   15 1
     5    2    3 1
     6    2    4 1
     7    2    9 1
     8    4    5 1
     9    4    8 1
    10    5    6 2
    11    5    7 1
    12    8   16 1
    13    8   17 1
    14    8   20 1
    15    9   10 1
    16    9   18 1
    17    9   19 1
    18   10   11 2
    19   10   12 1
    20   10   13 1
@<TRIPOS>MOLECULE
ZINC28246018
   21    21     0     0     0
SMALL
USER_CHARGES
(1R,2R)-1-amino-2-(phosphonomethyl)cyclopropane-1-carboxylic acid
@<TRIPOS>ATOM
      1 C1          2.2532    3.7571    0.9368 C.3       1 <0>        -0.1030
      2 C2          2.4858    3.7556   -0.5754 C.3       1 <0>        -0.0806
      3 H1          2.6758    4.5287   -1.3345 H         1 <0>         0.1500
      4 C3          1.2350    3.0943    0.0069 C.3       1 <0>        -0.1084
      5 C4          1.1765    1.5884   -0.0006 C.2       1 <0>         0.4897
      6 O1          2.1986    0.9442   -0.0139 O.co2     1 <0>        -0.5662
      7 O2         -0.0110    0.9628    0.0073 O.co2     1 <0>        -0.7551
      8 N1         -0.0495    3.7792   -0.1909 N.4       1 <0>        -0.6258
      9 C5          3.5815    2.8375   -1.1207 C.3       1 <0>        -0.7129
     10 P1          4.7361    3.8099   -2.1428 P.3       1 <0>         2.2673
     11 O3          5.2582    4.9465   -1.3517 O.2       1 <0>        -1.0843
     12 O4          5.9599    2.8732   -2.6087 O.3       1 <0>        -1.1140
     13 O5          3.9640    4.3690   -3.4403 O.3       1 <0>        -0.9411
     14 H2          1.7635    4.5648    1.5005 H         1 <0>         0.1011
     15 H3          2.6504    3.0089    1.6385 H         1 <0>         0.1165
     16 H4         -0.6761    3.1919   -0.8782 H         1 <0>         0.4569
     17 H5          0.1289    4.7766   -0.6190 H         1 <0>         0.4340
     18 H6          4.1286    2.3816   -0.2824 H         1 <0>         0.1007
     19 H7          3.1255    2.0466   -1.7343 H         1 <0>         0.0899
     20 H8          4.5017    4.9820   -4.1786 H         1 <0>         0.4455
     21 H9         -0.5630    3.8819    0.7764 H         1 <0>         0.4398
@<TRIPOS>BOND
     1    1    4 1
     2    1    2 1
     3    1   14 1
     4    1   15 1
     5    2    3 1
     6    2    4 1
     7    2    9 1
     8    4    5 1
     9    4    8 1
    10    5    6 2
    11    5    7 1
    12    8   16 1
    13    8   17 1
    14    8   21 1
    15    9   10 1
    16    9   18 1
    17    9   19 1
    18   10   11 2
    19   10   12 1
    20   10   13 1
    21   13   20 1
@<TRIPOS>MOLECULE
ZINC03946640
   36    39     0     0     0
SMALL
USER_CHARGES

@<TRIPOS>ATOM
      1 C1         -0.0153    1.3806    0.0295 C.ar      1 <0>        -0.1318
      2 C2          0.1396    0.2186    0.7630 C.ar      1 <0>        -0.0995
      3 C3          1.3440   -0.4571    0.7429 C.ar      1 <0>        -0.1213
      4 C4          2.3999    0.0313   -0.0153 C.ar      1 <0>         0.1406
      5 C5          2.2410    1.1983   -0.7511 C.ar      1 <0>        -0.1415
      6 C6          1.0343    1.8696   -0.7265 C.ar      1 <0>        -0.0999
      7 N1          3.6215   -0.6506   -0.0375 N.am      1 <0>        -0.6577
      8 C7          3.6447   -1.9949    0.0568 C.2       1 <0>         0.5782
      9 O1          2.6055   -2.6203    0.0643 O.2       1 <0>        -0.4973
     10 C8          4.9618   -2.7209    0.1528 C.3       1 <0>         0.0275
     11 C9          5.1390   -3.9830   -0.6894 C.3       1 <0>        -0.1372
     12 C10         4.9681   -4.1068    0.8281 C.3       1 <0>        -0.1361
     13 H1          4.0373   -4.5109    1.2263 H         1 <0>         0.1520
     14 C11         6.2450   -4.3911    1.6167 C.2       1 <0>         0.1959
     15 N2          6.2622   -5.1213    2.6850 N.2       1 <0>        -0.3084
     16 O2          5.0621   -5.6957    3.1694 O.3       1 <0>        -0.3974
     17 C12         7.4643   -3.7595    1.0537 C.ar      1 <0>        -0.1042
     18 C13         8.7064   -4.3757    1.1322 C.ar      1 <0>        -0.0520
     19 C14         9.8098   -3.7512    0.5832 C.ar      1 <0>        -0.1360
     20 C15         9.6754   -2.5219   -0.0398 C.ar      1 <0>        -0.0738
     21 C16         8.4432   -1.9006   -0.1186 C.ar      1 <0>        -0.1310
     22 C17         7.3266   -2.5086    0.4303 C.ar      1 <0>         0.1316
     23 O3          6.1067   -1.8978    0.4007 O.3       1 <0>        -0.2754
     24 H2         -0.9593    1.9049    0.0437 H         1 <0>         0.1253
     25 H3         -0.6820   -0.1608    1.3524 H         1 <0>         0.1274
     26 H4          1.4645   -1.3643    1.3165 H         1 <0>         0.1333
     27 H5          3.0605    1.5810   -1.3415 H         1 <0>         0.1273
     28 H6          0.9101    2.7772   -1.2985 H         1 <0>         0.1284
     29 H7          4.4517   -0.1559   -0.1207 H         1 <0>         0.4195
     30 H8          4.3019   -4.2905   -1.3161 H         1 <0>         0.1311
     31 H9          6.1295   -4.1774   -1.1010 H         1 <0>         0.1208
     32 H10         5.1746   -6.2239    3.9715 H         1 <0>         0.4088
     33 H11         8.8088   -5.3349    1.6178 H         1 <0>         0.1373
     34 H12        10.7797   -4.2228    0.6406 H         1 <0>         0.1359
     35 H13        10.5431   -2.0430   -0.4688 H         1 <0>         0.1381
     36 H14         8.3512   -0.9422   -0.6080 H         1 <0>         0.1417
@<TRIPOS>BOND
     1    1    6 ar
     2    1    2 ar
     3    1   24 1
     4    2    3 ar
     5    2   25 1
     6    3    4 ar
     7    3   26 1
     8    4    5 ar
     9    4    7 1
    10    5    6 ar
    11    5   27 1
    12    6   28 1
    13    7    8 am
    14    7   29 1
    15    8    9 2
    16    8   10 1
    17   10   12 1
    18   10   23 1
    19   10   11 1
    20   11   12 1
    21   11   30 1
    22   11   31 1
    23   12   13 1
    24   12   14 1
    25   14   15 2
    26   14   17 1
    27   15   16 1
    28   16   32 1
    29   17   22 ar
    30   17   18 ar
    31   18   19 ar
    32   18   33 1
    33   19   20 ar
    34   19   34 1
    35   20   21 ar
    36   20   35 1
    37   21   22 ar
    38   21   36 1
    39   22   23 1
@<TRIPOS>MOLECULE
ZINC42988961
   28    29     0     0     0
SMALL
USER_CHARGES

@<TRIPOS>ATOM
      1 C1          0.3045    1.3833    1.1758 C.ar      1 <0>        -0.0795
      2 C2          1.3392    2.0601    0.5487 C.ar      1 <0>        -0.1415
      3 C3          2.3600    1.3378   -0.0480 C.ar      1 <0>         0.1012
      4 N1          2.3590    0.0227   -0.0265 N.ar      1 <0>        -0.4605
      5 C4          1.3876   -0.6633    0.5630 C.ar      1 <0>         0.0702
      6 C5          0.3293   -0.0022    1.1829 C.ar      1 <0>        -0.1047
      7 C6          1.4290   -2.1440    0.5617 C.2       1 <0>         0.5793
      8 O1          0.5422   -2.7771    1.1000 O.2       1 <0>        -0.5090
      9 N2          2.4501   -2.7891   -0.0363 N.am      1 <0>        -0.6537
     10 C7          2.5409   -4.1831    0.0457 C.ar      1 <0>         0.1348
     11 C8          1.3873   -4.9567    0.0408 C.ar      1 <0>        -0.0602
     12 C9          1.4792   -6.3321    0.1213 C.ar      1 <0>        -0.1325
     13 C10         2.7205   -6.9404    0.2073 C.ar      1 <0>         0.1388
     14 C11         3.8717   -6.1711    0.2127 C.ar      1 <0>        -0.2027
     15 C12         3.7846   -4.7953    0.1261 C.ar      1 <0>        -0.0683
     16 C13         5.2210   -6.8357    0.3069 C.3       1 <0>         0.5150
     17 F1          6.2234   -5.8599    0.2944 F         1 <0>        -0.1725
     18 F2          5.2980   -7.5683    1.4962 F         1 <0>        -0.1699
     19 F3          5.3941   -7.6960   -0.7827 F         1 <0>        -0.1701
     20 F4          2.8082   -8.2862    0.2864 F         1 <0>        -0.1213
     21 H1         -0.5004    1.9237    1.6518 H         1 <0>         0.1468
     22 H2          1.3493    3.1398    0.5252 H         1 <0>         0.1454
     23 H3          3.1675    1.8618   -0.5376 H         1 <0>         0.1677
     24 H4         -0.4602   -0.5617    1.6625 H         1 <0>         0.1513
     25 H5          3.1220   -2.2871   -0.5236 H         1 <0>         0.4265
     26 H6          0.4191   -4.4827   -0.0255 H         1 <0>         0.1599
     27 H7          0.5824   -6.9340    0.1176 H         1 <0>         0.1553
     28 H8          4.6830   -4.1959    0.1256 H         1 <0>         0.1542
@<TRIPOS>BOND
     1    1    6 ar
     2    1    2 ar
     3    1   21 1
     4    2    3 ar
     5    2   22 1
     6    3    4 ar
     7    3   23 1
     8    4    5 ar
     9    5    6 ar
    10    5    7 1
    11    6   24 1
    12    7    8 2
    13    7    9 am
    14    9   10 1
    15    9   25 1
    16   10   15 ar
    17   10   11 ar
    18   11   12 ar
    19   11   26 1
    20   12   13 ar
    21   12   27 1
    22   13   14 ar
    23   13   20 1
    24   14   15 ar
    25   14   16 1
    26   15   28 1
    27   16   17 1
    28   16   18 1
    29   16   19 1
@<TRIPOS>MOLECULE
ZINC00362766
   25    26     0     0     0
SMALL
USER_CHARGES
N-(3-chlorophenyl)pyridine-2-carboxamide
@<TRIPOS>ATOM
      1 C1          1.1930    1.8207   -0.3265 C.ar      1 <0>        -0.0795
      2 C2          0.0288    1.0916   -0.1394 C.ar      1 <0>        -0.1433
      3 C3         -1.1713    1.7615    0.0359 C.ar      1 <0>         0.1002
      4 N1         -1.2171    3.0760    0.0386 N.ar      1 <0>        -0.4608
      5 C4         -0.1261    3.8110   -0.1376 C.ar      1 <0>         0.0719
      6 C5          1.1139    3.2042   -0.3255 C.ar      1 <0>        -0.1061
      7 C6         -0.2277    5.2888   -0.1339 C.2       1 <0>         0.5747
      8 O1          0.7681    5.9667   -0.2944 O.2       1 <0>        -0.5064
      9 N2         -1.4244    5.8816    0.0474 N.am      1 <0>        -0.6547
     10 C7         -1.5054    7.2729    0.1613 C.ar      1 <0>         0.1584
     11 C8         -2.6180    7.9475   -0.3256 C.ar      1 <0>        -0.1392
     12 C9         -2.6955    9.3216   -0.2120 C.ar      1 <0>        -0.0853
     13 C10        -1.6673   10.0268    0.3862 C.ar      1 <0>        -0.1253
     14 C11        -0.5574    9.3584    0.8724 C.ar      1 <0>        -0.0145
     15 C12        -0.4765    7.9824    0.7663 C.ar      1 <0>        -0.1159
     16 Cl1         0.7308   10.2477    1.6231 Cl        1 <0>        -0.0628
     17 H1          2.1401    1.3217   -0.4694 H         1 <0>         0.1464
     18 H2          0.0563    0.0120   -0.1348 H         1 <0>         0.1448
     19 H3         -2.0809    1.1966    0.1774 H         1 <0>         0.1671
     20 H4          2.0008    3.8036   -0.4688 H         1 <0>         0.1509
     21 H5         -2.2295    5.3431    0.0990 H         1 <0>         0.4243
     22 H6         -3.4219    7.3977   -0.7923 H         1 <0>         0.1344
     23 H7         -3.5604    9.8461   -0.5905 H         1 <0>         0.1390
     24 H8         -1.7308   11.1013    0.4744 H         1 <0>         0.1364
     25 H9          0.3876    7.4604    1.1501 H         1 <0>         0.1451
@<TRIPOS>BOND
     1    1    6 ar
     2    1    2 ar
     3    1   17 1
     4    2    3 ar
     5    2   18 1
     6    3    4 ar
     7    3   19 1
     8    4    5 ar
     9    5    6 ar
    10    5    7 1
    11    6   20 1
    12    7    8 2
    13    7    9 am
    14    9   10 1
    15    9   21 1
    16   10   15 ar
    17   10   11 ar
    18   11   12 ar
    19   11   22 1
    20   12   13 ar
    21   12   23 1
    22   13   14 ar
    23   13   24 1
    24   14   15 ar
    25   14   16 1
    26   15   25 1
@<TRIPOS>MOLECULE
ZINC00171065
   28    30     0     0     0
SMALL
USER_CHARGES

@<TRIPOS>ATOM
      1 C1          4.3823    1.4999   -1.2004 C.ar      1 <0>        -0.0796
      2 C2          3.3156    2.1163   -0.5647 C.ar      1 <0>        -0.1437
      3 C3          2.3328    1.3367    0.0235 C.ar      1 <0>         0.1003
      4 N1          2.3997    0.0237   -0.0138 N.ar      1 <0>        -0.4606
      5 C4          3.4036   -0.6056   -0.6119 C.ar      1 <0>         0.0729
      6 C5          4.4269    0.1150   -1.2243 C.ar      1 <0>        -0.1063
      7 C6          3.4368   -2.0865   -0.6282 C.2       1 <0>         0.5748
      8 O1          4.3536   -2.6678   -1.1745 O.2       1 <0>        -0.5080
      9 N2          2.4501   -2.7891   -0.0373 N.am      1 <0>        -0.6508
     10 C7          2.4296   -4.1855   -0.1354 C.ar      1 <0>         0.1536
     11 C8          1.2178   -4.8573   -0.2288 C.ar      1 <0>        -0.1300
     12 C9          1.1960   -6.2354   -0.3258 C.ar      1 <0>        -0.0797
     13 C10         2.3826   -6.9510   -0.3305 C.ar      1 <0>         0.0180
     14 C11         3.5997   -6.2799   -0.2373 C.ar      1 <0>         0.0526
     15 C12         3.6208   -4.8983   -0.1451 C.ar      1 <0>        -0.1046
     16 O2          4.6081   -7.1997   -0.2623 O.3       1 <0>        -0.3058
     17 C13         3.9851   -8.4620    0.0402 C.3       1 <0>         0.2129
     18 O3          2.6294   -8.2919   -0.4139 O.3       1 <0>        -0.3078
     19 H1          5.1586    2.0856   -1.6701 H         1 <0>         0.1460
     20 H2          3.2514    3.1938   -0.5281 H         1 <0>         0.1445
     21 H3          1.5006    1.8137    0.5199 H         1 <0>         0.1670
     22 H4          5.2430   -0.3983   -1.7109 H         1 <0>         0.1508
     23 H5          1.7542   -2.3273    0.4561 H         1 <0>         0.4254
     24 H6          0.2915   -4.3021   -0.2253 H         1 <0>         0.1442
     25 H7          0.2525   -6.7559   -0.3976 H         1 <0>         0.1425
     26 H8          4.5636   -4.3759   -0.0766 H         1 <0>         0.1521
     27 H9          4.4729   -9.2702   -0.5046 H         1 <0>         0.1332
     28 H10         4.0084   -8.6532    1.1131 H         1 <0>         0.0859
@<TRIPOS>BOND
     1    1    6 ar
     2    1    2 ar
     3    1   19 1
     4    2    3 ar
     5    2   20 1
     6    3    4 ar
     7    3   21 1
     8    4    5 ar
     9    5    6 ar
    10    5    7 1
    11    6   22 1
    12    7    8 2
    13    7    9 am
    14    9   10 1
    15    9   23 1
    16   10   15 ar
    17   10   11 ar
    18   11   12 ar
    19   11   24 1
    20   12   13 ar
    21   12   25 1
    22   13   18 1
    23   13   14 ar
    24   14   15 ar
    25   14   16 1
    26   15   26 1
    27   16   17 1
    28   17   18 1
    29   17   27 1
    30   17   28 1
@<TRIPOS>MOLECULE
ZINC03326915
   29    30     0     0     0
SMALL
USER_CHARGES
N-(3-chloro-4-methoxy-phenyl)pyridine-2-carboxamide
@<TRIPOS>ATOM
      1 C1         -0.2645   12.0672   -0.3798 C.3       1 <0>         0.0246
      2 O1         -1.5243   11.4007   -0.2761 O.3       1 <0>        -0.3042
      3 C2         -1.5000   10.0434   -0.1967 C.ar      1 <0>         0.1263
      4 C3         -0.2879    9.3693   -0.2179 C.ar      1 <0>        -0.1787
      5 C4         -0.2619    7.9914   -0.1312 C.ar      1 <0>        -0.0944
      6 C5         -1.4502    7.2791   -0.0342 C.ar      1 <0>         0.1161
      7 C6         -2.6636    7.9537   -0.0129 C.ar      1 <0>        -0.0745
      8 C7         -2.6881    9.3330   -0.0941 C.ar      1 <0>        -0.0517
      9 Cl1        -4.2048   10.1773   -0.0681 Cl        1 <0>        -0.0485
     10 N1         -1.4244    5.8816    0.0479 N.am      1 <0>        -0.6510
     11 C8         -2.3994    5.1543   -0.5324 C.2       1 <0>         0.5741
     12 O2         -3.3448    5.7120   -1.0542 O.2       1 <0>        -0.5098
     13 C9         -2.3188    3.6752   -0.5342 C.ar      1 <0>         0.0732
     14 C10        -3.3301    2.9290   -1.1357 C.ar      1 <0>        -0.1063
     15 C11        -3.2405    1.5461   -1.1298 C.ar      1 <0>        -0.0796
     16 C12        -2.1423    0.9572   -0.5222 C.ar      1 <0>        -0.1440
     17 C13        -1.1768    1.7612    0.0618 C.ar      1 <0>         0.1000
     18 N2         -1.2837    3.0718    0.0369 N.ar      1 <0>        -0.4611
     19 H1          0.2518   11.7305   -1.2788 H         1 <0>         0.0579
     20 H2         -0.4264   13.1437   -0.4355 H         1 <0>         0.1041
     21 H3          0.3421   11.8359    0.4957 H         1 <0>         0.0581
     22 H4          0.6361    9.9226   -0.2978 H         1 <0>         0.1434
     23 H5          0.6824    7.4673   -0.1429 H         1 <0>         0.1376
     24 H6         -3.5879    7.4007    0.0673 H         1 <0>         0.1570
     25 H7         -0.7047    5.4369    0.5225 H         1 <0>         0.4234
     26 H8         -4.1719    3.4213   -1.5998 H         1 <0>         0.1510
     27 H9         -4.0085    0.9410   -1.5884 H         1 <0>         0.1460
     28 H10        -2.0426   -0.1180   -0.5005 H         1 <0>         0.1444
     29 H11        -0.3225    1.3055    0.5402 H         1 <0>         0.1666
@<TRIPOS>BOND
     1    1    2 1
     2    1   19 1
     3    1   20 1
     4    1   21 1
     5    2    3 1
     6    3    8 ar
     7    3    4 ar
     8    4    5 ar
     9    4   22 1
    10    5    6 ar
    11    5   23 1
    12    6    7 ar
    13    6   10 1
    14    7    8 ar
    15    7   24 1
    16    8    9 1
    17   10   11 am
    18   10   25 1
    19   11   12 2
    20   11   13 1
    21   13   18 ar
    22   13   14 ar
    23   14   15 ar
    24   14   26 1
    25   15   16 ar
    26   15   27 1
    27   16   17 ar
    28   16   28 1
    29   17   18 ar
    30   17   29 1
@<TRIPOS>MOLECULE
ZINC43122151
   29    30     0     0     0
SMALL
USER_CHARGES

@<TRIPOS>ATOM
      1 C1         -0.0208    1.4088    0.0075 C.3       1 <0>         0.0240
      2 O1          0.0094   -0.0198   -0.0012 O.3       1 <0>        -0.3014
      3 C2          0.6366   -0.6301    1.0388 C.ar      1 <0>         0.1576
      4 C3          1.2052    0.1303    2.0484 C.ar      1 <0>        -0.2233
      5 C4          1.8445   -0.4959    3.1093 C.ar      1 <0>         0.1880
      6 C5          1.9128   -1.8827    3.1566 C.ar      1 <0>        -0.1465
      7 C6          1.3451   -2.6378    2.1488 C.ar      1 <0>        -0.0524
      8 C7          0.7031   -2.0160    1.0935 C.ar      1 <0>        -0.0828
      9 Cl1        -0.0153   -2.9690   -0.1673 Cl        1 <0>        -0.0547
     10 N1          2.4198    0.2685    4.1297 N.am      1 <0>        -0.6551
     11 C8          2.3990   -0.1793    5.4007 C.2       1 <0>         0.5769
     12 O2          1.9561   -1.2835    5.6487 O.2       1 <0>        -0.5053
     13 C9          2.9159    0.6745    6.4953 C.ar      1 <0>         0.0716
     14 C10         2.8968    0.2035    7.8064 C.ar      1 <0>        -0.1056
     15 C11         3.3839    1.0137    8.8198 C.ar      1 <0>        -0.0794
     16 C12         3.8732    2.2673    8.4866 C.ar      1 <0>        -0.1430
     17 C13         3.8615    2.6708    7.1612 C.ar      1 <0>         0.1003
     18 N2          3.3983    1.8795    6.2182 N.ar      1 <0>        -0.4613
     19 H1          0.9989    1.7939    0.0013 H         1 <0>         0.0585
     20 H2         -0.5496    1.7665   -0.8760 H         1 <0>         0.1053
     21 H3         -0.5348    1.7559    0.9039 H         1 <0>         0.0579
     22 H4          1.1512    1.2082    2.0095 H         1 <0>         0.1417
     23 H5          2.4104   -2.3707    3.9816 H         1 <0>         0.1503
     24 H6          1.3992   -3.7158    2.1872 H         1 <0>         0.1457
     25 H7          2.8338    1.1210    3.9225 H         1 <0>         0.4235
     26 H8          2.5077   -0.7788    8.0299 H         1 <0>         0.1513
     27 H9          3.3819    0.6764    9.8457 H         1 <0>         0.1465
     28 H10         4.2596    2.9231    9.2528 H         1 <0>         0.1449
     29 H11         4.2417    3.6469    6.8982 H         1 <0>         0.1669
@<TRIPOS>BOND
     1    1    2 1
     2    1   19 1
     3    1   20 1
     4    1   21 1
     5    2    3 1
     6    3    8 ar
     7    3    4 ar
     8    4    5 ar
     9    4   22 1
    10    5    6 ar
    11    5   10 1
    12    6    7 ar
    13    6   23 1
    14    7    8 ar
    15    7   24 1
    16    8    9 1
    17   10   11 am
    18   10   25 1
    19   11   12 2
    20   11   13 1
    21   13   18 ar
    22   13   14 ar
    23   14   15 ar
    24   14   26 1
    25   15   16 ar
    26   15   27 1
    27   16   17 ar
    28   16   28 1
    29   17   18 ar
    30   17   29 1
@<TRIPOS>MOLECULE
ZINC07306536
   28    29     0     0     0
SMALL
USER_CHARGES
N-[4-chloro-3-(trifluoromethyl)phenyl]pyridine-2-carboxamide
@<TRIPOS>ATOM
      1 C1          0.7009    1.7992   -1.4704 C.ar      1 <0>        -0.0794
      2 C2         -0.2068    1.0815   -0.7070 C.ar      1 <0>        -0.1413
      3 C3         -1.1663    1.7619    0.0253 C.ar      1 <0>         0.1013
      4 N1         -1.2195    3.0760    0.0128 N.ar      1 <0>        -0.4604
      5 C4         -0.3695    3.8004   -0.7045 C.ar      1 <0>         0.0697
      6 C5          0.6179    3.1826   -1.4689 C.ar      1 <0>        -0.1046
      7 C6         -0.4713    5.2782   -0.6917 C.2       1 <0>         0.5789
      8 O1          0.3045    5.9464   -1.3463 O.2       1 <0>        -0.5062
      9 N2         -1.4244    5.8816    0.0458 N.am      1 <0>        -0.6548
     10 C7         -1.4526    7.2765    0.1461 C.ar      1 <0>         0.1538
     11 C8         -0.2661    7.9988    0.1372 C.ar      1 <0>        -0.0787
     12 C9         -0.2970    9.3761    0.2312 C.ar      1 <0>        -0.0868
     13 C10        -1.5082   10.0362    0.3456 C.ar      1 <0>        -0.0087
     14 C11        -2.6913    9.3188    0.3600 C.ar      1 <0>        -0.1563
     15 C12        -2.6664    7.9413    0.2606 C.ar      1 <0>        -0.0868
     16 C13        -4.0081   10.0409    0.4838 C.3       1 <0>         0.5113
     17 F1         -5.0529    9.1105    0.4750 F         1 <0>        -0.1739
     18 F2         -4.0345   10.7604    1.6833 F         1 <0>        -0.1677
     19 F3         -4.1595   10.9223   -0.5920 F         1 <0>        -0.1675
     20 Cl1        -1.5431   11.7673    0.4708 Cl        1 <0>        -0.0401
     21 H1          1.4558    1.2919   -2.0527 H         1 <0>         0.1470
     22 H2         -0.1692    0.0023   -0.6867 H         1 <0>         0.1455
     23 H3         -1.8776    1.2056    0.6178 H         1 <0>         0.1678
     24 H4          1.3086    3.7733   -2.0524 H         1 <0>         0.1513
     25 H5         -2.0908    5.3487    0.5070 H         1 <0>         0.4267
     26 H6          0.6795    7.4840    0.0525 H         1 <0>         0.1542
     27 H7          0.6249    9.9385    0.2198 H         1 <0>         0.1525
     28 H8         -3.5901    7.3818    0.2723 H         1 <0>         0.1533
@<TRIPOS>BOND
     1    1    6 ar
     2    1    2 ar
     3    1   21 1
     4    2    3 ar
     5    2   22 1
     6    3    4 ar
     7    3   23 1
     8    4    5 ar
     9    5    6 ar
    10    5    7 1
    11    6   24 1
    12    7    8 2
    13    7    9 am
    14    9   10 1
    15    9   25 1
    16   10   15 ar
    17   10   11 ar
    18   11   12 ar
    19   11   26 1
    20   12   13 ar
    21   12   27 1
    22   13   14 ar
    23   13   20 1
    24   14   15 ar
    25   14   16 1
    26   15   28 1
    27   16   17 1
    28   16   18 1
    29   16   19 1
@<TRIPOS>MOLECULE
ZINC03157772
   28    29     0     0     0
SMALL
USER_CHARGES
N-[3-(trifluoromethyl)phenyl]pyridine-2-carboxamide
@<TRIPOS>ATOM
      1 C1         -3.0682    1.5658    1.5150 C.ar      1 <0>        -0.0793
      2 C2         -2.0851    0.9654    0.7438 C.ar      1 <0>        -0.1426
      3 C3         -1.2099    1.7594    0.0202 C.ar      1 <0>         0.1005
      4 N1         -1.3079    3.0707    0.0472 N.ar      1 <0>        -0.4608
      5 C4         -2.2341    3.6850    0.7727 C.ar      1 <0>         0.0712
      6 C5         -3.1438    2.9495    1.5296 C.ar      1 <0>        -0.1054
      7 C6         -2.3016    5.1647    0.7775 C.2       1 <0>         0.5751
      8 O1         -3.1479    5.7323    1.4397 O.2       1 <0>        -0.5061
      9 N2         -1.4244    5.8816    0.0474 N.am      1 <0>        -0.6552
     10 C7         -1.5556    7.2712   -0.0364 C.ar      1 <0>         0.1465
     11 C8         -0.4255    8.0720   -0.1427 C.ar      1 <0>        -0.1109
     12 C9         -0.5586    9.4440   -0.2252 C.ar      1 <0>        -0.0974
     13 C10        -1.8153   10.0210   -0.2021 C.ar      1 <0>        -0.0874
     14 C11        -2.9422    9.2268   -0.0968 C.ar      1 <0>        -0.1622
     15 C12        -2.8163    7.8535   -0.0192 C.ar      1 <0>        -0.0742
     16 C13        -4.3096    9.8598   -0.0730 C.3       1 <0>         0.5094
     17 F1         -4.1819   11.2496   -0.1696 F         1 <0>        -0.1758
     18 F2         -5.0623    9.3846   -1.1523 F         1 <0>        -0.1759
     19 F3         -4.9541    9.5329    1.1249 F         1 <0>        -0.1726
     20 H1         -3.7596    0.9688    2.0911 H         1 <0>         0.1466
     21 H2         -1.9993   -0.1107    0.7107 H         1 <0>         0.1451
     22 H3         -0.4400    1.2950   -0.5781 H         1 <0>         0.1673
     23 H4         -3.8970    3.4506    2.1195 H         1 <0>         0.1512
     24 H5         -0.7020    5.4336   -0.4199 H         1 <0>         0.4252
     25 H6          0.5561    7.6221   -0.1611 H         1 <0>         0.1384
     26 H7          0.3196   10.0671   -0.3082 H         1 <0>         0.1423
     27 H8         -1.9167   11.0943   -0.2668 H         1 <0>         0.1419
     28 H9         -3.6972    7.2334    0.0588 H         1 <0>         0.1453
@<TRIPOS>BOND
     1    1    6 ar
     2    1    2 ar
     3    1   20 1
     4    2    3 ar
     5    2   21 1
     6    3    4 ar
     7    3   22 1
     8    4    5 ar
     9    5    6 ar
    10    5    7 1
    11    6   23 1
    12    7    8 2
    13    7    9 am
    14    9   10 1
    15    9   24 1
    16   10   15 ar
    17   10   11 ar
    18   11   12 ar
    19   11   25 1
    20   12   13 ar
    21   12   26 1
    22   13   14 ar
    23   13   27 1
    24   14   15 ar
    25   14   16 1
    26   15   28 1
    27   16   17 1
    28   16   18 1
    29   16   19 1
@<TRIPOS>MOLECULE
ZINC03331176
   33    34     0     0     0
SMALL
USER_CHARGES

@<TRIPOS>ATOM
      1 C1          0.1670    1.4234   -0.0977 C.3       1 <0>         0.0253
      2 O1          0.0234    0.0046   -0.0056 O.3       1 <0>        -0.3061
      3 C2          0.6425   -0.6125    1.0370 C.ar      1 <0>         0.0878
      4 C3          1.3665    0.1337    1.9529 C.ar      1 <0>        -0.1519
      5 C4          1.9958   -0.4915    3.0123 C.ar      1 <0>        -0.1152
      6 C5          1.9040   -1.8691    3.1615 C.ar      1 <0>         0.1470
      7 C6          1.1789   -2.6197    2.2458 C.ar      1 <0>        -0.1960
      8 C7          0.5438   -1.9925    1.1869 C.ar      1 <0>         0.1198
      9 O2         -0.1708   -2.7251    0.2913 O.3       1 <0>        -0.3027
     10 C8         -0.2292   -4.1365    0.5073 C.3       1 <0>         0.0246
     11 N1          2.5430   -2.5011    4.2349 N.am      1 <0>        -0.6520
     12 C9          2.6539   -1.8688    5.4200 C.2       1 <0>         0.5743
     13 O3          2.1168   -0.7914    5.5865 O.2       1 <0>        -0.5096
     14 C10         3.4305   -2.4871    6.5195 C.ar      1 <0>         0.0731
     15 C11         3.5366   -1.8312    7.7441 C.ar      1 <0>        -0.1070
     16 C12         4.2661   -2.4224    8.7633 C.ar      1 <0>        -0.0797
     17 C13         4.8643   -3.6496    8.5225 C.ar      1 <0>        -0.1445
     18 C14         4.7170   -4.2449    7.2800 C.ar      1 <0>         0.1000
     19 N2          4.0148   -3.6640    6.3317 N.ar      1 <0>        -0.4612
     20 H1          1.2230    1.6763   -0.1929 H         1 <0>         0.0552
     21 H2         -0.3739    1.7873   -0.9712 H         1 <0>         0.1012
     22 H3         -0.2386    1.8887    0.8007 H         1 <0>         0.0555
     23 H4          1.4394    1.2052    1.8384 H         1 <0>         0.1407
     24 H5          2.5600    0.0918    3.7250 H         1 <0>         0.1396
     25 H6          1.1072   -3.6911    2.3612 H         1 <0>         0.1401
     26 H7          0.7793   -4.5494    0.4851 H         1 <0>         0.0557
     27 H8         -0.6827   -4.3371    1.4780 H         1 <0>         0.0553
     28 H9         -0.8288   -4.5995   -0.2765 H         1 <0>         0.1023
     29 H10         2.9058   -3.3940    4.1258 H         1 <0>         0.4211
     30 H11         3.0575   -0.8754    7.8968 H         1 <0>         0.1507
     31 H12         4.3665   -1.9380    9.7234 H         1 <0>         0.1459
     32 H13         5.4399   -4.1367    9.2956 H         1 <0>         0.1443
     33 H14         5.1820   -5.2007    7.0889 H         1 <0>         0.1664
@<TRIPOS>BOND
     1    1    2 1
     2    1   20 1
     3    1   21 1
     4    1   22 1
     5    2    3 1
     6    3    8 ar
     7    3    4 ar
     8    4    5 ar
     9    4   23 1
    10    5    6 ar
    11    5   24 1
    12    6    7 ar
    13    6   11 1
    14    7    8 ar
    15    7   25 1
    16    8    9 1
    17    9   10 1
    18   10   26 1
    19   10   27 1
    20   10   28 1
    21   11   12 am
    22   11   29 1
    23   12   13 2
    24   12   14 1
    25   14   19 ar
    26   14   15 ar
    27   15   16 ar
    28   15   30 1
    29   16   17 ar
    30   16   31 1
    31   17   18 ar
    32   17   32 1
    33   18   19 ar
    34   18   33 1
@<TRIPOS>MOLECULE
ZINC01482113
   18    17     0     0     0
SMALL
USER_CHARGES

@<TRIPOS>ATOM
      1 C1         -0.0187    1.5258    0.0104 C.3       1 <0>        -0.1000
      2 C2          0.0021   -0.0041    0.0020 C.3       1 <0>        -0.1962
      3 C3         -1.4117   -0.5257    0.0127 C.2       1 <0>         0.4893
      4 O1         -2.3491    0.2539    0.0259 O.co2     1 <0>        -0.6870
      5 O2         -1.6182   -1.7273    0.0082 O.co2     1 <0>        -0.7019
      6 C4          1.4167    2.0553   -0.0004 C.3       1 <0>        -0.0520
      7 H1          1.9535    1.6326   -0.8497 H         1 <0>         0.1269
      8 C5          1.3970    3.5578   -0.1160 C.2       1 <0>         0.4945
      9 O3          1.7295    4.2467    0.8334 O.co2     1 <0>        -0.6861
     10 O4          1.0484    4.0844   -1.1589 O.co2     1 <0>        -0.6413
     11 N1          2.0906    1.6690    1.2464 N.4       1 <0>        -0.6105
     12 H2         -0.5459    1.8868   -0.8726 H         1 <0>         0.1064
     13 H3         -0.5289    1.8773    0.9072 H         1 <0>         0.0773
     14 H4          0.5123   -0.3556   -0.8948 H         1 <0>         0.0672
     15 H5          0.5293   -0.3651    0.8851 H         1 <0>         0.0471
     16 H6          2.1039    0.6630    1.3237 H         1 <0>         0.4141
     17 H7          3.0372    2.0182    1.2392 H         1 <0>         0.4227
     18 H8          1.5937    2.0603    2.0325 H         1 <0>         0.4293
@<TRIPOS>BOND
     1    1    2 1
     2    1    6 1
     3    1   12 1
     4    1   13 1
     5    2    3 1
     6    2   14 1
     7    2   15 1
     8    3    4 2
     9    3    5 1
    10    6    7 1
    11    6    8 1
    12    6   11 1
    13    8    9 2
    14    8   10 1
    15   11   16 1
    16   11   17 1
    17   11   18 1
