@<TRIPOS>MOLECULE
ZINC03869280
   17    16     0     0     0
SMALL
USER_CHARGES

@<TRIPOS>ATOM
      1 C1         -0.0187    1.5258    0.0104 C.3       1 <0>         0.1201
      2 C2          0.0021   -0.0041    0.0020 C.3       1 <0>        -0.0471
      3 H1          0.6044   -0.3639    0.8362 H         1 <0>         0.1324
      4 C3         -1.4051   -0.5263    0.1365 C.2       1 <0>         0.4988
      5 O1         -1.9459   -1.0721   -0.8102 O.co2     1 <0>        -0.6895
      6 O2         -2.0029   -0.4029    1.1919 O.co2     1 <0>        -0.6428
      7 N1          0.5820   -0.4790   -1.2614 N.4       1 <0>        -0.6052
      8 O3          1.3220    2.0204    0.0003 O.3       1 <0>        -0.7682
      9 P1          1.6773    3.5907    0.0053 P.3       1 <0>         2.1196
     10 O4          0.9547    4.2935   -1.1940 O.2       1 <0>        -1.1824
     11 O5          1.1965    4.2306    1.3521 O.3       1 <0>        -1.1793
     12 O6          3.2264    3.7760   -0.1372 O.3       1 <0>        -1.1618
     13 H2         -0.5459    1.8868   -0.8726 H         1 <0>         0.0551
     14 H3         -0.5289    1.8773    0.9072 H         1 <0>         0.0812
     15 H4          1.5242   -0.1293   -1.3514 H         1 <0>         0.4271
     16 H5          0.5957   -1.4879   -1.2669 H         1 <0>         0.4155
     17 H6          0.0244   -0.1459   -2.0336 H         1 <0>         0.4264
@<TRIPOS>BOND
     1    1    2 1
     2    1    8 1
     3    1   13 1
     4    1   14 1
     5    2    3 1
     6    2    4 1
     7    2    7 1
     8    4    5 2
     9    4    6 1
    10    7   15 1
    11    7   16 1
    12    7   17 1
    13    8    9 1
    14    9   10 2
    15    9   11 1
    16    9   12 1
@<TRIPOS>MOLECULE
ZINC19632743
   20    19     0     0     0
SMALL
USER_CHARGES

@<TRIPOS>ATOM
      1 C1         -0.0187    1.5258    0.0104 C.3       1 <0>        -0.0985
      2 C2          0.0021   -0.0041    0.0020 C.3       1 <0>        -0.7423
      3 P1         -1.7082   -0.6351    0.0150 P.3       1 <0>         2.2529
      4 O1         -2.4691   -0.0359    1.2187 O.2       1 <0>        -1.0899
      5 O2         -2.4170   -0.2287   -1.2963 O.3       1 <0>        -1.0881
      6 O3         -1.6871   -2.2402    0.1384 O.3       1 <0>        -0.9064
      7 C3          1.4167    2.0553   -0.0004 C.3       1 <0>        -0.0481
      8 H1          1.9535    1.6326   -0.8497 H         1 <0>         0.1243
      9 C4          1.3970    3.5578   -0.1160 C.2       1 <0>         0.4947
     10 O4          1.7295    4.2467    0.8334 O.co2     1 <0>        -0.6823
     11 O5          1.0484    4.0844   -1.1589 O.co2     1 <0>        -0.6363
     12 N1          2.0906    1.6690    1.2464 N.4       1 <0>        -0.6104
     13 H2         -0.5459    1.8868   -0.8726 H         1 <0>         0.1162
     14 H3         -0.5289    1.8773    0.9072 H         1 <0>         0.0904
     15 H4          0.5123   -0.3556   -0.8948 H         1 <0>         0.0822
     16 H5          0.5293   -0.3651    0.8851 H         1 <0>         0.0600
     17 H6         -2.5651   -2.6452    0.1513 H         1 <0>         0.4152
     18 H7          2.1039    0.6630    1.3237 H         1 <0>         0.4110
     19 H8          3.0372    2.0182    1.2392 H         1 <0>         0.4240
     20 H9          1.5937    2.0603    2.0325 H         1 <0>         0.4313
@<TRIPOS>BOND
     1    1    2 1
     2    1    7 1
     3    1   13 1
     4    1   14 1
     5    2    3 1
     6    2   15 1
     7    2   16 1
     8    3    4 2
     9    3    5 1
    10    3    6 1
    11    6   17 1
    12    7    8 1
    13    7    9 1
    14    7   12 1
    15    9   10 2
    16    9   11 1
    17   12   18 1
    18   12   19 1
    19   12   20 1
@<TRIPOS>MOLECULE
ZINC32628523
   21    21     0     0     0
SMALL
USER_CHARGES

@<TRIPOS>ATOM
      1 C1         -0.0188    1.5384    0.0105 C.3       1 <0>        -0.0919
      2 C2          1.4663    1.9598   -0.0014 C.3       1 <0>        -0.0335
      3 H1          1.8178    2.1424    1.0141 H         1 <0>         0.1300
      4 N1          2.1797    0.8001   -0.5959 N.4       1 <0>        -0.4916
      5 C3          1.4981   -0.3849   -0.0143 C.3       1 <0>         0.0239
      6 C4          0.0021   -0.0041    0.0020 C.3       1 <0>         0.0225
      7 C5         -0.6618   -0.5434    1.2428 C.2       1 <0>         0.4803
      8 O1         -1.6413   -1.2630    1.1463 O.co2     1 <0>        -0.6786
      9 O2         -0.2195   -0.2601    2.3430 O.co2     1 <0>        -0.6799
     10 N2         -0.6681   -0.5168   -1.2004 N.3       1 <0>        -0.8234
     11 C6          1.6569    3.1894   -0.8516 C.2       1 <0>         0.4976
     12 O3          1.5676    4.2971   -0.3501 O.co2     1 <0>        -0.6493
     13 O4          1.9004    3.0764   -2.0409 O.co2     1 <0>        -0.6757
     14 H2         -0.5093    1.9054    0.9121 H         1 <0>         0.0978
     15 H3         -0.5264    1.9150   -0.8776 H         1 <0>         0.0886
     16 H4          2.0844    0.8044   -1.6004 H         1 <0>         0.4306
     17 H5          1.6602   -1.2621   -0.6406 H         1 <0>         0.1175
     18 H6          1.8545   -0.5691    0.9991 H         1 <0>         0.1306
     19 H7         -0.6603   -1.5257   -1.2164 H         1 <0>         0.3413
     20 H8         -1.6099   -0.1614   -1.2688 H         1 <0>         0.3508
     21 H9          3.1535    0.8119   -0.3321 H         1 <0>         0.4122
@<TRIPOS>BOND
     1    1    6 1
     2    1    2 1
     3    1   14 1
     4    1   15 1
     5    2    3 1
     6    2    4 1
     7    2   11 1
     8    4    5 1
     9    4   16 1
    10    4   21 1
    11    5    6 1
    12    5   17 1
    13    5   18 1
    14    6    7 1
    15    6   10 1
    16    7    8 2
    17    7    9 1
    18   10   19 1
    19   10   20 1
    20   11   12 2
    21   11   13 1
@<TRIPOS>MOLECULE
ZINC03826602
   44    47     0     0     0
SMALL
USER_CHARGES

@<TRIPOS>ATOM
      1 C1         -2.0652   -0.8598    0.6816 C.ar      1 <0>        -0.1307
      2 C2         -1.4521   -0.1116   -0.3067 C.ar      1 <0>        -0.0780
      3 C3         -0.2478   -0.5258   -0.8385 C.ar      1 <0>        -0.1082
      4 C4          0.3518   -1.6944   -0.3817 C.ar      1 <0>         0.1485
      5 C5         -0.2642   -2.4413    0.6088 C.ar      1 <0>        -0.1566
      6 C6         -1.4726   -2.0216    1.1374 C.ar      1 <0>        -0.0298
      7 C7          0.3651   -3.7076    1.1223 C.3       1 <0>        -0.0043
      8 C8          1.4114   -4.2062    0.1633 C.ar      1 <0>        -0.1792
      9 C9          1.8465   -5.5168    0.2561 C.ar      1 <0>        -0.0847
     10 C10         2.8075   -5.9936   -0.6143 C.ar      1 <0>        -0.1422
     11 C11         3.3387   -5.1614   -1.5827 C.ar      1 <0>        -0.0829
     12 C12         2.9082   -3.8538   -1.6802 C.ar      1 <0>        -0.1445
     13 C13         1.9410   -3.3703   -0.8057 C.ar      1 <0>         0.0839
     14 O1          1.5344   -2.0829   -0.9159 O.3       1 <0>        -0.2343
     15 C14         1.0151   -3.4331    2.4799 C.3       1 <0>        -0.1014
     16 C15         2.0274   -2.2945    2.3397 C.3       1 <0>         0.0088
     17 C16         2.6935   -2.0348    3.6924 C.3       1 <0>        -0.1343
     18 H1          2.0566   -2.1784    4.5653 H         1 <0>         0.1359
     19 C17         4.1741   -2.3945    3.8314 C.3       1 <0>        -0.1905
     20 C18         3.7460   -0.9265    3.7605 C.3       1 <0>        -0.1789
     21 H2          3.9640   -0.3823    2.8415 H         1 <0>         0.1011
     22 C19         3.8233   -0.1172    5.0294 C.2       1 <0>         0.5190
     23 O2          4.8881    0.3579    5.3855 O.co2     1 <0>        -0.6942
     24 O3          2.8209    0.0625    5.6998 O.co2     1 <0>        -0.6777
     25 C20         1.3189   -1.0461    1.8808 C.2       1 <0>         0.5149
     26 O4          0.2686   -0.7142    2.4034 O.co2     1 <0>        -0.6129
     27 O5          1.7961   -0.3680    0.9869 O.co2     1 <0>        -0.6652
     28 N1          3.0505   -2.6674    1.3537 N.4       1 <0>        -0.6246
     29 H3         -3.0057   -0.5334    1.1005 H         1 <0>         0.1165
     30 H4         -1.9159    0.7965   -0.6627 H         1 <0>         0.1212
     31 H5          0.2297    0.0586   -1.6110 H         1 <0>         0.1216
     32 H6         -1.9536   -2.6040    1.9093 H         1 <0>         0.1161
     33 H7         -0.4056   -4.4692    1.2411 H         1 <0>         0.1043
     34 H8          1.4338   -6.1688    1.0117 H         1 <0>         0.1387
     35 H9          3.1445   -7.0168   -0.5382 H         1 <0>         0.1347
     36 H10         4.0905   -5.5346   -2.2623 H         1 <0>         0.1391
     37 H11         3.3234   -3.2047   -2.4369 H         1 <0>         0.1440
     38 H12         0.2472   -3.1500    3.1998 H         1 <0>         0.1175
     39 H13         1.5249   -4.3318    2.8270 H         1 <0>         0.0757
     40 H14         4.5114   -2.7742    4.7958 H         1 <0>         0.1075
     41 H15         4.6737   -2.8160    2.9592 H         1 <0>         0.0689
     42 H16         2.8070   -2.2812    0.4539 H         1 <0>         0.4233
     43 H17         3.9459   -2.3044    1.6444 H         1 <0>         0.4120
     44 H18         3.1012   -3.6729    1.2856 H         1 <0>         0.4021
@<TRIPOS>BOND
     1    1    6 ar
     2    1    2 ar
     3    1   29 1
     4    2    3 ar
     5    2   30 1
     6    3    4 ar
     7    3   31 1
     8    4   14 1
     9    4    5 ar
    10    5    6 ar
    11    5    7 1
    12    6   32 1
    13    7    8 1
    14    7   15 1
    15    7   33 1
    16    8   13 ar
    17    8    9 ar
    18    9   10 ar
    19    9   34 1
    20   10   11 ar
    21   10   35 1
    22   11   12 ar
    23   11   36 1
    24   12   13 ar
    25   12   37 1
    26   13   14 1
    27   15   16 1
    28   15   38 1
    29   15   39 1
    30   16   17 1
    31   16   25 1
    32   16   28 1
    33   17   18 1
    34   17   20 1
    35   17   19 1
    36   19   20 1
    37   19   40 1
    38   19   41 1
    39   20   21 1
    40   20   22 1
    41   22   23 2
    42   22   24 1
    43   25   26 2
    44   25   27 1
    45   28   42 1
    46   28   43 1
    47   28   44 1
@<TRIPOS>MOLECULE
ZINC01482113
   18    17     0     0     0
SMALL
USER_CHARGES

@<TRIPOS>ATOM
      1 C1         -0.0187    1.5258    0.0104 C.3       1 <0>        -0.1000
      2 C2          0.0021   -0.0041    0.0020 C.3       1 <0>        -0.1962
      3 C3         -1.4117   -0.5257    0.0127 C.2       1 <0>         0.4893
      4 O1         -2.3491    0.2539    0.0259 O.co2     1 <0>        -0.6870
      5 O2         -1.6182   -1.7273    0.0082 O.co2     1 <0>        -0.7019
      6 C4          1.4167    2.0553   -0.0004 C.3       1 <0>        -0.0520
      7 H1          1.9535    1.6326   -0.8497 H         1 <0>         0.1269
      8 C5          1.3970    3.5578   -0.1160 C.2       1 <0>         0.4945
      9 O3          1.7295    4.2467    0.8334 O.co2     1 <0>        -0.6861
     10 O4          1.0484    4.0844   -1.1589 O.co2     1 <0>        -0.6413
     11 N1          2.0906    1.6690    1.2464 N.4       1 <0>        -0.6105
     12 H2         -0.5459    1.8868   -0.8726 H         1 <0>         0.1064
     13 H3         -0.5289    1.8773    0.9072 H         1 <0>         0.0773
     14 H4          0.5123   -0.3556   -0.8948 H         1 <0>         0.0672
     15 H5          0.5293   -0.3651    0.8851 H         1 <0>         0.0471
     16 H6          2.1039    0.6630    1.3237 H         1 <0>         0.4141
     17 H7          3.0372    2.0182    1.2392 H         1 <0>         0.4227
     18 H8          1.5937    2.0603    2.0325 H         1 <0>         0.4293
@<TRIPOS>BOND
     1    1    2 1
     2    1    6 1
     3    1   12 1
     4    1   13 1
     5    2    3 1
     6    2   14 1
     7    2   15 1
     8    3    4 2
     9    3    5 1
    10    6    7 1
    11    6    8 1
    12    6   11 1
    13    8    9 2
    14    8   10 1
    15   11   16 1
    16   11   17 1
    17   11   18 1
