@<TRIPOS>MOLECULE
ZINC03830891
   36    35     0     0     0
SMALL
USER_CHARGES

@<TRIPOS>ATOM
      1 C1         -0.0187    1.5258    0.0104 C.3       1 <0>        -0.1105
      2 C2          0.0021   -0.0041    0.0020 C.3       1 <0>        -0.1496
      3 C3         -1.4117   -0.5257    0.0127 C.2       1 <0>         0.5139
      4 O1         -2.3441    0.2498    0.0258 O.2       1 <0>        -0.4990
      5 N1         -1.6400   -1.8540    0.0078 N.am      1 <0>        -0.7103
      6 C4         -3.0144   -2.3611    0.0182 C.3       1 <0>         0.1477
      7 H1         -3.6410   -1.7002    0.6172 H         1 <0>         0.1258
      8 C5         -3.5501   -2.4119   -1.4141 C.3       1 <0>        -0.0936
      9 S1         -3.5261   -0.7446   -2.1282 S.3       1 <0>        -0.1782
     10 C6         -3.0343   -3.7462    0.6114 C.2       1 <0>         0.5064
     11 O2         -2.0021   -4.2593    0.9884 O.2       1 <0>        -0.5524
     12 N2         -4.1992   -4.4148    0.7230 N.am      1 <0>        -0.6869
     13 C7         -4.2185   -5.7614    1.2997 C.3       1 <0>         0.0492
     14 C8         -5.6323   -6.2830    1.3104 C.2       1 <0>         0.4895
     15 O3         -6.5397   -5.5939    0.8765 O.co2     1 <0>        -0.6895
     16 O4         -5.8688   -7.3942    1.7530 O.co2     1 <0>        -0.6850
     17 C9          1.4167    2.0553   -0.0004 C.3       1 <0>        -0.0502
     18 H2          1.9535    1.6326   -0.8497 H         1 <0>         0.1343
     19 C10         1.3970    3.5578   -0.1160 C.2       1 <0>         0.4921
     20 O5          1.7295    4.2467    0.8334 O.co2     1 <0>        -0.6766
     21 O6          1.0484    4.0844   -1.1589 O.co2     1 <0>        -0.6345
     22 N3          2.0906    1.6690    1.2464 N.4       1 <0>        -0.6143
     23 H3         -0.5459    1.8868   -0.8726 H         1 <0>         0.1207
     24 H4         -0.5289    1.8773    0.9072 H         1 <0>         0.0897
     25 H5          0.5123   -0.3556   -0.8948 H         1 <0>         0.1056
     26 H6          0.5293   -0.3651    0.8851 H         1 <0>         0.0822
     27 H7         -0.8943   -2.4742   -0.0027 H         1 <0>         0.4093
     28 H8         -2.9235   -3.0728   -2.0131 H         1 <0>         0.0894
     29 H9         -4.5727   -2.7892   -1.4064 H         1 <0>         0.1029
     30 H10        -4.0126   -0.9156   -3.3704 H         1 <0>         0.0467
     31 H11        -5.0248   -4.0045    0.4215 H         1 <0>         0.4113
     32 H12        -3.5920   -6.4222    0.7007 H         1 <0>         0.0693
     33 H13        -3.8369   -5.7252    2.3201 H         1 <0>         0.0697
     34 H14         1.5937    2.0603    2.0325 H         1 <0>         0.4323
     35 H15         2.1039    0.6630    1.3237 H         1 <0>         0.4121
     36 H16         3.0372    2.0182    1.2392 H         1 <0>         0.4303
@<TRIPOS>BOND
     1    1    2 1
     2    1   17 1
     3    1   23 1
     4    1   24 1
     5    2    3 1
     6    2   25 1
     7    2   26 1
     8    3    4 2
     9    3    5 am
    10    5    6 1
    11    5   27 1
    12    6    7 1
    13    6    8 1
    14    6   10 1
    15    8    9 1
    16    8   28 1
    17    8   29 1
    18    9   30 1
    19   10   11 2
    20   10   12 am
    21   12   13 1
    22   12   31 1
    23   13   14 1
    24   13   32 1
    25   13   33 1
    26   14   15 2
    27   14   16 1
    28   17   18 1
    29   17   19 1
    30   17   22 1
    31   19   20 2
    32   19   21 1
    33   22   34 1
    34   22   35 1
    35   22   36 1
@<TRIPOS>MOLECULE
ZINC03830892
   36    35     0     0     0
SMALL
USER_CHARGES
2-amino-5-[1-(carboxymethylcarbamoyl)-2-sulfanyl-ethyl]amino-5-oxo-pentanoic acid
@<TRIPOS>ATOM
      1 C1          2.5551    4.1869    0.0001 C.3       1 <0>        -0.1140
      2 C2          1.1197    3.6573    0.0110 C.3       1 <0>        -0.1493
      3 C3          1.1401    2.1505    0.0027 C.2       1 <0>         0.5132
      4 O1          2.1985    1.5584   -0.0106 O.2       1 <0>        -0.4977
      5 N1         -0.0178    1.4608    0.0101 N.am      1 <0>        -0.7103
      6 C4          0.0021   -0.0041    0.0020 C.3       1 <0>         0.1469
      7 H1          0.8543   -0.3591    0.5815 H         1 <0>         0.1277
      8 C5          0.1210   -0.5046   -1.4389 C.3       1 <0>        -0.0925
      9 S1          1.7226    0.0009   -2.1244 S.3       1 <0>        -0.1791
     10 C6         -1.2729   -0.5271    0.6119 C.2       1 <0>         0.5090
     11 O2         -2.1152    0.2475    1.0137 O.2       1 <0>        -0.5471
     12 N2         -1.4771   -1.8556    0.7108 N.am      1 <0>        -0.6929
     13 C7         -2.7165   -2.3641    1.3036 C.3       1 <0>         0.0748
     14 C8         -2.6961   -3.8709    1.2954 C.2       1 <0>         0.4582
     15 O3         -1.7439   -4.4597    0.8409 O.co2     1 <0>        -0.6336
     16 C9          2.5343    5.7167    0.0086 C.3       1 <0>        -0.0163
     17 H2          1.9481    6.0675    0.8579 H         1 <0>         0.1394
     18 C10         3.9439    6.2376    0.1217 C.2       1 <0>         0.4591
     19 O4          4.5263    6.6237   -0.8640 O.co2     1 <0>        -0.6187
     20 H3          3.0822    3.8258    0.8832 H         1 <0>         0.1204
     21 H4          3.0652    3.8354   -0.8966 H         1 <0>         0.0945
     22 H5          0.5925    4.0184   -0.8721 H         1 <0>         0.0834
     23 H6          0.6095    4.0088    0.9078 H         1 <0>         0.1069
     24 H7         -0.8643    1.9343    0.0167 H         1 <0>         0.4096
     25 H8          0.0465   -1.5919   -1.4531 H         1 <0>         0.1029
     26 H9         -0.6823   -0.0775   -2.0393 H         1 <0>         0.0901
     27 H10         1.7101   -0.4899   -3.3766 H         1 <0>         0.0461
     28 H11        -0.8034   -2.4751    0.3894 H         1 <0>         0.4108
     29 H12        -2.8013   -2.0075    2.3302 H         1 <0>         0.0776
     30 H13        -3.5688   -2.0091    0.7242 H         1 <0>         0.0766
     31 H14         1.8463    7.2106   -1.2298 H         1 <0>         0.4319
     32 H15         2.4561    5.8931   -2.0411 H         1 <0>         0.4353
     33 O5         -3.7357   -4.5590    1.7929 O.co2     1 <0>        -0.7529
     34 O6          4.5524    6.2727    1.3176 O.co2     1 <0>        -0.7019
     35 N3          1.9078    6.1938   -1.2369 N.4       1 <0>        -0.6274
     36 H16         0.9619    5.8014   -1.3108 H         1 <0>         0.4193
@<TRIPOS>BOND
     1    1    2 1
     2    1   16 1
     3    1   20 1
     4    1   21 1
     5    2    3 1
     6    2   22 1
     7    2   23 1
     8    3    4 2
     9    3    5 am
    10    5    6 1
    11    5   24 1
    12    6    7 1
    13    6    8 1
    14    6   10 1
    15    8    9 1
    16    8   25 1
    17    8   26 1
    18    9   27 1
    19   10   11 2
    20   10   12 am
    21   12   13 1
    22   12   28 1
    23   13   14 1
    24   13   29 1
    25   13   30 1
    26   14   15 2
    27   14   33 1
    28   16   17 1
    29   16   18 1
    30   16   35 1
    31   18   19 2
    32   18   34 1
    33   31   35 1
    34   32   35 1
    35   35   36 1
