@<TRIPOS>MOLECULE
ZINC28572121
   42    46     0     0     0
SMALL
USER_CHARGES
9-cyclopropyl-6-fluoro-7-piperazin-1-yl-isothiazolo[5,4-b]quinoline-3,4-dione
@<TRIPOS>ATOM
      1 C1          5.3148    2.1051   -2.4711 C.ar      1 <0>        -0.0300
      2 C2          4.0726    1.4618   -2.4537 C.ar      1 <0>        -0.1727
      3 C3          3.3138    1.4309   -1.2714 C.ar      1 <0>         0.2392
      4 C4          3.8073    2.0419   -0.1260 C.ar      1 <0>        -0.1676
      5 C5          5.0395    2.6755   -0.1595 C.ar      1 <0>         0.1167
      6 C6          5.7886    2.7025   -1.3384 C.ar      1 <0>        -0.0043
      7 F1          6.9883    3.3234   -1.3580 F         1 <0>        -0.1417
      8 N1          5.5342    3.2887    0.9892 N.pl3     1 <0>        -0.4832
      9 C7          6.8861    3.8184    0.7629 C.3       1 <0>         0.0074
     10 C8          7.4237    4.4117    2.0673 C.3       1 <0>        -0.0044
     11 N2          6.5168    5.4712    2.5309 N.4       1 <0>        -0.5378
     12 C9          5.1649    4.9414    2.7572 C.3       1 <0>         0.0020
     13 C10         4.6273    4.3481    1.4528 C.3       1 <0>         0.0190
     14 N3          2.0857    0.7962   -1.2531 N.pl3     1 <0>        -0.4622
     15 C11         1.5723    0.1855   -2.3465 C.2       1 <0>         0.0908
     16 C12         2.2293    0.1505   -3.5866 C.2       1 <0>        -0.3580
     17 C13         3.5474    0.8139   -3.6650 C.2       1 <0>         0.4413
     18 O1          4.1826    0.8235   -4.7056 O.2       1 <0>        -0.4677
     19 C14         1.5198   -0.5310   -4.5940 C.2       1 <0>         0.4760
     20 O2          1.9795   -0.6378   -5.7187 O.3       1 <0>        -0.5973
     21 N4          0.3236   -1.0604   -4.2863 N.2       1 <0>        -0.6148
     22 S1          0.1011   -0.6681   -2.6398 S.3       1 <0>         0.1443
     23 C15         1.3165    0.7789   -0.0063 C.3       1 <0>        -0.0437
     24 C16         0.8178    2.1203    0.5347 C.3       1 <0>        -0.1202
     25 C17        -0.1699    1.1318   -0.0883 C.3       1 <0>        -0.1246
     26 H1          5.8985    2.1288   -3.3795 H         1 <0>         0.1537
     27 H2          3.2321    2.0243    0.7879 H         1 <0>         0.1473
     28 H3          7.5473    3.0053    0.4289 H         1 <0>         0.1386
     29 H4          6.8488    4.6011   -0.0091 H         1 <0>         0.0877
     30 H5          7.4872    3.6221    2.8305 H         1 <0>         0.1344
     31 H6          8.4242    4.8344    1.8930 H         1 <0>         0.1391
     32 H7          6.8951    5.8906    3.4748 H         1 <0>         0.4542
     33 H8          5.2023    4.1586    3.5291 H         1 <0>         0.1370
     34 H9          4.5036    5.7545    3.0913 H         1 <0>         0.1402
     35 H10         4.5640    5.1369    0.6887 H         1 <0>         0.0705
     36 H11         3.6270    3.9246    1.6263 H         1 <0>         0.1275
     37 H12         1.9129   -0.0607    0.3801 H         1 <0>         0.1476
     38 H13         1.0491    2.1917    1.6077 H         1 <0>         0.1116
     39 H14         1.3158    2.9406   -0.0031 H         1 <0>         0.1027
     40 H15        -0.4885    1.1349   -1.1412 H         1 <0>         0.1263
     41 H16        -0.7552    0.3861    0.4697 H         1 <0>         0.1272
     42 H17         6.4630    6.2658    1.7722 H         1 <0>         0.4481
@<TRIPOS>BOND
     1    1    6 ar
     2    1    2 ar
     3    1   26 1
     4    2   17 1
     5    2    3 ar
     6    3    4 ar
     7    3   14 1
     8    4    5 ar
     9    4   27 1
    10    5    6 ar
    11    5    8 1
    12    6    7 1
    13    8   13 1
    14    8    9 1
    15    9   10 1
    16    9   28 1
    17    9   29 1
    18   10   11 1
    19   10   30 1
    20   10   31 1
    21   11   12 1
    22   11   32 1
    23   11   42 1
    24   12   13 1
    25   12   33 1
    26   12   34 1
    27   13   35 1
    28   13   36 1
    29   14   15 1
    30   14   23 1
    31   15   22 1
    32   15   16 2
    33   16   17 1
    34   16   19 1
    35   17   18 2
    36   19   20 1
    37   19   21 2
    38   21   22 1
    39   23   25 1
    40   23   24 1
    41   23   37 1
    42   24   25 1
    43   24   38 1
    44   24   39 1
    45   25   40 1
    46   25   41 1
@<TRIPOS>MOLECULE
ZINC28572121
   42    46     0     0     0
SMALL
USER_CHARGES

@<TRIPOS>ATOM
      1 C1         -0.0214    1.3896   -0.0965 C.ar      1 <0>        -0.0678
      2 C2          1.1861    2.0964   -0.0507 C.ar      1 <0>        -0.1471
      3 C3          2.4070    1.4025   -0.0673 C.ar      1 <0>         0.1917
      4 C4          2.4012    0.0134   -0.1276 C.ar      1 <0>        -0.1379
      5 C5          1.1977   -0.6714   -0.1719 C.ar      1 <0>         0.2022
      6 C6         -0.0127    0.0260   -0.1559 C.ar      1 <0>         0.0708
      7 F1         -1.1802   -0.6526   -0.1996 F         1 <0>        -0.1270
      8 N1          1.1946   -2.0630   -0.2322 N.pl3     1 <0>        -0.6788
      9 C7          1.2143   -2.7626   -1.5258 C.3       1 <0>         0.1483
     10 C8          0.0791   -3.7918   -1.5399 C.3       1 <0>         0.0394
     11 N2          0.1960   -4.6613   -0.3617 N.3       1 <0>        -0.6876
     12 C9          0.0378   -3.8967    0.8826 C.3       1 <0>         0.0394
     13 C10         1.1775   -2.8718    0.9962 C.3       1 <0>         0.1485
     14 N3          3.6251    2.0749   -0.0250 N.pl3     1 <0>        -0.4280
     15 C11         3.6311    3.4019    0.2552 C.2       1 <0>         0.1225
     16 C12         2.4725    4.2093    0.2942 C.2       1 <0>        -0.3891
     17 C13         1.1663    3.5746    0.0155 C.2       1 <0>         0.4697
     18 O1          0.1463    4.2225   -0.1476 O.2       1 <0>        -0.4430
     19 C14         2.7336    5.5453    0.6034 C.2       1 <0>         0.5460
     20 O2          1.8411    6.3734    0.6756 O.2       1 <0>        -0.5015
     21 N4          4.0243    5.8724    0.8185 N.am      1 <0>        -0.7578
     22 S1          4.8734    4.4436    0.6150 S.3       1 <0>         0.4495
     23 C15         4.8792    1.3613   -0.2783 C.3       1 <0>         0.0425
     24 C16         6.1194    2.2013   -0.5902 C.3       1 <0>        -0.1824
     25 C17         5.9923    1.4978    0.7625 C.3       1 <0>        -0.1791
     26 H1         -0.9602    1.9233   -0.0804 H         1 <0>         0.1573
     27 H2          3.3338   -0.5311   -0.1403 H         1 <0>         0.1501
     28 H3          1.0677   -2.0446   -2.3327 H         1 <0>         0.0726
     29 H4          2.1705   -3.2703   -1.6529 H         1 <0>         0.0644
     30 H5         -0.8805   -3.2753   -1.5171 H         1 <0>         0.0367
     31 H6          0.1464   -4.3951   -2.4453 H         1 <0>         0.0827
     32 H7         -0.4664   -5.4212   -0.4059 H         1 <0>         0.3453
     33 H8         -0.9212   -3.3787    0.8718 H         1 <0>         0.0370
     34 H9          0.0751   -4.5760    1.7342 H         1 <0>         0.0824
     35 H10         2.1301   -3.3898    1.1068 H         1 <0>         0.0649
     36 H11         1.0065   -2.2260    1.8574 H         1 <0>         0.0725
     37 H12         4.7799    0.4020   -0.7861 H         1 <0>         0.1618
     38 H13         6.8363    1.7947   -1.3035 H         1 <0>         0.1327
     39 H14         6.0022    3.2848   -0.6070 H         1 <0>         0.1105
     40 H15         5.7915    2.1186    1.6357 H         1 <0>         0.1097
     41 H16         6.6256    0.6284    0.9391 H         1 <0>         0.1255
     42 H17         4.3828    6.7456    1.0418 H         1 <0>         0.4504
@<TRIPOS>BOND
     1    1    6 ar
     2    1    2 ar
     3    1   26 1
     4    2   17 1
     5    2    3 ar
     6    3    4 ar
     7    3   14 1
     8    4    5 ar
     9    4   27 1
    10    5    6 ar
    11    5    8 1
    12    6    7 1
    13    8   13 1
    14    8    9 1
    15    9   10 1
    16    9   28 1
    17    9   29 1
    18   10   11 1
    19   10   30 1
    20   10   31 1
    21   11   12 1
    22   11   32 1
    23   12   13 1
    24   12   33 1
    25   12   34 1
    26   13   35 1
    27   13   36 1
    28   14   15 1
    29   14   23 1
    30   15   22 1
    31   15   16 2
    32   16   17 1
    33   16   19 1
    34   17   18 2
    35   19   20 2
    36   19   21 am
    37   21   22 1
    38   21   42 1
    39   23   25 1
    40   23   24 1
    41   23   37 1
    42   24   25 1
    43   24   38 1
    44   24   39 1
    45   25   40 1
    46   25   41 1
@<TRIPOS>MOLECULE
ZINC03607120
   49    52     0     0     0
SMALL
USER_CHARGES

@<TRIPOS>ATOM
      1 C1          0.0703    1.3683    0.2046 C.3       1 <0>        -0.1796
      2 C2          0.0786   -0.1604    0.1419 C.3       1 <0>         0.0099
      3 H1          0.5768   -0.4839   -0.7721 H         1 <0>         0.1447
      4 C3         -1.3629   -0.6799    0.1494 C.3       1 <0>         0.1287
      5 N1         -1.3287   -2.1489    0.2204 N.pl3     1 <0>        -0.6633
      6 C4         -0.4982   -2.7735    1.2617 C.3       1 <0>         0.1158
      7 C5          0.9024   -2.1551    1.2017 C.3       1 <0>        -0.0286
      8 N2          0.7965   -0.6943    1.3061 N.4       1 <0>        -0.4998
      9 C6         -2.0641   -2.9282   -0.6747 C.ar      1 <0>         0.1506
     10 C7         -3.3735   -3.2950   -0.3599 C.ar      1 <0>         0.0557
     11 C8         -4.1045   -4.0580   -1.2269 C.ar      1 <0>        -0.0533
     12 C9         -3.5393   -4.4733   -2.4353 C.ar      1 <0>        -0.1534
     13 C10        -2.2212   -4.1102   -2.7648 C.ar      1 <0>         0.1952
     14 C11        -1.4891   -3.3276   -1.8740 C.ar      1 <0>         0.0537
     15 O1         -0.2137   -2.9609   -2.1757 O.3       1 <0>        -0.3146
     16 C12         0.8307   -3.8424   -1.7584 C.3       1 <0>         0.0065
     17 N3         -1.6627   -4.5214   -3.9586 N.pl3     1 <0>        -0.4586
     18 C13        -2.3247   -5.2694   -4.8484 C.2       1 <0>         0.1374
     19 C14        -3.6248   -5.6876   -4.6354 C.2       1 <0>        -0.2779
     20 C15        -4.3034   -5.2962   -3.3880 C.2       1 <0>         0.4114
     21 O2         -5.4490   -5.6398   -3.1537 O.2       1 <0>        -0.4305
     22 C16        -4.3174   -6.5064   -5.6352 C.2       1 <0>         0.5340
     23 O3         -3.7442   -6.8252   -6.6689 O.co2     1 <0>        -0.6962
     24 O4         -5.4689   -6.8713   -5.4364 O.co2     1 <0>        -0.6575
     25 C17        -0.2869   -4.1212   -4.2641 C.3       1 <0>         0.0291
     26 C18         0.2950   -4.5620   -5.6087 C.3       1 <0>        -0.1804
     27 C19         0.7744   -5.2220   -4.3143 C.3       1 <0>        -0.1927
     28 F1         -3.9212   -2.8942    0.8082 F         1 <0>        -0.1324
     29 H2          1.0957    1.7377    0.1996 H         1 <0>         0.0828
     30 H3         -0.4630    1.7645   -0.6595 H         1 <0>         0.1081
     31 H4         -0.4279    1.6917    1.1186 H         1 <0>         0.0816
     32 H5         -1.8906   -0.2834    1.0168 H         1 <0>         0.0808
     33 H6         -1.8690   -0.3691   -0.7646 H         1 <0>         0.1173
     34 H7         -0.9387   -2.5884    2.2414 H         1 <0>         0.0842
     35 H8         -0.4328   -3.8468    1.0831 H         1 <0>         0.1147
     36 H9          1.5035   -2.5359    2.0274 H         1 <0>         0.1401
     37 H10         1.3757   -2.4184    0.2557 H         1 <0>         0.1327
     38 H11         1.7216   -0.2930    1.3424 H         1 <0>         0.4267
     39 H12        -5.1170   -4.3397   -0.9782 H         1 <0>         0.1587
     40 H13         0.6892   -4.8186   -2.2222 H         1 <0>         0.0714
     41 H14         1.7944   -3.4327   -2.0609 H         1 <0>         0.0963
     42 H15         0.8052   -3.9483   -0.6738 H         1 <0>         0.0397
     43 H16        -1.8271   -5.5556   -5.7632 H         1 <0>         0.1757
     44 H17         0.0158   -3.1473   -3.8793 H         1 <0>         0.1743
     45 H18        -0.3457   -5.1497   -6.2660 H         1 <0>         0.1146
     46 H19         0.9807   -3.8780   -6.1088 H         1 <0>         0.1127
     47 H20         1.7755   -4.9723   -3.9629 H         1 <0>         0.1060
     48 H21         0.4491   -6.2440   -4.1201 H         1 <0>         0.1034
     49 H22         0.2951   -0.4542    2.1481 H         1 <0>         0.4245
@<TRIPOS>BOND
     1    1    2 1
     2    1   29 1
     3    1   30 1
     4    1   31 1
     5    2    3 1
     6    2    8 1
     7    2    4 1
     8    4    5 1
     9    4   32 1
    10    4   33 1
    11    5    6 1
    12    5    9 1
    13    6    7 1
    14    6   34 1
    15    6   35 1
    16    7    8 1
    17    7   36 1
    18    7   37 1
    19    8   38 1
    20    8   49 1
    21    9   14 ar
    22    9   10 ar
    23   10   11 ar
    24   10   28 1
    25   11   12 ar
    26   11   39 1
    27   12   20 1
    28   12   13 ar
    29   13   14 ar
    30   13   17 1
    31   14   15 1
    32   15   16 1
    33   16   40 1
    34   16   41 1
    35   16   42 1
    36   17   18 1
    37   17   25 1
    38   18   19 2
    39   18   43 1
    40   19   20 1
    41   19   22 1
    42   20   21 2
    43   22   23 2
    44   22   24 1
    45   25   27 1
    46   25   26 1
    47   25   44 1
    48   26   27 1
    49   26   45 1
    50   26   46 1
    51   27   47 1
    52   27   48 1
@<TRIPOS>MOLECULE
ZINC03607120
   50    53     0     0     0
SMALL
USER_CHARGES

@<TRIPOS>ATOM
      1 C1         -1.9629    1.9071    1.0651 C.3       1 <0>        -0.1825
      2 C2         -1.3410    0.6063    0.5532 C.3       1 <0>         0.0155
      3 H1         -1.0256    0.7369   -0.4819 H         1 <0>         0.1457
      4 C3         -2.3756   -0.5210    0.6337 C.3       1 <0>         0.0593
      5 N1         -1.7192   -1.7839    0.2616 N.pl3     1 <0>        -0.6066
      6 C4         -0.4542   -2.1302    0.9277 C.3       1 <0>         0.0712
      7 C5          0.4898   -0.9269    0.8333 C.3       1 <0>        -0.0219
      8 N2         -0.1773    0.2615    1.3798 N.4       1 <0>        -0.5060
      9 C6         -2.2567   -2.5930   -0.6546 C.2       1 <0>         0.2448
     10 C7         -3.0907   -2.0586   -1.6661 C.2       1 <0>         0.0267
     11 C8         -3.6408   -2.8722   -2.6012 C.2       1 <0>        -0.0085
     12 C9         -3.3846   -4.2586   -2.5705 C.2       1 <0>        -0.1429
     13 C10        -2.5506   -4.8072   -1.5623 C.2       1 <0>         0.2277
     14 C11        -1.9877   -3.9744   -0.6154 C.2       1 <0>        -0.0045
     15 O1         -1.1805   -4.4876    0.3549 O.3       1 <0>        -0.3077
     16 C12        -1.6957   -4.5007    1.6877 C.3       1 <0>         0.0036
     17 N3         -2.3028   -6.1668   -1.5378 N.pl3     1 <0>        -0.3990
     18 C13        -2.8385   -6.9837   -2.4549 C.2       1 <0>         0.2488
     19 C14        -3.6594   -6.4987   -3.4599 C.2       1 <0>        -0.2886
     20 C15        -3.9469   -5.1135   -3.5318 C.2       1 <0>         0.3591
     21 O2         -4.7454   -4.6254   -4.5048 O.3       1 <0>        -0.4269
     22 C16        -4.2309   -7.4202   -4.4506 C.2       1 <0>         0.5375
     23 O3         -4.0831   -8.6280   -4.3197 O.co2     1 <0>        -0.6304
     24 O4         -4.8549   -6.9802   -5.4071 O.co2     1 <0>        -0.6499
     25 C17        -1.4403   -6.7236   -0.4926 C.3       1 <0>         0.0037
     26 C18        -1.1776   -8.2306   -0.5219 C.3       1 <0>        -0.1701
     27 C19        -2.0918   -7.6341    0.5502 C.3       1 <0>        -0.1695
     28 F1         -3.3402   -0.7312   -1.6996 F         1 <0>        -0.1155
     29 H2         -1.2267    2.7089    1.0080 H         1 <0>         0.0909
     30 H3         -2.8269    2.1628    0.4516 H         1 <0>         0.1125
     31 H4         -2.2782    1.7763    2.1003 H         1 <0>         0.0855
     32 H5         -2.7596   -0.5938    1.6513 H         1 <0>         0.1016
     33 H6         -3.1944   -0.3166   -0.0561 H         1 <0>         0.1596
     34 H7         -0.6441   -2.3655    1.9749 H         1 <0>         0.1014
     35 H8         -0.0026   -2.9897    0.4323 H         1 <0>         0.1553
     36 H9          1.3957   -1.1300    1.4044 H         1 <0>         0.1516
     37 H10         0.7499   -0.7500   -0.2103 H         1 <0>         0.1375
     38 H11         0.4698    1.0357    1.3869 H         1 <0>         0.4352
     39 H12        -4.2761   -2.4580   -3.3701 H         1 <0>         0.1787
     40 H13        -0.9190   -4.8376    2.3742 H         1 <0>         0.1111
     41 H14        -2.0139   -3.4955    1.9641 H         1 <0>         0.0542
     42 H15        -2.5473   -5.1789    1.7414 H         1 <0>         0.0640
     43 H16        -2.6258   -8.0416   -2.4099 H         1 <0>         0.2115
     44 H17        -0.6284   -6.0772   -0.1594 H         1 <0>         0.1887
     45 H18        -1.6465   -8.8078   -1.3188 H         1 <0>         0.1175
     46 H19        -0.1926   -8.5759   -0.2081 H         1 <0>         0.1294
     47 H20        -1.7081   -7.5871    1.5694 H         1 <0>         0.1215
     48 H21        -3.1621   -7.8189    0.4586 H         1 <0>         0.1095
     49 H22        -0.4808    0.0713    2.3231 H         1 <0>         0.4268
     50 H23        -5.1481   -5.3059   -5.0615 H         1 <0>         0.4428
@<TRIPOS>BOND
     1    1    2 1
     2    1   29 1
     3    1   30 1
     4    1   31 1
     5    2    3 1
     6    2    8 1
     7    2    4 1
     8    4    5 1
     9    4   32 1
    10    4   33 1
    11    5    6 1
    12    5    9 2
    13    6    7 1
    14    6   34 1
    15    6   35 1
    16    7    8 1
    17    7   36 1
    18    7   37 1
    19    8   38 1
    20    8   49 1
    21    9   14 1
    22    9   10 1
    23   10   11 2
    24   10   28 1
    25   11   12 1
    26   11   39 1
    27   12   20 2
    28   12   13 1
    29   13   14 2
    30   13   17 1
    31   14   15 1
    32   15   16 1
    33   16   40 1
    34   16   41 1
    35   16   42 1
    36   17   18 1
    37   17   25 1
    38   18   19 2
    39   18   43 1
    40   19   20 1
    41   19   22 1
    42   20   21 1
    43   21   50 1
    44   22   23 2
    45   22   24 1
    46   25   27 1
    47   25   26 1
    48   25   44 1
    49   26   27 1
    50   26   45 1
    51   26   46 1
    52   27   47 1
    53   27   48 1
@<TRIPOS>MOLECULE
ZINC38197764
   50    53     0     0     0
SMALL
USER_CHARGES

@<TRIPOS>ATOM
      1 C1          0.0386    1.3298    0.2361 C.3       1 <0>        -0.1813
      2 C2          0.0623   -0.1987    0.1732 C.3       1 <0>         0.0090
      3 H1         -0.9592   -0.5788    0.1808 H         1 <0>         0.1425
      4 C3          0.7644   -0.6463   -1.1131 C.3       1 <0>         0.1280
      5 N1          0.8914   -2.1117   -1.0894 N.pl3     1 <0>        -0.6678
      6 C4          1.4624   -2.7387    0.1127 C.3       1 <0>         0.1147
      7 C5          0.7273   -2.1923    1.3411 C.3       1 <0>        -0.0228
      8 N2          0.7893   -0.7253    1.3352 N.4       1 <0>        -0.5012
      9 C6          0.4813   -2.8856   -2.1768 C.ar      1 <0>         0.1560
     10 C7         -0.8326   -3.3530   -2.2379 C.ar      1 <0>         0.0795
     11 C8         -1.2474   -4.1115   -3.2965 C.ar      1 <0>        -0.0600
     12 C9         -0.3526   -4.4214   -4.3238 C.ar      1 <0>        -0.1373
     13 C10         0.9740   -3.9568   -4.2744 C.ar      1 <0>         0.1716
     14 C11         1.3819   -3.1796   -3.1919 C.ar      1 <0>         0.0847
     15 O1          2.6594   -2.7149   -3.1275 O.3       1 <0>        -0.3129
     16 C12         3.6212   -3.5488   -2.4781 C.3       1 <0>         0.0148
     17 N3          1.8577   -4.2637   -5.2894 N.pl3     1 <0>        -0.4460
     18 C13         1.5124   -5.0017   -6.3519 C.2       1 <0>         0.2455
     19 C14         0.2399   -5.5124   -6.5097 C.2       1 <0>        -0.3202
     20 C15        -0.7715   -5.2369   -5.4760 C.2       1 <0>         0.4290
     21 O2         -1.9087   -5.6654   -5.5705 O.2       1 <0>        -0.4348
     22 C16        -0.1001   -6.3176   -7.6908 C.2       1 <0>         0.5479
     23 O3          0.7426   -6.5388   -8.5387 O.2       1 <0>        -0.5283
     24 O4         -1.3464   -6.8112   -7.8341 O.3       1 <0>        -0.4810
     25 C17         3.2307   -3.7606   -5.2006 C.3       1 <0>         0.0132
     26 C18         4.1789   -4.0873   -6.3560 C.3       1 <0>        -0.1762
     27 C19         4.3482   -4.7874   -5.0062 C.3       1 <0>        -0.1836
     28 F1         -1.6987   -3.0544   -1.2451 F         1 <0>        -0.1275
     29 H2          1.0602    1.7097    0.2285 H         1 <0>         0.0835
     30 H3         -0.5008    1.7206   -0.6268 H         1 <0>         0.1085
     31 H4         -0.4606    1.6480    1.1513 H         1 <0>         0.0862
     32 H5          0.1731   -0.3439   -1.9774 H         1 <0>         0.1163
     33 H6          1.7545   -0.1937   -1.1665 H         1 <0>         0.0871
     34 H7          1.3325   -3.8196    0.0589 H         1 <0>         0.1157
     35 H8          2.5230   -2.4973    0.1831 H         1 <0>         0.0847
     36 H9         -0.3143   -2.5122    1.3135 H         1 <0>         0.1355
     37 H10         1.2004   -2.5724    2.2466 H         1 <0>         0.1429
     38 H11         1.7532   -0.4309    1.2891 H         1 <0>         0.4251
     39 H12        -2.2650   -4.4709   -3.3387 H         1 <0>         0.1659
     40 H13         4.5960   -3.0615   -2.4963 H         1 <0>         0.1052
     41 H14         3.3180   -3.7163   -1.4446 H         1 <0>         0.0472
     42 H15         3.6831   -4.5048   -2.9981 H         1 <0>         0.0661
     43 H16         2.2540   -5.2037   -7.1106 H         1 <0>         0.1874
     44 H17         3.3461   -2.7927   -4.7128 H         1 <0>         0.1869
     45 H18         3.7812   -4.6767   -7.1822 H         1 <0>         0.1104
     46 H19         4.9183   -3.3343   -6.6287 H         1 <0>         0.1234
     47 H20         5.1989   -4.4949   -4.3907 H         1 <0>         0.1177
     48 H21         4.0618   -5.8373   -4.9443 H         1 <0>         0.1065
     49 H22         0.3714   -0.3688    2.1816 H         1 <0>         0.4307
     50 H23        -1.4745   -7.3275   -8.6416 H         1 <0>         0.4114
@<TRIPOS>BOND
     1    1    2 1
     2    1   29 1
     3    1   30 1
     4    1   31 1
     5    2    3 1
     6    2    8 1
     7    2    4 1
     8    4    5 1
     9    4   32 1
    10    4   33 1
    11    5    6 1
    12    5    9 1
    13    6    7 1
    14    6   34 1
    15    6   35 1
    16    7    8 1
    17    7   36 1
    18    7   37 1
    19    8   38 1
    20    8   49 1
    21    9   14 ar
    22    9   10 ar
    23   10   11 ar
    24   10   28 1
    25   11   12 ar
    26   11   39 1
    27   12   20 1
    28   12   13 ar
    29   13   14 ar
    30   13   17 1
    31   14   15 1
    32   15   16 1
    33   16   40 1
    34   16   41 1
    35   16   42 1
    36   17   18 1
    37   17   25 1
    38   18   19 2
    39   18   43 1
    40   19   20 1
    41   19   22 1
    42   20   21 2
    43   22   23 2
    44   22   24 1
    45   24   50 1
    46   25   27 1
    47   25   26 1
    48   25   44 1
    49   26   27 1
    50   26   45 1
    51   26   46 1
    52   27   47 1
    53   27   48 1
@<TRIPOS>MOLECULE
ZINC38197764
   50    53     0     0     0
SMALL
USER_CHARGES

@<TRIPOS>ATOM
      1 H1         -1.3342    1.3900   -0.0066 H         1 <0>         0.1387
      2 C1         -0.9091    2.3514    0.2818 C.3       1 <0>        -0.0186
      3 C2         -1.0282    2.5282    1.7991 C.3       1 <0>         0.0536
      4 N1         -0.1865    1.5149    2.4541 N.pl3     1 <0>        -0.6068
      5 C3          1.2093    1.3804    2.0094 C.3       1 <0>         0.0771
      6 C4          1.2227    1.2578    0.4821 C.3       1 <0>         0.0116
      7 H2          0.7332    0.3295    0.1877 H         1 <0>         0.1446
      8 N2          0.5065    2.3968   -0.1057 N.4       1 <0>        -0.5059
      9 C5          2.6692    1.2521   -0.0166 C.3       1 <0>        -0.1818
     10 H3          1.7764    2.2610    2.3111 H         1 <0>         0.1013
     11 H4          1.6504    0.4875    2.4524 H         1 <0>         0.1545
     12 C6         -0.6754    0.7397    3.4252 C.2       1 <0>         0.2448
     13 C7         -2.0608    0.4514    3.4680 C.2       1 <0>         0.0271
     14 C8         -2.5668   -0.3354    4.4500 C.2       1 <0>        -0.0086
     15 C9         -1.7132   -0.8713    5.4363 C.2       1 <0>        -0.1428
     16 C10        -0.3229   -0.5903    5.4050 C.2       1 <0>         0.2276
     17 C11         0.1891    0.2065    4.4001 C.2       1 <0>        -0.0048
     18 O1          1.5233    0.4796    4.3553 O.3       1 <0>        -0.3077
     19 C12         1.9224    1.8169    4.6625 C.3       1 <0>         0.0036
     20 N3          0.5087   -1.1190    6.3744 N.pl3     1 <0>        -0.3990
     21 C13         0.0241   -1.8983    7.3506 C.2       1 <0>         0.2488
     22 C14        -1.3252   -2.2031    7.4264 C.2       1 <0>        -0.2886
     23 C15        -2.2223   -1.6874    6.4590 C.2       1 <0>         0.3592
     24 O2         -3.5400   -1.9748    6.5193 O.3       1 <0>        -0.4268
     25 C16        -1.8251   -3.0608    8.5088 C.2       1 <0>         0.5375
     26 O3         -1.0747   -3.4069    9.4116 O.co2     1 <0>        -0.6305
     27 O4         -2.9922   -3.4294    8.5081 O.co2     1 <0>        -0.6499
     28 C17         1.9429   -0.8228    6.3333 C.3       1 <0>         0.0038
     29 C18         2.8250   -1.4503    7.4146 C.3       1 <0>        -0.1701
     30 C19         2.5167    0.0478    7.4529 C.3       1 <0>        -0.1695
     31 F1         -2.8832    0.9630    2.5261 F         1 <0>        -0.1151
     32 H5         -1.4496    3.1533   -0.2212 H         1 <0>         0.1521
     33 H6         -0.6870    3.5247    2.0797 H         1 <0>         0.1018
     34 H7         -2.0663    2.3941    2.1032 H         1 <0>         0.1604
     35 H8          0.5801    2.3562   -1.1112 H         1 <0>         0.4352
     36 H9          3.2008    0.4069    0.4204 H         1 <0>         0.1117
     37 H10         2.6786    1.1649   -1.1030 H         1 <0>         0.0909
     38 H11         3.1585    2.1806    0.2777 H         1 <0>         0.0854
     39 H12        -3.6246   -0.5513    4.4768 H         1 <0>         0.1788
     40 H13         1.3801    2.5138    4.0235 H         1 <0>         0.0541
     41 H14         1.6982    2.0320    5.7073 H         1 <0>         0.0642
     42 H15         2.9934    1.9248    4.4911 H         1 <0>         0.1109
     43 H16         0.6991   -2.2972    8.0933 H         1 <0>         0.2115
     44 H17         2.3711   -0.7089    5.3375 H         1 <0>         0.1886
     45 H18         2.3382   -2.0834    8.1564 H         1 <0>         0.1175
     46 H19         3.8338   -1.7495    7.1301 H         1 <0>         0.1294
     47 H20         3.3228    0.7343    7.1937 H         1 <0>         0.1215
     48 H21         1.8272    0.4003    8.2200 H         1 <0>         0.1095
     49 H22         0.9169    3.2574    0.2246 H         1 <0>         0.4268
     50 H23        -3.7986   -2.4717    7.3076 H         1 <0>         0.4428
@<TRIPOS>BOND
     1    1    2 1
     2    2    8 1
     3    2    3 1
     4    2   32 1
     5    3    4 1
     6    3   33 1
     7    3   34 1
     8    4    5 1
     9    4   12 2
    10    5    6 1
    11    5   10 1
    12    5   11 1
    13    6    7 1
    14    6    8 1
    15    6    9 1
    16    8   35 1
    17    8   49 1
    18    9   36 1
    19    9   37 1
    20    9   38 1
    21   12   17 1
    22   12   13 1
    23   13   14 2
    24   13   31 1
    25   14   15 1
    26   14   39 1
    27   15   23 2
    28   15   16 1
    29   16   17 2
    30   16   20 1
    31   17   18 1
    32   18   19 1
    33   19   40 1
    34   19   41 1
    35   19   42 1
    36   20   21 1
    37   20   28 1
    38   21   22 2
    39   21   43 1
    40   22   23 1
    41   22   25 1
    42   23   24 1
    43   24   50 1
    44   25   26 2
    45   25   27 1
    46   28   30 1
    47   28   29 1
    48   28   44 1
    49   29   30 1
    50   29   45 1
    51   29   46 1
    52   30   47 1
    53   30   48 1
@<TRIPOS>MOLECULE
ZINC14879999
   79    82     0     0     0
SMALL
USER_CHARGES

@<TRIPOS>ATOM
      1 C1         -2.5990    3.4347    0.9516 C.3       1 <0>        -0.0915
      2 C2         -2.5835    1.9554    1.2386 C.ar      1 <0>        -0.1482
      3 C3         -2.5853    1.0451    0.1942 C.ar      1 <0>         0.1625
      4 C4         -2.5710   -0.3237    0.4491 C.ar      1 <0>        -0.2230
      5 C5         -2.5546   -0.7872    1.7337 C.ar      1 <0>        -0.0084
      6 C6         -2.5522    0.1177    2.7989 C.ar      1 <0>        -0.1886
      7 C7         -2.5616    1.5013    2.5489 C.ar      1 <0>         0.1904
      8 O1         -2.5544    2.3744    3.5790 O.3       1 <0>        -0.2882
      9 C8         -2.5333    1.9630    4.8565 C.2       1 <0>         0.5206
     10 O2         -2.5278    2.7945    5.7476 O.2       1 <0>        -0.5150
     11 C9         -2.5179    0.5962    5.1943 C.2       1 <0>        -0.2615
     12 C10        -2.5346   -0.3531    4.1902 C.2       1 <0>         0.3438
     13 O3         -2.5208   -1.6760    4.4796 O.3       1 <0>        -0.6528
     14 N1         -2.4964    0.2004    6.5422 N.am      1 <0>        -0.5959
     15 C11        -1.4825    0.5865    7.3417 C.2       1 <0>         0.5448
     16 O4         -0.6300    1.3445    6.9198 O.2       1 <0>        -0.5324
     17 C12        -1.4065    0.0894    8.7293 C.ar      1 <0>        -0.1159
     18 C13        -2.3819   -0.7862    9.2143 C.ar      1 <0>        -0.0758
     19 C14        -2.3075   -1.2476   10.5093 C.ar      1 <0>        -0.1499
     20 C15        -1.2640   -0.8437   11.3343 C.ar      1 <0>         0.1180
     21 C16        -0.2921    0.0269   10.8559 C.ar      1 <0>        -0.1114
     22 C17        -0.3562    0.4884    9.5598 C.ar      1 <0>        -0.0456
     23 C18         0.8369    0.4615   11.7545 C.3       1 <0>        -0.0454
     24 C19         0.3570    1.5589   12.6690 C.2       1 <0>        -0.1485
     25 C20         1.0084    2.6939   12.7281 C.2       1 <0>        -0.1393
     26 C21         2.3180    2.8500   11.9989 C.3       1 <0>        -0.1224
     27 C22         0.4482    3.8436   13.5252 C.3       1 <0>        -0.1144
     28 O5         -1.1945   -1.3004   12.6104 O.3       1 <0>        -0.4945
     29 O6         -2.6015    1.4914   -1.0881 O.3       1 <0>        -0.2919
     30 C23        -2.6025    0.5021   -2.1193 C.3       1 <0>         0.2279
     31 H1         -3.4367   -0.1824   -1.9656 H         1 <0>         0.0794
     32 C24        -2.7468    1.1850   -3.4819 C.3       1 <0>         0.0809
     33 H2         -1.9352    1.8996   -3.6190 H         1 <0>         0.0956
     34 C25        -2.6865    0.1240   -4.5850 C.3       1 <0>         0.0959
     35 H3         -2.7325    0.6089   -5.5602 H         1 <0>         0.1059
     36 C26        -1.3720   -0.6523   -4.4602 C.3       1 <0>         0.0704
     37 H4         -1.3453   -1.4459   -5.2070 H         1 <0>         0.0913
     38 C27        -1.2807   -1.2643   -3.0599 C.3       1 <0>         0.1298
     39 O7         -1.3742   -0.2273   -2.0811 O.3       1 <0>        -0.3675
     40 C28         0.0568   -1.9912   -2.9069 C.3       1 <0>        -0.1376
     41 C29        -2.4273   -2.2577   -2.8615 C.3       1 <0>        -0.1856
     42 O8         -0.2716    0.2355   -4.6673 O.3       1 <0>        -0.3530
     43 C30         0.1444    0.3374   -6.0307 C.3       1 <0>         0.0206
     44 O9         -3.7892   -0.7741   -4.4452 O.3       1 <0>        -0.3470
     45 C31        -4.9233   -0.4557   -5.0973 C.2       1 <0>         0.6492
     46 O10        -4.9753    0.5570   -5.7668 O.2       1 <0>        -0.5532
     47 N2         -6.0008   -1.2603   -5.0076 N.am      1 <0>        -0.8278
     48 O11        -4.0002    1.8686   -3.5430 O.3       1 <0>        -0.5421
     49 H5         -1.5752    3.7994    0.8681 H         1 <0>         0.0651
     50 H6         -3.1274    3.6179    0.0160 H         1 <0>         0.0642
     51 H7         -3.1056    3.9570    1.7633 H         1 <0>         0.0698
     52 H8         -2.5733   -1.0230   -0.3740 H         1 <0>         0.1307
     53 H9         -2.5440   -1.8499    1.9259 H         1 <0>         0.1380
     54 H10        -3.2113   -0.3506    6.8973 H         1 <0>         0.3888
     55 H11        -3.1931   -1.1002    8.5741 H         1 <0>         0.1317
     56 H12        -3.0611   -1.9240   10.8850 H         1 <0>         0.1313
     57 H13         0.4019    1.1614    9.1874 H         1 <0>         0.1373
     58 H14         1.1740   -0.3867   12.3504 H         1 <0>         0.0770
     59 H15         1.6634    0.8302   11.1470 H         1 <0>         0.0814
     60 H16        -0.5239    1.4097   13.2757 H         1 <0>         0.1105
     61 H17         2.1296    3.2033   10.9851 H         1 <0>         0.0687
     62 H18         2.9430    3.5716   12.5249 H         1 <0>         0.0598
     63 H19         2.8287    1.8878   11.9593 H         1 <0>         0.0655
     64 H20        -0.4975    3.5453   13.9777 H         1 <0>         0.0591
     65 H21         1.1541    4.1211   14.3081 H         1 <0>         0.0602
     66 H22         0.2828    4.6961   12.8663 H         1 <0>         0.0661
     67 H23        -0.6924   -2.1211   12.7076 H         1 <0>         0.3863
     68 H24         0.8734   -1.2831   -3.0478 H         1 <0>         0.0753
     69 H25         0.1216   -2.4269   -1.9099 H         1 <0>         0.0724
     70 H26         0.1283   -2.7816   -3.6541 H         1 <0>         0.0712
     71 H27        -2.4698   -2.9381   -3.7121 H         1 <0>         0.0728
     72 H28        -2.2598   -2.8282   -1.9479 H         1 <0>         0.0757
     73 H29        -3.3691   -1.7147   -2.7833 H         1 <0>         0.0815
     74 H30        -0.6838    0.7048   -6.6367 H         1 <0>         0.0438
     75 H31         0.9832    1.0296   -6.1038 H         1 <0>         0.0943
     76 H32         0.4510   -0.6444   -6.3914 H         1 <0>         0.0471
     77 H33        -5.9593   -2.0687   -4.4731 H         1 <0>         0.4070
     78 H34        -6.8179   -1.0309   -5.4774 H         1 <0>         0.4255
     79 H35        -4.1084    2.5530   -2.8685 H         1 <0>         0.3890
@<TRIPOS>BOND
     1    1    2 1
     2    1   49 1
     3    1   50 1
     4    1   51 1
     5    2    7 ar
     6    2    3 ar
     7    3    4 ar
     8    3   29 1
     9    4    5 ar
    10    4   52 1
    11    5    6 ar
    12    5   53 1
    13    6   12 1
    14    6    7 ar
    15    7    8 1
    16    8    9 1
    17    9   10 2
    18    9   11 1
    19   11   12 2
    20   11   14 1
    21   12   13 1
    22   14   15 am
    23   14   54 1
    24   15   16 2
    25   15   17 1
    26   17   22 ar
    27   17   18 ar
    28   18   19 ar
    29   18   55 1
    30   19   20 ar
    31   19   56 1
    32   20   21 ar
    33   20   28 1
    34   21   22 ar
    35   21   23 1
    36   22   57 1
    37   23   24 1
    38   23   58 1
    39   23   59 1
    40   24   25 2
    41   24   60 1
    42   25   26 1
    43   25   27 1
    44   26   61 1
    45   26   62 1
    46   26   63 1
    47   27   64 1
    48   27   65 1
    49   27   66 1
    50   28   67 1
    51   29   30 1
    52   30   31 1
    53   30   39 1
    54   30   32 1
    55   32   33 1
    56   32   34 1
    57   32   48 1
    58   34   35 1
    59   34   36 1
    60   34   44 1
    61   36   37 1
    62   36   38 1
    63   36   42 1
    64   38   39 1
    65   38   40 1
    66   38   41 1
    67   40   68 1
    68   40   69 1
    69   40   70 1
    70   41   71 1
    71   41   72 1
    72   41   73 1
    73   42   43 1
    74   43   74 1
    75   43   75 1
    76   43   76 1
    77   44   45 1
    78   45   46 2
    79   45   47 am
    80   47   77 1
    81   47   78 1
    82   48   79 1
@<TRIPOS>MOLECULE
ZINC22059926
   48    51     0     0     0
SMALL
USER_CHARGES

@<TRIPOS>ATOM
      1 C1         -0.5488    1.7442    1.7943 C.3       1 <0>         0.0340
      2 O1         -0.4571    0.3426    1.5316 O.3       1 <0>        -0.2087
      3 N1         -1.7106   -0.3095    1.4399 N.2       1 <0>        -0.3504
      4 C2         -1.7624   -1.5667    1.2075 C.2       1 <0>         0.1225
      5 C3         -0.5898   -2.5045    1.0124 C.3       1 <0>         0.1073
      6 N2         -1.1014   -3.8680    1.2305 N.pl3     1 <0>        -0.6106
      7 C4         -2.5123   -3.8483    0.8050 C.3       1 <0>         0.1297
      8 C5         -3.0100   -2.4183    1.0785 C.3       1 <0>        -0.0753
      9 H1         -3.5837   -2.3881    2.0048 H         1 <0>         0.1321
     10 C6         -3.8662   -1.9273   -0.0905 C.3       1 <0>         0.0048
     11 N3         -4.3867   -0.5874    0.2125 N.4       1 <0>        -0.6387
     12 C7         -0.3984   -4.9508    1.7333 C.ar      1 <0>         0.4619
     13 C8          0.9430   -4.7877    2.0944 C.ar      1 <0>        -0.0627
     14 C9          1.6390   -5.8574    2.5915 C.ar      1 <0>         0.0234
     15 C10         0.9697   -7.0810    2.7180 C.ar      1 <0>        -0.2568
     16 C11         1.6523   -8.2730    3.2445 C.2       1 <0>         0.4206
     17 O2          2.8211   -8.2365    3.5879 O.2       1 <0>        -0.4387
     18 C12         0.8616   -9.5132    3.3392 C.2       1 <0>        -0.2711
     19 C13        -0.4589   -9.4914    2.9348 C.2       1 <0>         0.1369
     20 N4         -1.0420   -8.3834    2.4604 N.pl3     1 <0>        -0.4503
     21 C14        -0.3797   -7.1832    2.3382 C.ar      1 <0>         0.4362
     22 N5         -1.0115   -6.1149    1.8666 N.ar      1 <0>        -0.5607
     23 C15        -2.4478   -8.4515    2.0539 C.3       1 <0>         0.0578
     24 C16        -3.2540   -9.6726    2.5009 C.3       1 <0>        -0.1832
     25 C17        -2.8376   -9.5253    1.0361 C.3       1 <0>        -0.1830
     26 C18         1.4656  -10.7472    3.8528 C.2       1 <0>         0.5352
     27 O3          0.7983  -11.7707    3.9265 O.co2     1 <0>        -0.6961
     28 O4          2.6371  -10.7536    4.2077 O.co2     1 <0>        -0.6572
     29 F1          1.5463   -3.5871    1.9536 F         1 <0>        -0.1349
     30 H2          0.4532    2.1698    1.8499 H         1 <0>         0.1117
     31 H3         -1.1053    2.2286    0.9919 H         1 <0>         0.0533
     32 H4         -1.0642    1.9034    2.7414 H         1 <0>         0.0577
     33 H5         -0.2002   -2.4095   -0.0011 H         1 <0>         0.1007
     34 H6          0.1931   -2.2792    1.7366 H         1 <0>         0.1243
     35 H7         -2.5881   -4.0806   -0.2572 H         1 <0>         0.0857
     36 H8         -3.0914   -4.5633    1.3893 H         1 <0>         0.1097
     37 H9         -3.2578   -1.8850   -0.9939 H         1 <0>         0.1418
     38 H10        -4.6985   -2.6140   -0.2449 H         1 <0>         0.1545
     39 H11        -4.9499   -0.6266    1.0488 H         1 <0>         0.4366
     40 H12        -3.6162    0.0483    0.3554 H         1 <0>         0.4355
     41 H13         2.6758   -5.7600    2.8778 H         1 <0>         0.1643
     42 H14        -1.0406  -10.3988    3.0031 H         1 <0>         0.1787
     43 H15        -2.9689   -7.4956    2.0016 H         1 <0>         0.1455
     44 H16        -2.7385  -10.4253    3.0974 H         1 <0>         0.1140
     45 H17        -4.3058   -9.5202    2.7429 H         1 <0>         0.1105
     46 H18        -3.6154   -9.2759    0.3143 H         1 <0>         0.1064
     47 H19        -2.0481  -10.1810    0.6689 H         1 <0>         0.1053
     48 H20        -4.9513   -0.2636   -0.5584 H         1 <0>         0.4397
@<TRIPOS>BOND
     1    1    2 1
     2    1   30 1
     3    1   31 1
     4    1   32 1
     5    2    3 1
     6    3    4 2
     7    4    8 1
     8    4    5 1
     9    5    6 1
    10    5   33 1
    11    5   34 1
    12    6    7 1
    13    6   12 1
    14    7    8 1
    15    7   35 1
    16    7   36 1
    17    8    9 1
    18    8   10 1
    19   10   11 1
    20   10   37 1
    21   10   38 1
    22   11   39 1
    23   11   40 1
    24   11   48 1
    25   12   22 ar
    26   12   13 ar
    27   13   14 ar
    28   13   29 1
    29   14   15 ar
    30   14   41 1
    31   15   21 ar
    32   15   16 1
    33   16   17 2
    34   16   18 1
    35   18   19 2
    36   18   26 1
    37   19   20 1
    38   19   42 1
    39   20   21 1
    40   20   23 1
    41   21   22 ar
    42   23   25 1
    43   23   24 1
    44   23   43 1
    45   24   25 1
    46   24   44 1
    47   24   45 1
    48   25   46 1
    49   25   47 1
    50   26   27 2
    51   26   28 1
@<TRIPOS>MOLECULE
ZINC22059930
   48    51     0     0     0
SMALL
USER_CHARGES

@<TRIPOS>ATOM
      1 C1         -0.5488    1.7442    1.7943 C.3       1 <0>         0.0340
      2 O1         -0.4571    0.3426    1.5316 O.3       1 <0>        -0.2086
      3 N1         -1.7106   -0.3095    1.4399 N.2       1 <0>        -0.3516
      4 C2         -1.7624   -1.5667    1.2075 C.2       1 <0>         0.1241
      5 C3         -0.5898   -2.5045    1.0124 C.3       1 <0>         0.1074
      6 N2         -1.1014   -3.8680    1.2305 N.pl3     1 <0>        -0.6129
      7 C4         -2.5123   -3.8483    0.8050 C.3       1 <0>         0.1281
      8 C5         -3.0100   -2.4183    1.0785 C.3       1 <0>        -0.0727
      9 H1         -3.6200   -2.0685    0.2457 H         1 <0>         0.1366
     10 C6         -3.8153   -2.3759    2.3787 C.3       1 <0>         0.0014
     11 N3         -4.3376   -1.0188    2.5872 N.4       1 <0>        -0.6382
     12 C7         -0.3984   -4.9508    1.7333 C.ar      1 <0>         0.4609
     13 C8          0.9430   -4.7877    2.0944 C.ar      1 <0>        -0.0636
     14 C9          1.6390   -5.8574    2.5915 C.ar      1 <0>         0.0234
     15 C10         0.9697   -7.0810    2.7180 C.ar      1 <0>        -0.2570
     16 C11         1.6523   -8.2730    3.2445 C.2       1 <0>         0.4201
     17 O2          2.8211   -8.2365    3.5879 O.2       1 <0>        -0.4382
     18 C12         0.8616   -9.5132    3.3392 C.2       1 <0>        -0.2704
     19 C13        -0.4589   -9.4914    2.9348 C.2       1 <0>         0.1363
     20 N4         -1.0420   -8.3834    2.4604 N.pl3     1 <0>        -0.4502
     21 C14        -0.3797   -7.1832    2.3382 C.ar      1 <0>         0.4361
     22 N5         -1.0115   -6.1149    1.8666 N.ar      1 <0>        -0.5616
     23 C15        -2.4478   -8.4515    2.0539 C.3       1 <0>         0.0578
     24 C16        -3.2540   -9.6726    2.5009 C.3       1 <0>        -0.1834
     25 C17        -2.8376   -9.5253    1.0361 C.3       1 <0>        -0.1828
     26 C18         1.4656  -10.7472    3.8528 C.2       1 <0>         0.5348
     27 O3          0.7983  -11.7707    3.9265 O.co2     1 <0>        -0.6958
     28 O4          2.6371  -10.7536    4.2077 O.co2     1 <0>        -0.6570
     29 F1          1.5463   -3.5871    1.9536 F         1 <0>        -0.1347
     30 H2          0.4532    2.1698    1.8499 H         1 <0>         0.1116
     31 H3         -1.1053    2.2286    0.9919 H         1 <0>         0.0575
     32 H4         -1.0642    1.9034    2.7414 H         1 <0>         0.0535
     33 H5         -0.2002   -2.4095   -0.0011 H         1 <0>         0.1013
     34 H6          0.1931   -2.2792    1.7366 H         1 <0>         0.1246
     35 H7         -2.5881   -4.0806   -0.2572 H         1 <0>         0.0952
     36 H8         -3.0914   -4.5633    1.3893 H         1 <0>         0.1060
     37 H9         -4.6457   -3.0791    2.3149 H         1 <0>         0.1538
     38 H10        -3.1710   -2.6495    3.2142 H         1 <0>         0.1400
     39 H11        -3.5689   -0.3680    2.6463 H         1 <0>         0.4350
     40 H12        -4.9341   -0.7656    1.8137 H         1 <0>         0.4354
     41 H13         2.6758   -5.7600    2.8778 H         1 <0>         0.1640
     42 H14        -1.0406  -10.3988    3.0031 H         1 <0>         0.1787
     43 H15        -2.9689   -7.4956    2.0016 H         1 <0>         0.1450
     44 H16        -2.7385  -10.4253    3.0974 H         1 <0>         0.1139
     45 H17        -4.3058   -9.5202    2.7429 H         1 <0>         0.1101
     46 H18        -3.6154   -9.2759    0.3143 H         1 <0>         0.1071
     47 H19        -2.0481  -10.1810    0.6689 H         1 <0>         0.1056
     48 H20        -4.8687   -0.9909    3.4446 H         1 <0>         0.4397
@<TRIPOS>BOND
     1    1    2 1
     2    1   30 1
     3    1   31 1
     4    1   32 1
     5    2    3 1
     6    3    4 2
     7    4    8 1
     8    4    5 1
     9    5    6 1
    10    5   33 1
    11    5   34 1
    12    6    7 1
    13    6   12 1
    14    7    8 1
    15    7   35 1
    16    7   36 1
    17    8    9 1
    18    8   10 1
    19   10   11 1
    20   10   37 1
    21   10   38 1
    22   11   39 1
    23   11   40 1
    24   11   48 1
    25   12   22 ar
    26   12   13 ar
    27   13   14 ar
    28   13   29 1
    29   14   15 ar
    30   14   41 1
    31   15   21 ar
    32   15   16 1
    33   16   17 2
    34   16   18 1
    35   18   19 2
    36   18   26 1
    37   19   20 1
    38   19   42 1
    39   20   21 1
    40   20   23 1
    41   21   22 ar
    42   23   25 1
    43   23   24 1
    44   23   43 1
    45   24   25 1
    46   24   44 1
    47   24   45 1
    48   25   46 1
    49   25   47 1
    50   26   27 2
    51   26   28 1
@<TRIPOS>MOLECULE
ZINC00020220
   42    45     0     0     0
SMALL
USER_CHARGES

@<TRIPOS>ATOM
      1 C1          0.0085    1.3942    0.4546 C.ar      1 <0>        -0.0524
      2 C2          1.1990    2.0892    0.2267 C.ar      1 <0>        -0.1603
      3 C3          2.4277    1.4047    0.2038 C.ar      1 <0>         0.2079
      4 C4          2.4426    0.0303    0.4107 C.ar      1 <0>        -0.1586
      5 C5          1.2543   -0.6455    0.6358 C.ar      1 <0>         0.1643
      6 C6          0.0386    0.0436    0.6558 C.ar      1 <0>         0.0441
      7 F1         -1.1120   -0.6291    0.8766 F         1 <0>        -0.1374
      8 N1          1.2713   -2.0225    0.8429 N.pl3     1 <0>        -0.6709
      9 C7          1.1586   -2.9587   -0.2863 C.3       1 <0>         0.1161
     10 C8          2.2921   -3.9844   -0.1818 C.3       1 <0>        -0.0230
     11 N2          2.2535   -4.6221    1.1403 N.4       1 <0>        -0.5025
     12 C9          2.5249   -3.6257    2.1842 C.3       1 <0>        -0.0226
     13 C10         1.4086   -2.5822    2.1964 C.3       1 <0>         0.1154
     14 N3          3.6029    2.0906   -0.0220 N.pl3     1 <0>        -0.4659
     15 C11         3.6428    3.4125   -0.2271 C.2       1 <0>         0.1387
     16 C12         2.5016    4.1915   -0.2270 C.2       1 <0>        -0.2784
     17 C13         1.1985    3.5450    0.0060 C.2       1 <0>         0.4097
     18 O1          0.1633    4.1882    0.0157 O.2       1 <0>        -0.4329
     19 C14         2.5862    5.6377   -0.4546 C.2       1 <0>         0.5339
     20 O2          3.6743    6.1644   -0.6468 O.co2     1 <0>        -0.6969
     21 O3          1.5686    6.3181   -0.4524 O.co2     1 <0>        -0.6577
     22 C15         4.8610    1.3402   -0.0375 C.3       1 <0>         0.0420
     23 C16         6.1624    2.1413    0.0391 C.3       1 <0>        -0.1780
     24 C17         5.7496    1.4764   -1.2756 C.3       1 <0>        -0.1817
     25 H1         -0.9324    1.9241    0.4759 H         1 <0>         0.1548
     26 H2          3.3780   -0.5095    0.3956 H         1 <0>         0.1378
     27 H3          0.1969   -3.4699   -0.2436 H         1 <0>         0.0817
     28 H4          1.2448   -2.4120   -1.2253 H         1 <0>         0.1185
     29 H5          2.1684   -4.7428   -0.9548 H         1 <0>         0.1396
     30 H6          3.2502   -3.4821   -0.3152 H         1 <0>         0.1324
     31 H7          1.3411   -5.0256    1.2913 H         1 <0>         0.4275
     32 H8          2.5727   -4.1198    3.1546 H         1 <0>         0.1399
     33 H9          3.4760   -3.1343    1.9792 H         1 <0>         0.1320
     34 H10         1.6600   -1.7868    2.8979 H         1 <0>         0.1184
     35 H11         0.4726   -3.0548    2.4940 H         1 <0>         0.0813
     36 H12         4.5984    3.8860   -0.3979 H         1 <0>         0.1734
     37 H13         4.8364    0.3708    0.4601 H         1 <0>         0.1363
     38 H14         6.0824    3.2266    0.1010 H         1 <0>         0.1164
     39 H15         6.9941    1.6989    0.5873 H         1 <0>         0.1122
     40 H16         6.3098    0.5966   -1.5923 H         1 <0>         0.1074
     41 H17         5.3980    2.1242   -2.0786 H         1 <0>         0.1079
     42 H18         2.9514   -5.3496    1.1820 H         1 <0>         0.4296
@<TRIPOS>BOND
     1    1    6 ar
     2    1    2 ar
     3    1   25 1
     4    2   17 1
     5    2    3 ar
     6    3    4 ar
     7    3   14 1
     8    4    5 ar
     9    4   26 1
    10    5    6 ar
    11    5    8 1
    12    6    7 1
    13    8   13 1
    14    8    9 1
    15    9   10 1
    16    9   27 1
    17    9   28 1
    18   10   11 1
    19   10   29 1
    20   10   30 1
    21   11   12 1
    22   11   31 1
    23   11   42 1
    24   12   13 1
    25   12   32 1
    26   12   33 1
    27   13   34 1
    28   13   35 1
    29   14   15 1
    30   14   22 1
    31   15   16 2
    32   15   36 1
    33   16   17 1
    34   16   19 1
    35   17   18 2
    36   19   20 2
    37   19   21 1
    38   22   24 1
    39   22   23 1
    40   22   37 1
    41   23   24 1
    42   23   38 1
    43   23   39 1
    44   24   40 1
    45   24   41 1
@<TRIPOS>MOLECULE
ZINC00020220
   43    46     0     0     0
SMALL
USER_CHARGES

@<TRIPOS>ATOM
      1 C1         -0.0973    1.4829   -0.2906 C.2       1 <0>        -0.0028
      2 C2          1.1426    2.1108   -0.0459 C.2       1 <0>        -0.1630
      3 C3          2.3126    1.3408    0.1671 C.2       1 <0>         0.2522
      4 C4          2.2490   -0.0367    0.1368 C.2       1 <0>        -0.2505
      5 C5          1.0195   -0.6747   -0.1066 C.2       1 <0>         0.2840
      6 C6         -0.1812    0.1310   -0.3249 C.2       1 <0>         0.0100
      7 F1         -1.3684   -0.4698   -0.5591 F         1 <0>        -0.1151
      8 N1          0.9490   -2.0051   -0.1375 N.pl3     1 <0>        -0.6001
      9 C7          2.1664   -2.8249   -0.2373 C.3       1 <0>         0.0805
     10 C8          2.1235   -3.8936    0.8600 C.3       1 <0>        -0.0229
     11 N2          0.8712   -4.6528    0.7538 N.4       1 <0>        -0.5067
     12 C9         -0.2725   -3.7703    1.0170 C.3       1 <0>        -0.0206
     13 C10        -0.3480   -2.6957   -0.0668 C.3       1 <0>         0.0504
     14 N3          3.5171    1.9720    0.4055 N.pl3     1 <0>        -0.4101
     15 C11         3.6050    3.3087    0.4404 C.2       1 <0>         0.2443
     16 C12         2.4922    4.1080    0.2387 C.2       1 <0>        -0.2898
     17 C13         1.2318    3.5128   -0.0099 C.2       1 <0>         0.3600
     18 O1          0.1370    4.2773   -0.2090 O.3       1 <0>        -0.4287
     19 C14         2.6192    5.5711    0.2833 C.2       1 <0>         0.5376
     20 O2          3.7247    6.0866    0.3812 O.co2     1 <0>        -0.6319
     21 O3          1.6194    6.2742    0.2224 O.co2     1 <0>        -0.6504
     22 C15         4.7206    1.1659    0.6249 C.3       1 <0>         0.0042
     23 C16         5.9853    1.8949    1.0833 C.3       1 <0>        -0.1643
     24 C17         5.8869    1.3590   -0.3464 C.3       1 <0>        -0.1636
     25 H1         -0.9826    2.0815   -0.4466 H         1 <0>         0.1757
     26 H2          3.1409   -0.6237    0.2991 H         1 <0>         0.1588
     27 H3          2.2054   -3.3052   -1.2150 H         1 <0>         0.1087
     28 H4          3.0448   -2.1944   -0.1004 H         1 <0>         0.1340
     29 H5          2.9699   -4.5702    0.7416 H         1 <0>         0.1528
     30 H6          2.1758   -3.4135    1.8371 H         1 <0>         0.1390
     31 H7          0.7905   -5.0379   -0.1753 H         1 <0>         0.4314
     32 H8         -1.1917   -4.3560    1.0144 H         1 <0>         0.1539
     33 H9         -0.1478   -3.2939    1.9894 H         1 <0>         0.1382
     34 H10        -1.1311   -1.9797    0.1828 H         1 <0>         0.1631
     35 H11        -0.5672   -3.1627   -1.0270 H         1 <0>         0.1054
     36 H12         4.5622    3.7717    0.6297 H         1 <0>         0.2093
     37 H13         4.5497    0.1617    1.0127 H         1 <0>         0.1559
     38 H14         5.9218    2.9743    1.2217 H         1 <0>         0.1206
     39 H15         6.6465    1.3704    1.7730 H         1 <0>         0.1297
     40 H16         6.4835    0.4819   -0.5973 H         1 <0>         0.1248
     41 H17         5.7588    2.0858   -1.1486 H         1 <0>         0.1149
     42 H18         0.8767   -5.4041    1.4273 H         1 <0>         0.4391
     43 H19         0.3215    5.2257   -0.2487 H         1 <0>         0.4420
@<TRIPOS>BOND
     1    1    6 2
     2    1    2 1
     3    1   25 1
     4    2   17 2
     5    2    3 1
     6    3    4 2
     7    3   14 1
     8    4    5 1
     9    4   26 1
    10    5    6 1
    11    5    8 2
    12    6    7 1
    13    8   13 1
    14    8    9 1
    15    9   10 1
    16    9   27 1
    17    9   28 1
    18   10   11 1
    19   10   29 1
    20   10   30 1
    21   11   12 1
    22   11   31 1
    23   11   42 1
    24   12   13 1
    25   12   32 1
    26   12   33 1
    27   13   34 1
    28   13   35 1
    29   14   15 1
    30   14   22 1
    31   15   16 2
    32   15   36 1
    33   16   17 1
    34   16   19 1
    35   17   18 1
    36   18   43 1
    37   19   20 2
    38   19   21 1
    39   22   24 1
    40   22   23 1
    41   22   37 1
    42   23   24 1
    43   23   38 1
    44   23   39 1
    45   24   40 1
    46   24   41 1
@<TRIPOS>MOLECULE
ZINC00003742
   41    43     0     0     0
SMALL
USER_CHARGES

@<TRIPOS>ATOM
      1 C1         -0.0187    1.5258    0.0104 C.3       1 <0>        -0.1749
      2 C2          0.0021   -0.0041    0.0020 C.3       1 <0>         0.0901
      3 N1         -1.3723   -0.5112    0.0124 N.pl3     1 <0>        -0.4947
      4 C3         -1.9640   -0.7340    1.1919 C.2       1 <0>         0.1476
      5 C4         -3.2572   -1.2114    1.2875 C.2       1 <0>        -0.2829
      6 C5         -4.0090   -1.4834    0.0501 C.2       1 <0>         0.4099
      7 O1         -5.1521   -1.9047    0.0814 O.2       1 <0>        -0.4344
      8 C6         -3.3216   -1.2243   -1.2260 C.ar      1 <0>        -0.1605
      9 C7         -2.0034   -0.7332   -1.1939 C.ar      1 <0>         0.2045
     10 C8         -1.3444   -0.4805   -2.3909 C.ar      1 <0>        -0.1621
     11 C9         -1.9911   -0.7088   -3.5951 C.ar      1 <0>         0.1641
     12 C10        -3.3021   -1.1916   -3.6164 C.ar      1 <0>         0.0432
     13 C11        -3.9589   -1.4546   -2.4475 C.ar      1 <0>        -0.0528
     14 F1         -3.9194   -1.4093   -4.7982 F         1 <0>        -0.1378
     15 N2         -1.3292   -0.4545   -4.7937 N.pl3     1 <0>        -0.6709
     16 C12        -1.4013    0.8692   -5.4315 C.3       1 <0>         0.1162
     17 C13         0.0232    1.3282   -5.7600 C.3       1 <0>        -0.0231
     18 N3          0.6931    0.3016   -6.5684 N.4       1 <0>        -0.5024
     19 C14         0.8460   -0.9308   -5.7849 C.3       1 <0>        -0.0226
     20 C15        -0.5331   -1.5001   -5.4548 C.3       1 <0>         0.1155
     21 C16        -3.8708   -1.4439    2.5989 C.2       1 <0>         0.5336
     22 O2         -3.2368   -1.2149    3.6206 O.co2     1 <0>        -0.6975
     23 O3         -5.0172   -1.8671    2.6718 O.co2     1 <0>        -0.6592
     24 H1          1.0039    1.9031    0.0027 H         1 <0>         0.0736
     25 H2         -0.5459    1.8868   -0.8726 H         1 <0>         0.0579
     26 H3         -0.5289    1.8773    0.9072 H         1 <0>         0.0718
     27 H4          0.5123   -0.3556   -0.8948 H         1 <0>         0.0843
     28 H5          0.5293   -0.3651    0.8851 H         1 <0>         0.0985
     29 H6         -1.4126   -0.5346    2.0989 H         1 <0>         0.1721
     30 H7         -0.3312   -0.1069   -2.3828 H         1 <0>         0.1386
     31 H8         -4.9720   -1.8282   -2.4678 H         1 <0>         0.1541
     32 H9         -1.9853    0.8022   -6.3494 H         1 <0>         0.0815
     33 H10        -1.8668    1.5799   -4.7487 H         1 <0>         0.1181
     34 H11        -0.0160    2.2629   -6.3194 H         1 <0>         0.1395
     35 H12         0.5782    1.4814   -4.8345 H         1 <0>         0.1324
     36 H13         0.1410    0.1096   -7.3908 H         1 <0>         0.4275
     37 H14         1.4131   -1.6607   -6.3627 H         1 <0>         0.1399
     38 H15         1.3761   -0.7092   -4.8586 H         1 <0>         0.1321
     39 H16        -0.4250   -2.3551   -4.7874 H         1 <0>         0.1183
     40 H17        -1.0280   -1.8104   -6.3750 H         1 <0>         0.0811
     41 H18         1.6031    0.6362   -6.8478 H         1 <0>         0.4296
@<TRIPOS>BOND
     1    1    2 1
     2    1   24 1
     3    1   25 1
     4    1   26 1
     5    2    3 1
     6    2   27 1
     7    2   28 1
     8    3    9 1
     9    3    4 1
    10    4    5 2
    11    4   29 1
    12    5    6 1
    13    5   21 1
    14    6    7 2
    15    6    8 1
    16    8   13 ar
    17    8    9 ar
    18    9   10 ar
    19   10   11 ar
    20   10   30 1
    21   11   12 ar
    22   11   15 1
    23   12   13 ar
    24   12   14 1
    25   13   31 1
    26   15   20 1
    27   15   16 1
    28   16   17 1
    29   16   32 1
    30   16   33 1
    31   17   18 1
    32   17   34 1
    33   17   35 1
    34   18   19 1
    35   18   36 1
    36   18   41 1
    37   19   20 1
    38   19   37 1
    39   19   38 1
    40   20   39 1
    41   20   40 1
    42   21   22 2
    43   21   23 1
@<TRIPOS>MOLECULE
ZINC00003742
   42    44     0     0     0
SMALL
USER_CHARGES

@<TRIPOS>ATOM
      1 C1          0.6132   -0.3126    0.3401 C.3       1 <0>        -0.1814
      2 C2         -0.0495   -1.6822    0.1794 C.3       1 <0>         0.0683
      3 N1         -1.5043   -1.5177    0.1271 N.pl3     1 <0>        -0.4406
      4 C3         -2.2114   -1.5483    1.2650 C.2       1 <0>         0.2565
      5 C4         -3.5879   -1.3964    1.2607 C.2       1 <0>        -0.2944
      6 C5         -4.2726   -1.2045    0.0363 C.2       1 <0>         0.3615
      7 O1         -5.6141   -1.0544    0.0143 O.3       1 <0>        -0.4306
      8 C6         -3.5286   -1.1730   -1.1554 C.2       1 <0>        -0.1644
      9 C7         -2.1217   -1.3284   -1.0932 C.2       1 <0>         0.2487
     10 C8         -1.3706   -1.2962   -2.2496 C.2       1 <0>        -0.2554
     11 C9         -2.0046   -1.1029   -3.4900 C.2       1 <0>         0.2850
     12 C10        -3.4567   -0.9378   -3.5407 C.2       1 <0>         0.0086
     13 C11        -4.1775   -0.9840   -2.3943 C.2       1 <0>        -0.0022
     14 F1         -4.0776   -0.7511   -4.7260 F         1 <0>        -0.1151
     15 N2         -1.2865   -1.0701   -4.6121 N.pl3     1 <0>        -0.5998
     16 C12         0.1769   -0.9261   -4.5697 C.3       1 <0>         0.0802
     17 C13         0.7982   -2.0208   -5.4435 C.3       1 <0>        -0.0227
     18 N3          0.2216   -1.9550   -6.7924 N.4       1 <0>        -0.5068
     19 C14        -1.2137   -2.2600   -6.7381 C.3       1 <0>        -0.0205
     20 C15        -1.9341   -1.1828   -5.9282 C.3       1 <0>         0.0492
     21 C16        -4.3365   -1.4349    2.5243 C.2       1 <0>         0.5378
     22 O2         -3.7365   -1.4872    3.5897 O.co2     1 <0>        -0.6314
     23 O3         -5.5601   -1.4146    2.5116 O.co2     1 <0>        -0.6513
     24 H1          1.6956   -0.4350    0.3790 H         1 <0>         0.0941
     25 H2          0.3493    0.3203   -0.5072 H         1 <0>         0.0667
     26 H3          0.2667    0.1527    1.2629 H         1 <0>         0.0789
     27 H4          0.2970   -2.1475   -0.7434 H         1 <0>         0.1063
     28 H5          0.2143   -2.3151    1.0267 H         1 <0>         0.1217
     29 H6         -1.6978   -1.6945    2.2038 H         1 <0>         0.2107
     30 H7         -0.2986   -1.4186   -2.2026 H         1 <0>         0.1596
     31 H8         -5.2502   -0.8631   -2.4274 H         1 <0>         0.1751
     32 H9          0.4599    0.0539   -4.9538 H         1 <0>         0.1087
     33 H10         0.5261   -1.0350   -3.5428 H         1 <0>         0.1340
     34 H11         1.8764   -1.8714   -5.5014 H         1 <0>         0.1529
     35 H12         0.5894   -2.9971   -5.0062 H         1 <0>         0.1391
     36 H13         0.3533   -1.0279   -7.1682 H         1 <0>         0.4313
     37 H14        -1.6180   -2.2868   -7.7500 H         1 <0>         0.1538
     38 H15        -1.3616   -3.2291   -6.2616 H         1 <0>         0.1382
     39 H16        -2.9799   -1.4614   -5.7991 H         1 <0>         0.1640
     40 H17        -1.8679   -0.2292   -6.4519 H         1 <0>         0.1053
     41 H18         0.6844   -2.6255   -7.3877 H         1 <0>         0.4391
     42 H19        -6.0355   -1.1562    0.8787 H         1 <0>         0.4416
@<TRIPOS>BOND
     1    1    2 1
     2    1   24 1
     3    1   25 1
     4    1   26 1
     5    2    3 1
     6    2   27 1
     7    2   28 1
     8    3    9 1
     9    3    4 1
    10    4    5 2
    11    4   29 1
    12    5    6 1
    13    5   21 1
    14    6    7 1
    15    6    8 2
    16    7   42 1
    17    8   13 1
    18    8    9 1
    19    9   10 2
    20   10   11 1
    21   10   30 1
    22   11   12 1
    23   11   15 2
    24   12   13 2
    25   12   14 1
    26   13   31 1
    27   15   20 1
    28   15   16 1
    29   16   17 1
    30   16   32 1
    31   16   33 1
    32   17   18 1
    33   17   34 1
    34   17   35 1
    35   18   19 1
    36   18   36 1
    37   18   41 1
    38   19   20 1
    39   19   37 1
    40   19   38 1
    41   20   39 1
    42   20   40 1
    43   21   22 2
    44   21   23 1
