@<TRIPOS>MOLECULE
ZINC03805768
   71    74     0     0     0
SMALL
USER_CHARGES

@<TRIPOS>ATOM
      1 C1         -0.0178    1.4648    0.0101 C.3       1 <0>        -0.0612
      2 N1          0.0021   -0.0041    0.0020 N.4       1 <0>        -0.3845
      3 C2          0.7126   -0.4907    1.1921 C.3       1 <0>        -0.0057
      4 C3         -0.0711   -0.1034    2.4478 C.3       1 <0>        -0.1630
      5 C4          0.6689   -0.6103    3.6874 C.3       1 <0>         0.0942
      6 N2         -0.0815   -0.2395    4.8897 N.am      1 <0>        -0.5887
      7 C5          0.2863    1.0526    5.4322 C.3       1 <0>         0.1237
      8 C6         -0.2568    1.2805    6.8297 C.3       1 <0>        -0.0940
      9 C7         -1.7559    1.3334    6.8341 C.ar      1 <0>        -0.0832
     10 C8         -2.3771    2.5585    7.0589 C.ar      1 <0>        -0.1691
     11 C9         -3.7579    2.6457    7.0406 C.ar      1 <0>         0.1083
     12 C10        -4.5260    1.5113    6.7944 C.ar      1 <0>         0.1090
     13 C11        -3.8984    0.2935    6.5825 C.ar      1 <0>        -0.1627
     14 C12        -2.5166    0.2229    6.6207 C.ar      1 <0>        -0.0813
     15 C13        -1.8325   -1.1131    6.4702 C.3       1 <0>        -0.0917
     16 C14        -0.9581   -1.1380    5.2628 C.2       1 <0>         0.5312
     17 O1         -1.0685   -2.1077    4.5429 O.2       1 <0>        -0.5576
     18 O2         -5.8829    1.5969    6.7625 O.3       1 <0>        -0.3024
     19 C15        -6.6032    0.3901    6.5041 C.3       1 <0>         0.0243
     20 O3         -4.3655    3.8417    7.2640 O.3       1 <0>        -0.3037
     21 C16        -3.5167    4.9646    7.5104 C.3       1 <0>         0.0249
     22 C17         0.6897   -0.4778   -1.2066 C.3       1 <0>         0.0028
     23 C18        -0.1178   -0.0772   -2.4429 C.3       1 <0>        -0.0561
     24 H1         -1.1831   -0.2773   -2.3284 H         1 <0>         0.1149
     25 C19         0.1791    1.3444   -2.9204 C.3       1 <0>        -0.0798
     26 C20         0.7236    0.6655   -4.1599 C.ar      1 <0>        -0.1211
     27 C21         0.4536   -0.6229   -3.7271 C.ar      1 <0>        -0.1431
     28 C22         0.7666   -1.7117   -4.5194 C.ar      1 <0>        -0.1328
     29 C23         1.3557   -1.5235   -5.7589 C.ar      1 <0>         0.1115
     30 C24         1.6299   -0.2329   -6.2006 C.ar      1 <0>         0.1221
     31 C25         1.3146    0.8567   -5.4028 C.ar      1 <0>        -0.1501
     32 O4          2.2085   -0.0391   -7.4160 O.3       1 <0>        -0.2986
     33 C26         2.4616    1.3122   -7.8059 C.3       1 <0>         0.0225
     34 O5          1.6645   -2.5936   -6.5391 O.3       1 <0>        -0.2975
     35 C27         1.3537   -3.8875   -6.0182 C.3       1 <0>         0.0234
     36 H2          1.0047    1.8421    0.0024 H         1 <0>         0.1245
     37 H3         -0.5450    1.8259   -0.8730 H         1 <0>         0.1280
     38 H4         -0.5280    1.8163    0.9069 H         1 <0>         0.1245
     39 H5          0.8051   -1.5756    1.1418 H         1 <0>         0.1344
     40 H6          1.7055   -0.0428    1.2310 H         1 <0>         0.1317
     41 H7         -0.1636    0.9815    2.4982 H         1 <0>         0.0869
     42 H8         -1.0641   -0.5514    2.4090 H         1 <0>         0.0928
     43 H9          0.7614   -1.6952    3.6370 H         1 <0>         0.1044
     44 H10         1.6618   -0.1623    3.7262 H         1 <0>         0.0870
     45 H11         1.3735    1.1249    5.4616 H         1 <0>         0.0847
     46 H12        -0.0978    1.8322    4.7744 H         1 <0>         0.0682
     47 H13         0.0730    0.4680    7.4771 H         1 <0>         0.0846
     48 H14         0.1341    2.2223    7.2147 H         1 <0>         0.0980
     49 H15        -1.7821    3.4398    7.2477 H         1 <0>         0.1396
     50 H16        -4.4833   -0.5935    6.3886 H         1 <0>         0.1409
     51 H17        -1.2280   -1.3063    7.3564 H         1 <0>         0.1093
     52 H18        -2.5886   -1.8928    6.3784 H         1 <0>         0.1109
     53 H19        -7.6732    0.5981    6.5060 H         1 <0>         0.1056
     54 H20        -6.3118   -0.0057    5.5312 H         1 <0>         0.0547
     55 H21        -6.3741   -0.3425    7.2779 H         1 <0>         0.0584
     56 H22        -4.1272    5.8530    7.6722 H         1 <0>         0.1050
     57 H23        -2.9103    4.7743    8.3959 H         1 <0>         0.0577
     58 H24        -2.8651    5.1231    6.6510 H         1 <0>         0.0545
     59 H25         1.6817   -0.0294   -1.2596 H         1 <0>         0.1353
     60 H26         0.7830   -1.5632   -1.1697 H         1 <0>         0.1360
     61 H27        -0.7115    1.9466   -3.1001 H         1 <0>         0.1083
     62 H28         0.9355    1.8613   -2.3298 H         1 <0>         0.0999
     63 H29         0.5518   -2.7112   -4.1710 H         1 <0>         0.1372
     64 H30         1.5279    1.8575   -5.7481 H         1 <0>         0.1384
     65 H31         2.9239    1.3250   -8.7930 H         1 <0>         0.1085
     66 H32         1.5217    1.8633   -7.8378 H         1 <0>         0.0588
     67 H33         3.1323    1.7790   -7.0845 H         1 <0>         0.0581
     68 H34         1.6505   -4.6500   -6.7383 H         1 <0>         0.1083
     69 H35         1.8921   -4.0417   -5.0831 H         1 <0>         0.0565
     70 H36         0.2813   -3.9578   -5.8358 H         1 <0>         0.0577
     71 H37        -0.9445   -0.3533    0.0092 H         1 <0>         0.4260
@<TRIPOS>BOND
     1    1    2 1
     2    1   36 1
     3    1   37 1
     4    1   38 1
     5    2    3 1
     6    2   22 1
     7    2   71 1
     8    3    4 1
     9    3   39 1
    10    3   40 1
    11    4    5 1
    12    4   41 1
    13    4   42 1
    14    5    6 1
    15    5   43 1
    16    5   44 1
    17    6   16 am
    18    6    7 1
    19    7    8 1
    20    7   45 1
    21    7   46 1
    22    8    9 1
    23    8   47 1
    24    8   48 1
    25    9   14 ar
    26    9   10 ar
    27   10   11 ar
    28   10   49 1
    29   11   12 ar
    30   11   20 1
    31   12   13 ar
    32   12   18 1
    33   13   14 ar
    34   13   50 1
    35   14   15 1
    36   15   16 1
    37   15   51 1
    38   15   52 1
    39   16   17 2
    40   18   19 1
    41   19   53 1
    42   19   54 1
    43   19   55 1
    44   20   21 1
    45   21   56 1
    46   21   57 1
    47   21   58 1
    48   22   23 1
    49   22   59 1
    50   22   60 1
    51   23   24 1
    52   23   27 1
    53   23   25 1
    54   25   26 1
    55   25   61 1
    56   25   62 1
    57   26   31 ar
    58   26   27 ar
    59   27   28 ar
    60   28   29 ar
    61   28   63 1
    62   29   30 ar
    63   29   34 1
    64   30   31 ar
    65   30   32 1
    66   31   64 1
    67   32   33 1
    68   33   65 1
    69   33   66 1
    70   33   67 1
    71   34   35 1
    72   35   68 1
    73   35   69 1
    74   35   70 1
@<TRIPOS>MOLECULE
ZINC00538544
   70    72     0     0     0
SMALL
USER_CHARGES

@<TRIPOS>ATOM
      1 C1         -0.0178    1.4648    0.0101 C.3       1 <0>        -0.0566
      2 N1          0.0021   -0.0041    0.0020 N.4       1 <0>        -0.3852
      3 C2         -1.3761   -0.5125    0.0124 C.3       1 <0>        -0.0054
      4 C3         -2.0530   -0.1242    1.3284 C.3       1 <0>        -0.1636
      5 C4         -3.4884   -0.6537    1.3393 C.3       1 <0>         0.0942
      6 N2         -4.1366   -0.2819    2.5994 N.am      1 <0>        -0.5884
      7 C5         -3.9690   -1.2615    3.6535 C.3       1 <0>         0.1233
      8 C6         -4.8944   -1.0231    4.8312 C.3       1 <0>        -0.0940
      9 C7         -4.5780    0.2685    5.5252 C.ar      1 <0>        -0.0830
     10 C8         -3.9915    0.2190    6.7864 C.ar      1 <0>        -0.1690
     11 C9         -3.6611    1.3927    7.4405 C.ar      1 <0>         0.1084
     12 C10        -3.9113    2.6222    6.8376 C.ar      1 <0>         0.1088
     13 C11        -4.5058    2.6614    5.5859 C.ar      1 <0>        -0.1628
     14 C12        -4.8440    1.4771    4.9543 C.ar      1 <0>        -0.0816
     15 C13        -5.5628    1.5163    3.6287 C.3       1 <0>        -0.0916
     16 C14        -4.7509    0.8739    2.5559 C.2       1 <0>         0.5314
     17 O1         -4.6510    1.4932    1.5179 O.2       1 <0>        -0.5585
     18 O2         -3.5752    3.7770    7.4725 O.3       1 <0>        -0.3023
     19 C15        -3.8630    4.9995    6.7908 C.3       1 <0>         0.0243
     20 O3         -3.0915    1.3450    8.6744 O.3       1 <0>        -0.3036
     21 C16        -2.8634    0.0501    9.2341 C.3       1 <0>         0.0248
     22 C17         0.6897   -0.4778   -1.2066 C.3       1 <0>        -0.0073
     23 C18         2.1588   -0.0534   -1.1571 C.3       1 <0>        -0.0946
     24 C19         2.8641   -0.5394   -2.3970 C.ar      1 <0>        -0.1083
     25 C20         3.4589   -1.7874   -2.4077 C.ar      1 <0>        -0.1029
     26 C21         4.1071   -2.2378   -3.5426 C.ar      1 <0>        -0.1718
     27 C22         4.1615   -1.4380   -4.6729 C.ar      1 <0>         0.1176
     28 C23         3.5625   -0.1820   -4.6622 C.ar      1 <0>         0.1061
     29 C24         2.9102    0.2614   -3.5229 C.ar      1 <0>        -0.1656
     30 O4          3.6131    0.6066   -5.7690 O.3       1 <0>        -0.3008
     31 C25         2.9765    1.8832   -5.6856 C.3       1 <0>         0.0251
     32 O5          4.7992   -1.8794   -5.7900 O.3       1 <0>        -0.3014
     33 C26         5.3914   -3.1784   -5.7284 C.3       1 <0>         0.0228
     34 H1          1.0047    1.8421    0.0024 H         1 <0>         0.1253
     35 H2         -0.5450    1.8259   -0.8730 H         1 <0>         0.1243
     36 H3         -0.5280    1.8163    0.9069 H         1 <0>         0.1248
     37 H4         -1.9290   -0.0808   -0.8218 H         1 <0>         0.1332
     38 H5         -1.3635   -1.5983   -0.0831 H         1 <0>         0.1321
     39 H6         -1.5001   -0.5559    2.1627 H         1 <0>         0.0856
     40 H7         -2.0656    0.9616    1.4240 H         1 <0>         0.0940
     41 H8         -4.0413   -0.2220    0.5050 H         1 <0>         0.1043
     42 H9         -3.4758   -1.7395    1.2438 H         1 <0>         0.0871
     43 H10        -4.1666   -2.2531    3.2464 H         1 <0>         0.0850
     44 H11        -2.9376   -1.2272    4.0044 H         1 <0>         0.0686
     45 H12        -5.9241   -0.9932    4.4749 H         1 <0>         0.0845
     46 H13        -4.7876   -1.8441    5.5402 H         1 <0>         0.0981
     47 H14        -3.7948   -0.7344    7.2542 H         1 <0>         0.1397
     48 H15        -4.7032    3.6091    5.1069 H         1 <0>         0.1409
     49 H16        -6.5139    0.9922    3.7229 H         1 <0>         0.1093
     50 H17        -5.7541    2.5545    3.3571 H         1 <0>         0.1108
     51 H18        -3.3280    5.0208    5.8414 H         1 <0>         0.0545
     52 H19        -4.9349    5.0685    6.6054 H         1 <0>         0.0584
     53 H20        -3.5457    5.8417    7.4057 H         1 <0>         0.1056
     54 H21        -2.4059    0.1549   10.2179 H         1 <0>         0.1051
     55 H22        -3.8127   -0.4770    9.3292 H         1 <0>         0.0578
     56 H23        -2.1976   -0.5153    8.5821 H         1 <0>         0.0546
     57 H24         0.6270   -1.5648   -1.2578 H         1 <0>         0.1329
     58 H25         0.2158   -0.0447   -2.0875 H         1 <0>         0.1313
     59 H26         2.2214    1.0336   -1.1059 H         1 <0>         0.0941
     60 H27         2.6326   -0.4865   -0.2761 H         1 <0>         0.0956
     61 H28         3.4172   -2.4117   -1.5275 H         1 <0>         0.1291
     62 H29         4.5715   -3.2128   -3.5482 H         1 <0>         0.1420
     63 H30         2.4412    1.2342   -3.5132 H         1 <0>         0.1365
     64 H31         3.0909    2.4089   -6.6336 H         1 <0>         0.1071
     65 H32         1.9165    1.7473   -5.4711 H         1 <0>         0.0542
     66 H33         3.4366    2.4673   -4.8885 H         1 <0>         0.0564
     67 H34         6.1399   -3.1993   -4.9364 H         1 <0>         0.0591
     68 H35         4.6202   -3.9198   -5.5192 H         1 <0>         0.0583
     69 H36         5.8658   -3.4070   -6.6828 H         1 <0>         0.1079
     70 H37         0.4901   -0.3383    0.8195 H         1 <0>         0.4237
@<TRIPOS>BOND
     1    1    2 1
     2    1   34 1
     3    1   35 1
     4    1   36 1
     5    2    3 1
     6    2   22 1
     7    2   70 1
     8    3    4 1
     9    3   37 1
    10    3   38 1
    11    4    5 1
    12    4   39 1
    13    4   40 1
    14    5    6 1
    15    5   41 1
    16    5   42 1
    17    6   16 am
    18    6    7 1
    19    7    8 1
    20    7   43 1
    21    7   44 1
    22    8    9 1
    23    8   45 1
    24    8   46 1
    25    9   14 ar
    26    9   10 ar
    27   10   11 ar
    28   10   47 1
    29   11   12 ar
    30   11   20 1
    31   12   13 ar
    32   12   18 1
    33   13   14 ar
    34   13   48 1
    35   14   15 1
    36   15   16 1
    37   15   49 1
    38   15   50 1
    39   16   17 2
    40   18   19 1
    41   19   51 1
    42   19   52 1
    43   19   53 1
    44   20   21 1
    45   21   54 1
    46   21   55 1
    47   21   56 1
    48   22   23 1
    49   22   57 1
    50   22   58 1
    51   23   24 1
    52   23   59 1
    53   23   60 1
    54   24   29 ar
    55   24   25 ar
    56   25   26 ar
    57   25   61 1
    58   26   27 ar
    59   26   62 1
    60   27   28 ar
    61   27   32 1
    62   28   29 ar
    63   28   30 1
    64   29   63 1
    65   30   31 1
    66   31   64 1
    67   31   65 1
    68   31   66 1
    69   32   33 1
    70   33   67 1
    71   33   68 1
    72   33   69 1
