@<TRIPOS>MOLECULE
ZINC22054857
   32    33     0     0     0
SMALL
USER_CHARGES
(2R)-4-(4-chlorophenyl)-1,1,2,3,3-pentadeuterio-1-imidazol-1-yl-butan-2-ol
@<TRIPOS>ATOM
      1 H1          1.7442   -0.0588    1.2807 H         1 <0>         0.0790
      2 C1          0.7421   -0.5109    1.2415 C.3       1 <0>        -0.1052
      3 H2          0.8355   -1.6057    1.1907 H         1 <0>         0.0824
      4 C2         -0.0416   -0.1236    2.4973 C.3       1 <0>        -0.0780
      5 C3          0.6873   -0.6229    3.7181 C.ar      1 <0>        -0.0786
      6 C4          0.4117   -1.8806    4.2212 C.ar      1 <0>        -0.1062
      7 C5          1.0839   -2.3413    5.3376 C.ar      1 <0>        -0.1082
      8 C6          2.0246   -1.5388    5.9583 C.ar      1 <0>        -0.0389
      9 C7          2.2960   -0.2779    5.4577 C.ar      1 <0>        -0.1077
     10 C8          1.6272    0.1794    4.3379 C.ar      1 <0>        -0.1029
     11 Cl1         2.8647   -2.1141    7.3644 Cl        1 <0>        -0.0698
     12 C9          0.0021   -0.0041    0.0020 C.3       1 <0>         0.1042
     13 H3         -1.0519   -0.3186    0.0104 H         1 <0>         0.0610
     14 C10         0.7182   -0.4975   -1.2568 C.3       1 <0>         0.0677
     15 H4          1.7194   -0.0450   -1.3103 H         1 <0>         0.1052
     16 H5          0.8124   -1.5928   -1.2195 H         1 <0>         0.1012
     17 N1         -0.0549   -0.1139   -2.4405 N.pl3     1 <0>        -0.4610
     18 C11        -1.0361   -0.8529   -3.0444 C.2       1 <0>        -0.0583
     19 C12        -1.4818   -0.1293   -4.0891 C.2       1 <0>        -0.0269
     20 N2         -0.7852    1.0162   -4.1276 N.2       1 <0>        -0.4914
     21 C13         0.0713    1.0324   -3.1432 C.2       1 <0>         0.1747
     22 O1         -0.0173    1.4248    0.0099 O.3       1 <0>        -0.5906
     23 H6         -0.1349    0.9713    2.5481 H         1 <0>         0.0858
     24 H7         -1.0437   -0.5756    2.4581 H         1 <0>         0.0741
     25 H8         -0.3259   -2.5052    3.7392 H         1 <0>         0.1311
     26 H9          0.8717   -3.3256    5.7279 H         1 <0>         0.1336
     27 H10         3.0305    0.3488    5.9416 H         1 <0>         0.1339
     28 H11         1.8391    1.1635    3.9468 H         1 <0>         0.1325
     29 H12        -1.3871   -1.8279   -2.7401 H         1 <0>         0.1738
     30 H13        -2.2608   -0.4219   -4.7775 H         1 <0>         0.1703
     31 H14         0.7657    1.8306   -2.9261 H         1 <0>         0.2063
     32 H15        -0.5089    1.9727   -0.8075 H         1 <0>         0.4069
@<TRIPOS>BOND
     1    1    2 1
     2    2    3 1
     3    2    4 1
     4    2   12 1
     5    4    5 1
     6    4   23 1
     7    4   24 1
     8    5   10 ar
     9    5    6 ar
    10    6    7 ar
    11    6   25 1
    12    7    8 ar
    13    7   26 1
    14    8    9 ar
    15    8   11 1
    16    9   10 ar
    17    9   27 1
    18   10   28 1
    19   12   13 1
    20   12   14 1
    21   12   22 1
    22   14   15 1
    23   14   16 1
    24   14   17 1
    25   17   21 1
    26   17   18 1
    27   18   19 2
    28   18   29 1
    29   19   20 1
    30   19   30 1
    31   20   21 2
    32   21   31 1
    33   22   32 1
@<TRIPOS>MOLECULE
ZINC22054857
   33    34     0     0     0
SMALL
USER_CHARGES
(2R)-4-(4-chlorophenyl)-1,1,2,3,3-pentadeuterio-1-imidazol-1-yl-butan-2-ol
@<TRIPOS>ATOM
      1 H1          1.7442   -0.0588    1.2807 H         1 <0>         0.0855
      2 C1          0.7421   -0.5109    1.2415 C.3       1 <0>        -0.1088
      3 H2          0.8355   -1.6057    1.1907 H         1 <0>         0.0902
      4 C2         -0.0416   -0.1236    2.4973 C.3       1 <0>        -0.0754
      5 C3          0.6873   -0.6229    3.7181 C.ar      1 <0>        -0.0888
      6 C4          0.4117   -1.8806    4.2212 C.ar      1 <0>        -0.1051
      7 C5          1.0839   -2.3413    5.3376 C.ar      1 <0>        -0.1074
      8 C6          2.0246   -1.5388    5.9583 C.ar      1 <0>        -0.0348
      9 C7          2.2960   -0.2779    5.4577 C.ar      1 <0>        -0.1070
     10 C8          1.6272    0.1794    4.3379 C.ar      1 <0>        -0.1021
     11 Cl1         2.8647   -2.1141    7.3644 Cl        1 <0>        -0.0617
     12 C9          0.0021   -0.0041    0.0020 C.3       1 <0>         0.1010
     13 H3         -1.0519   -0.3186    0.0104 H         1 <0>         0.0725
     14 C10         0.7182   -0.4975   -1.2568 C.3       1 <0>         0.0535
     15 H4          1.7194   -0.0450   -1.3103 H         1 <0>         0.1323
     16 H5          0.8124   -1.5928   -1.2195 H         1 <0>         0.1342
     17 N1         -0.0549   -0.1139   -2.4405 N.pl3     1 <0>        -0.4116
     18 C11        -1.0361   -0.8529   -3.0444 C.2       1 <0>         0.0185
     19 C12        -1.4818   -0.1293   -4.0891 C.2       1 <0>        -0.0006
     20 N2         -0.7852    1.0162   -4.1276 N.pl3     1 <0>        -0.4925
     21 C13         0.0713    1.0324   -3.1432 C.cat     1 <0>         0.2856
     22 O1         -0.0173    1.4248    0.0099 O.3       1 <0>        -0.5772
     23 H6         -0.1349    0.9713    2.5481 H         1 <0>         0.0862
     24 H7         -1.0437   -0.5756    2.4581 H         1 <0>         0.0753
     25 H8         -0.3259   -2.5052    3.7392 H         1 <0>         0.1305
     26 H9          0.8717   -3.3256    5.7279 H         1 <0>         0.1358
     27 H10         3.0305    0.3488    5.9416 H         1 <0>         0.1359
     28 H11         1.8391    1.1635    3.9468 H         1 <0>         0.1316
     29 H12        -1.3871   -1.8279   -2.7401 H         1 <0>         0.2199
     30 H13        -2.2608   -0.4219   -4.7775 H         1 <0>         0.2227
     31 H14         0.7657    1.8306   -2.9261 H         1 <0>         0.2590
     32 H15        -0.5089    1.9727   -0.8075 H         1 <0>         0.3956
     33 H16        -0.9890    1.7577   -4.9142 H         1 <0>         0.5073
@<TRIPOS>BOND
     1    1    2 1
     2    2    3 1
     3    2    4 1
     4    2   12 1
     5    4    5 1
     6    4   23 1
     7    4   24 1
     8    5   10 ar
     9    5    6 ar
    10    6    7 ar
    11    6   25 1
    12    7    8 ar
    13    7   26 1
    14    8    9 ar
    15    8   11 1
    16    9   10 ar
    17    9   27 1
    18   10   28 1
    19   12   13 1
    20   12   14 1
    21   12   22 1
    22   14   15 1
    23   14   16 1
    24   14   17 1
    25   17   21 1
    26   17   18 1
    27   18   19 2
    28   18   29 1
    29   19   20 1
    30   19   30 1
    31   20   21 2
    32   20   33 1
    33   21   31 1
    34   22   32 1
@<TRIPOS>MOLECULE
ZINC22054861
   32    33     0     0     0
SMALL
USER_CHARGES
(2S)-4-(4-chlorophenyl)-1,1,2,3,3-pentadeuterio-1-imidazol-1-yl-butan-2-ol
@<TRIPOS>ATOM
      1 H1          4.4254   -0.1284   -0.9144 H         1 <0>         0.0824
      2 C1          4.3868    0.8150   -1.4788 C.3       1 <0>        -0.1052
      3 H2          5.0654    1.5469   -1.0164 H         1 <0>         0.0790
      4 C2          4.8180    0.5622   -2.9248 C.3       1 <0>        -0.0780
      5 C3          6.2253    0.0235   -2.9424 C.ar      1 <0>        -0.0786
      6 C4          7.2970    0.8930   -3.0242 C.ar      1 <0>        -0.1029
      7 C5          8.5881    0.3998   -3.0347 C.ar      1 <0>        -0.1077
      8 C6          8.8075   -0.9649   -2.9748 C.ar      1 <0>        -0.0389
      9 C7          7.7344   -1.8348   -2.8987 C.ar      1 <0>        -0.1082
     10 C8          6.4440   -1.3402   -2.8826 C.ar      1 <0>        -0.1062
     11 Cl1        10.4287   -1.5854   -2.9946 Cl        1 <0>        -0.0698
     12 C9          2.9580    1.3619   -1.4608 C.3       1 <0>         0.1042
     13 H3          2.2793    0.7239   -2.0459 H         1 <0>         0.0610
     14 C10         2.4818    1.4971   -0.0131 C.3       1 <0>         0.0677
     15 H4          2.5876    0.5296    0.4995 H         1 <0>         0.1012
     16 H5          3.0897    2.2543    0.5037 H         1 <0>         0.1052
     17 N1          1.0752    1.9066    0.0020 N.pl3     1 <0>        -0.4610
     18 C11        -0.0126    1.0758    0.0080 C.2       1 <0>        -0.0582
     19 C12        -1.1046    1.8638    0.0167 C.2       1 <0>        -0.0269
     20 N2         -0.6947    3.1409    0.0248 N.2       1 <0>        -0.4914
     21 C13         0.6098    3.1743    0.0128 C.2       1 <0>         0.1747
     22 O1          2.9304    2.6432   -2.0930 O.3       1 <0>        -0.5905
     23 H6          4.1394   -0.1697   -3.3871 H         1 <0>         0.0741
     24 H7          4.7794    1.5056   -3.4892 H         1 <0>         0.0858
     25 H8          7.1254    1.9580   -3.0754 H         1 <0>         0.1325
     26 H9          9.4254    1.0794   -3.0942 H         1 <0>         0.1339
     27 H10         7.9051   -2.9002   -2.8515 H         1 <0>         0.1336
     28 H11         5.6062   -2.0192   -2.8228 H         1 <0>         0.1311
     29 H12         0.0021   -0.0041    0.0020 H         1 <0>         0.1738
     30 H13        -2.1306    1.5265    0.0194 H         1 <0>         0.1703
     31 H14         1.2166    4.0677    0.0120 H         1 <0>         0.2063
     32 H15         1.9827    3.1955   -2.1754 H         1 <0>         0.4069
@<TRIPOS>BOND
     1    1    2 1
     2    2    3 1
     3    2    4 1
     4    2   12 1
     5    4    5 1
     6    4   23 1
     7    4   24 1
     8    5   10 ar
     9    5    6 ar
    10    6    7 ar
    11    6   25 1
    12    7    8 ar
    13    7   26 1
    14    8    9 ar
    15    8   11 1
    16    9   10 ar
    17    9   27 1
    18   10   28 1
    19   12   13 1
    20   12   14 1
    21   12   22 1
    22   14   15 1
    23   14   16 1
    24   14   17 1
    25   17   21 1
    26   17   18 1
    27   18   19 2
    28   18   29 1
    29   19   20 1
    30   19   30 1
    31   20   21 2
    32   21   31 1
    33   22   32 1
@<TRIPOS>MOLECULE
ZINC22054861
   33    34     0     0     0
SMALL
USER_CHARGES
(2S)-4-(4-chlorophenyl)-1,1,2,3,3-pentadeuterio-1-imidazol-1-yl-butan-2-ol
@<TRIPOS>ATOM
      1 H1          4.4254   -0.1284   -0.9144 H         1 <0>         0.0902
      2 C1          4.3868    0.8150   -1.4788 C.3       1 <0>        -0.1088
      3 H2          5.0654    1.5469   -1.0164 H         1 <0>         0.0855
      4 C2          4.8180    0.5622   -2.9248 C.3       1 <0>        -0.0754
      5 C3          6.2253    0.0235   -2.9424 C.ar      1 <0>        -0.0888
      6 C4          7.2970    0.8930   -3.0242 C.ar      1 <0>        -0.1021
      7 C5          8.5881    0.3998   -3.0347 C.ar      1 <0>        -0.1070
      8 C6          8.8075   -0.9649   -2.9748 C.ar      1 <0>        -0.0348
      9 C7          7.7344   -1.8348   -2.8987 C.ar      1 <0>        -0.1074
     10 C8          6.4440   -1.3402   -2.8826 C.ar      1 <0>        -0.1051
     11 Cl1        10.4287   -1.5854   -2.9946 Cl        1 <0>        -0.0617
     12 C9          2.9580    1.3619   -1.4608 C.3       1 <0>         0.1009
     13 H3          2.2793    0.7239   -2.0459 H         1 <0>         0.0725
     14 C10         2.4818    1.4971   -0.0131 C.3       1 <0>         0.0535
     15 H4          2.5876    0.5296    0.4995 H         1 <0>         0.1343
     16 H5          3.0897    2.2543    0.5037 H         1 <0>         0.1323
     17 N1          1.0752    1.9066    0.0020 N.pl3     1 <0>        -0.4117
     18 C11        -0.0126    1.0758    0.0080 C.2       1 <0>         0.0185
     19 C12        -1.1046    1.8638    0.0167 C.2       1 <0>        -0.0006
     20 N2         -0.6947    3.1409    0.0248 N.pl3     1 <0>        -0.4926
     21 C13         0.6098    3.1743    0.0128 C.cat     1 <0>         0.2857
     22 O1          2.9304    2.6432   -2.0930 O.3       1 <0>        -0.5772
     23 H6          4.1394   -0.1697   -3.3871 H         1 <0>         0.0753
     24 H7          4.7794    1.5056   -3.4892 H         1 <0>         0.0862
     25 H8          7.1254    1.9580   -3.0754 H         1 <0>         0.1316
     26 H9          9.4254    1.0794   -3.0942 H         1 <0>         0.1359
     27 H10         7.9051   -2.9002   -2.8515 H         1 <0>         0.1358
     28 H11         5.6062   -2.0192   -2.8228 H         1 <0>         0.1305
     29 H12         0.0021   -0.0041    0.0020 H         1 <0>         0.2199
     30 H13        -2.1306    1.5265    0.0194 H         1 <0>         0.2227
     31 H14         1.2166    4.0677    0.0120 H         1 <0>         0.2590
     32 H15         1.9827    3.1955   -2.1754 H         1 <0>         0.3955
     33 H16        -1.4336    3.9556    0.0394 H         1 <0>         0.5073
@<TRIPOS>BOND
     1    1    2 1
     2    2    3 1
     3    2    4 1
     4    2   12 1
     5    4    5 1
     6    4   23 1
     7    4   24 1
     8    5   10 ar
     9    5    6 ar
    10    6    7 ar
    11    6   25 1
    12    7    8 ar
    13    7   26 1
    14    8    9 ar
    15    8   11 1
    16    9   10 ar
    17    9   27 1
    18   10   28 1
    19   12   13 1
    20   12   14 1
    21   12   22 1
    22   14   15 1
    23   14   16 1
    24   14   17 1
    25   17   21 1
    26   17   18 1
    27   18   19 2
    28   18   29 1
    29   19   20 1
    30   19   30 1
    31   20   21 2
    32   20   33 1
    33   21   31 1
    34   22   32 1
