@<TRIPOS>MOLECULE
ZINC04006194
   31    34     0     0     0
SMALL
USER_CHARGES

@<TRIPOS>ATOM
      1 C1         -0.0167    1.3818    0.0096 C.ar      1 <0>        -0.0842
      2 C2          1.1646    2.0979    0.0022 C.ar      1 <0>        -0.1100
      3 C3          2.3816    1.4366   -0.0134 C.ar      1 <0>        -0.0423
      4 C4          2.4148    0.0469   -0.0211 C.ar      1 <0>        -0.1627
      5 C5          1.2135   -0.6828   -0.0131 C.ar      1 <0>        -0.0199
      6 C6          0.0021   -0.0041    0.0020 C.ar      1 <0>        -0.0750
      7 C7          1.5352   -2.1325   -0.0240 C.ar      1 <0>         0.1305
      8 C8          2.9356   -2.2771   -0.0387 C.ar      1 <0>        -0.1698
      9 C9          3.4690   -3.5577   -0.0508 C.ar      1 <0>        -0.0376
     10 C10         2.5680   -4.6353   -0.0475 C.ar      1 <0>         0.1186
     11 N1          1.2626   -4.4004   -0.0333 N.ar      1 <0>        -0.2095
     12 N2          0.7709   -3.2156   -0.0218 N.ar      1 <0>        -0.2138
     13 C11         3.0734   -6.0277   -0.0604 C.ar      1 <0>        -0.0681
     14 C12         4.4468   -6.2729   -0.0701 C.ar      1 <0>        -0.0762
     15 C13         4.9136   -7.5697   -0.0821 C.ar      1 <0>        -0.1473
     16 C14         4.0185   -8.6317   -0.0847 C.ar      1 <0>         0.1296
     17 C15         2.6506   -8.3912   -0.0756 C.ar      1 <0>        -0.1490
     18 C16         2.1770   -7.0968   -0.0572 C.ar      1 <0>        -0.0541
     19 O1          4.4819   -9.9085   -0.0966 O.3       1 <0>        -0.4978
     20 C17         3.5360   -0.9227   -0.0374 C.2       1 <0>         0.4564
     21 O2          4.7205   -0.6574   -0.0484 O.2       1 <0>        -0.3999
     22 H1         -0.9612    1.9053    0.0260 H         1 <0>         0.1418
     23 H2          1.1392    3.1776    0.0082 H         1 <0>         0.1419
     24 H3          3.3031    1.9997   -0.0199 H         1 <0>         0.1410
     25 H4         -0.9260   -0.5564    0.0079 H         1 <0>         0.1426
     26 H5          4.5366   -3.7199   -0.0626 H         1 <0>         0.1649
     27 H6          5.1433   -5.4475   -0.0685 H         1 <0>         0.1336
     28 H7          5.9767   -7.7602   -0.0899 H         1 <0>         0.1377
     29 H8          1.9573   -9.2192   -0.0783 H         1 <0>         0.1379
     30 H9          1.1133   -6.9105   -0.0449 H         1 <0>         0.1441
     31 H10         4.6212  -10.2846    0.7834 H         1 <0>         0.3966
@<TRIPOS>BOND
     1    1    6 ar
     2    1    2 ar
     3    1   22 1
     4    2    3 ar
     5    2   23 1
     6    3    4 ar
     7    3   24 1
     8    4   20 1
     9    4    5 ar
    10    5    6 ar
    11    5    7 1
    12    6   25 1
    13    7   12 ar
    14    7    8 ar
    15    8    9 ar
    16    8   20 1
    17    9   10 ar
    18    9   26 1
    19   10   11 ar
    20   10   13 1
    21   11   12 ar
    22   13   18 ar
    23   13   14 ar
    24   14   15 ar
    25   14   27 1
    26   15   16 ar
    27   15   28 1
    28   16   17 ar
    29   16   19 1
    30   17   18 ar
    31   17   29 1
    32   18   30 1
    33   19   31 1
    34   20   21 2
@<TRIPOS>MOLECULE
ZINC00070745
   36    38     0     0     0
SMALL
USER_CHARGES
4-[4-(4-fluoro-3-methyl-phenyl)thiazol-2-yl]amino-2-hydroxy-benzoic acid
@<TRIPOS>ATOM
      1 C1          0.5731    8.4988    0.7591 C.3       1 <0>        -0.1135
      2 C2          1.7645    7.6189    0.4808 C.ar      1 <0>        -0.1223
      3 C3          1.6026    6.2523    0.3775 C.ar      1 <0>        -0.0600
      4 C4          2.7061    5.4391    0.1263 C.ar      1 <0>        -0.0228
      5 C5          3.9673    6.0118   -0.0311 C.ar      1 <0>        -0.0824
      6 C6          4.1187    7.3795    0.0681 C.ar      1 <0>        -0.1494
      7 C7          3.0196    8.1836    0.3237 C.ar      1 <0>         0.0950
      8 F1          3.1726    9.5224    0.4205 F         1 <0>        -0.1396
      9 C8          2.5382    3.9692    0.0206 C.2       1 <0>         0.1305
     10 C9          3.6288    3.1597   -0.1294 C.2       1 <0>        -0.2488
     11 S1          2.8438    1.5546   -0.1982 S.3       1 <0>         0.0428
     12 C10         1.1582    2.1227   -0.0216 C.2       1 <0>         0.3717
     13 N1          1.3288    3.4294    0.0653 N.2       1 <0>        -0.5668
     14 N2         -0.0168    1.3872    0.0097 N.pl3     1 <0>        -0.6029
     15 C11         0.0140    0.0163   -0.2264 C.ar      1 <0>         0.1555
     16 C12        -0.8861   -0.8218    0.4300 C.ar      1 <0>        -0.1642
     17 C13        -0.8645   -2.1676    0.2059 C.ar      1 <0>        -0.0340
     18 C14         0.0636   -2.7157   -0.6870 C.ar      1 <0>        -0.1507
     19 C15         0.9724   -1.8756   -1.3507 C.ar      1 <0>         0.1727
     20 C16         0.9381   -0.5116   -1.1197 C.ar      1 <0>        -0.2004
     21 O1          1.8755   -2.3977   -2.2179 O.3       1 <0>        -0.4714
     22 C17         0.0873   -4.1663   -0.9290 C.2       1 <0>         0.4884
     23 O2          0.8942   -4.6399   -1.7049 O.co2     1 <0>        -0.6136
     24 H1          0.1181    8.8031   -0.1835 H         1 <0>         0.0738
     25 H2         -0.1555    7.9468    1.3528 H         1 <0>         0.0731
     26 H3          0.8951    9.3830    1.3093 H         1 <0>         0.0690
     27 H4          0.6230    5.8133    0.4957 H         1 <0>         0.1423
     28 H5          4.8245    5.3859   -0.2307 H         1 <0>         0.1360
     29 H6          5.0955    7.8240   -0.0533 H         1 <0>         0.1379
     30 H7          4.6758    3.4179   -0.1895 H         1 <0>         0.1948
     31 H8         -0.8608    1.8290    0.1922 H         1 <0>         0.4250
     32 H9         -1.6041   -0.4037    1.1199 H         1 <0>         0.1273
     33 H10        -1.5648   -2.8108    0.7179 H         1 <0>         0.1435
     34 H11         1.6308    0.1411   -1.6301 H         1 <0>         0.1312
     35 H12         1.5607   -2.4478   -3.1308 H         1 <0>         0.3892
     36 O3         -0.7859   -4.9704   -0.2903 O.co2     1 <0>        -0.7571
@<TRIPOS>BOND
     1    1    2 1
     2    1   24 1
     3    1   25 1
     4    1   26 1
     5    2    7 ar
     6    2    3 ar
     7    3    4 ar
     8    3   27 1
     9    4    5 ar
    10    4    9 1
    11    5    6 ar
    12    5   28 1
    13    6    7 ar
    14    6   29 1
    15    7    8 1
    16    9   13 1
    17    9   10 2
    18   10   11 1
    19   10   30 1
    20   11   12 1
    21   12   13 2
    22   12   14 1
    23   14   15 1
    24   14   31 1
    25   15   20 ar
    26   15   16 ar
    27   16   17 ar
    28   16   32 1
    29   17   18 ar
    30   17   33 1
    31   18   19 ar
    32   18   22 1
    33   19   20 ar
    34   19   21 1
    35   20   34 1
    36   21   35 1
    37   22   23 2
    38   22   36 1
@<TRIPOS>MOLECULE
ZINC00196662
   33    36     0     0     0
SMALL
USER_CHARGES

@<TRIPOS>ATOM
      1 C1         -0.0184    1.5028    0.0103 C.3       1 <0>        -0.1212
      2 C2          0.0021   -0.0041    0.0020 C.ar      1 <0>        -0.0624
      3 C3          0.0057   -0.6864   -1.2014 C.ar      1 <0>        -0.1251
      4 C4          0.0243   -2.0661   -1.2153 C.ar      1 <0>        -0.0667
      5 C5          0.0396   -2.7725   -0.0132 C.ar      1 <0>        -0.0658
      6 C6          0.0359   -2.0793    1.1966 C.ar      1 <0>        -0.0889
      7 C7          0.0229   -0.6994    1.1978 C.ar      1 <0>        -0.1233
      8 C8          0.0592   -4.2546   -0.0214 C.ar      1 <0>         0.1197
      9 C9          0.0688   -4.9663    1.1889 C.ar      1 <0>        -0.0379
     10 C10         0.0872   -6.3519    1.1170 C.ar      1 <0>        -0.1703
     11 C11         0.0951   -6.9587   -0.1531 C.ar      1 <0>         0.1287
     12 N1          0.0844   -6.1952   -1.2370 N.ar      1 <0>        -0.2142
     13 N2          0.0623   -4.9142   -1.1718 N.ar      1 <0>        -0.2103
     14 C12         0.1152   -8.4322    0.0310 C.ar      1 <0>        -0.0192
     15 C13         0.1292   -9.4784   -0.8819 C.ar      1 <0>        -0.0754
     16 C14         0.1472  -10.7900   -0.4339 C.ar      1 <0>        -0.0843
     17 C15         0.1513  -11.0674    0.9193 C.ar      1 <0>        -0.1105
     18 C16         0.1370  -10.0354    1.8433 C.ar      1 <0>        -0.0424
     19 C17         0.1194   -8.7157    1.4076 C.ar      1 <0>        -0.1628
     20 C18         0.1020   -7.4255    2.1378 C.2       1 <0>         0.4565
     21 O1          0.1006   -7.2771    3.3426 O.2       1 <0>        -0.4004
     22 H1          1.0042    1.8801    0.0026 H         1 <0>         0.0757
     23 H2         -0.5455    1.8639   -0.8728 H         1 <0>         0.0705
     24 H3         -0.5286    1.8543    0.9071 H         1 <0>         0.0700
     25 H4         -0.0065   -0.1382   -2.1318 H         1 <0>         0.1307
     26 H5          0.0268   -2.5978   -2.1554 H         1 <0>         0.1390
     27 H6          0.0473   -2.6211    2.1308 H         1 <0>         0.1284
     28 H7          0.0248   -0.1613    2.1342 H         1 <0>         0.1305
     29 H8          0.0625   -4.4546    2.1399 H         1 <0>         0.1644
     30 H9          0.1258   -9.2701   -1.9416 H         1 <0>         0.1425
     31 H10         0.1577  -11.6005   -1.1476 H         1 <0>         0.1417
     32 H11         0.1653  -12.0928    1.2582 H         1 <0>         0.1418
     33 H12         0.1396  -10.2560    2.9006 H         1 <0>         0.1409
@<TRIPOS>BOND
     1    1    2 1
     2    1   22 1
     3    1   23 1
     4    1   24 1
     5    2    7 ar
     6    2    3 ar
     7    3    4 ar
     8    3   25 1
     9    4    5 ar
    10    4   26 1
    11    5    6 ar
    12    5    8 1
    13    6    7 ar
    14    6   27 1
    15    7   28 1
    16    8   13 ar
    17    8    9 ar
    18    9   10 ar
    19    9   29 1
    20   10   20 1
    21   10   11 ar
    22   11   12 ar
    23   11   14 1
    24   12   13 ar
    25   14   19 ar
    26   14   15 ar
    27   15   16 ar
    28   15   30 1
    29   16   17 ar
    30   16   31 1
    31   17   18 ar
    32   17   32 1
    33   18   19 ar
    34   18   33 1
    35   19   20 1
    36   20   21 2
@<TRIPOS>MOLECULE
ZINC03883784
   25    27     0     0     0
SMALL
USER_CHARGES

@<TRIPOS>ATOM
      1 C1         -0.0167    1.3794    0.0096 C.ar      1 <0>        -0.0981
      2 C2          1.1683    2.0936    0.0021 C.ar      1 <0>        -0.1206
      3 C3          2.3774    1.4295   -0.0134 C.ar      1 <0>        -0.0684
      4 C4          2.4035    0.0338   -0.0211 C.ar      1 <0>        -0.0204
      5 C5          1.2042   -0.6806   -0.0130 C.ar      1 <0>        -0.0912
      6 C6          0.0021   -0.0041    0.0020 C.ar      1 <0>        -0.1182
      7 C7          3.6950   -0.6842   -0.0382 C.2       1 <0>         0.1523
      8 N1          4.9282   -0.1955   -0.0424 N.2       1 <0>        -0.4954
      9 C8          5.9745   -0.9817   -0.0584 C.2       1 <0>         0.0646
     10 C9          5.7983   -2.3434   -0.0711 C.2       1 <0>        -0.1138
     11 S1          4.0126   -2.4437   -0.0508 S.3       1 <0>         0.0623
     12 C10         6.8052   -3.4263   -0.0903 C.2       1 <0>         0.1571
     13 C11         6.5356   -4.8105   -0.1082 C.2       1 <0>        -0.2571
     14 C12         7.7183   -5.4620   -0.1227 C.2       1 <0>         0.0682
     15 N2          8.7043   -4.5390   -0.1145 N.pl3     1 <0>        -0.4670
     16 H1          9.6565   -4.7236   -0.1217 H         1 <0>         0.4451
     17 N3          8.1137   -3.2689   -0.0994 N.2       1 <0>        -0.2703
     18 H2         -0.9605    1.9041    0.0260 H         1 <0>         0.1293
     19 H3          1.1467    3.1734    0.0081 H         1 <0>         0.1322
     20 H4          3.3017    1.9882   -0.0199 H         1 <0>         0.1369
     21 H5          1.2175   -1.7605   -0.0192 H         1 <0>         0.1274
     22 H6         -0.9265   -0.5555    0.0082 H         1 <0>         0.1323
     23 H7          6.9697   -0.5623   -0.0619 H         1 <0>         0.1752
     24 H8          5.5573   -5.2679   -0.1100 H         1 <0>         0.1527
     25 H9          7.8523   -6.5336   -0.1378 H         1 <0>         0.1848
@<TRIPOS>BOND
     1    1    6 ar
     2    1    2 ar
     3    1   18 1
     4    2    3 ar
     5    2   19 1
     6    3    4 ar
     7    3   20 1
     8    4    5 ar
     9    4    7 1
    10    5    6 ar
    11    5   21 1
    12    6   22 1
    13    7   11 1
    14    7    8 2
    15    8    9 1
    16    9   10 2
    17    9   23 1
    18   10   11 1
    19   10   12 1
    20   12   17 2
    21   12   13 1
    22   13   14 2
    23   13   24 1
    24   14   15 1
    25   14   25 1
    26   15   16 1
    27   15   17 1
@<TRIPOS>MOLECULE
ZINC16052596
   25    27     0     0     0
SMALL
USER_CHARGES

@<TRIPOS>ATOM
      1 C1         -0.0167    1.3790    0.0096 C.ar      1 <0>        -0.0986
      2 C2          1.1687    2.0917    0.0021 C.ar      1 <0>        -0.1220
      3 C3          2.3774    1.4255   -0.0130 C.ar      1 <0>        -0.0819
      4 C4          2.4020    0.0326   -0.0207 C.ar      1 <0>        -0.0433
      5 C5          1.2052   -0.6803   -0.0131 C.ar      1 <0>        -0.0830
      6 C6          0.0021   -0.0041    0.0020 C.ar      1 <0>        -0.1219
      7 C7          3.6991   -0.6894   -0.0375 C.2       1 <0>         0.1505
      8 C8          3.8686   -2.0908   -0.0524 C.2       1 <0>        -0.2386
      9 C9          5.2022   -2.3506   -0.0650 C.2       1 <0>         0.1507
     10 O1          5.8543   -1.1729   -0.0584 O.3       1 <0>        -0.0620
     11 N1          4.8892   -0.1370   -0.0468 N.2       1 <0>        -0.3031
     12 C10         5.8271   -3.6906   -0.0822 C.2       1 <0>         0.1212
     13 C11         7.2112   -3.9613   -0.0896 C.2       1 <0>        -0.2407
     14 C12         7.3705   -5.3018   -0.1046 C.2       1 <0>         0.0658
     15 N2          6.1443   -5.8687   -0.1068 N.pl3     1 <0>        -0.4595
     16 H1          5.9576   -6.8205   -0.1163 H         1 <0>         0.4477
     17 N3          5.1893   -4.8442   -0.0877 N.2       1 <0>        -0.2515
     18 H2         -0.9602    1.9042    0.0260 H         1 <0>         0.1288
     19 H3          1.1484    3.1715    0.0078 H         1 <0>         0.1308
     20 H4          3.3024    1.9829   -0.0192 H         1 <0>         0.1316
     21 H5          1.2187   -1.7602   -0.0195 H         1 <0>         0.1312
     22 H6         -0.9264   -0.5558    0.0079 H         1 <0>         0.1315
     23 H7          3.0779   -2.8265   -0.0530 H         1 <0>         0.1672
     24 H8          8.0029   -3.2267   -0.0845 H         1 <0>         0.1605
     25 H9          8.3132   -5.8288   -0.1139 H         1 <0>         0.1886
@<TRIPOS>BOND
     1    1    6 ar
     2    1    2 ar
     3    1   18 1
     4    2    3 ar
     5    2   19 1
     6    3    4 ar
     7    3   20 1
     8    4    5 ar
     9    4    7 1
    10    5    6 ar
    11    5   21 1
    12    6   22 1
    13    7   11 2
    14    7    8 1
    15    8    9 2
    16    8   23 1
    17    9   10 1
    18    9   12 1
    19   10   11 1
    20   12   17 2
    21   12   13 1
    22   13   14 2
    23   13   24 1
    24   14   15 1
    25   14   25 1
    26   15   16 1
    27   15   17 1
@<TRIPOS>MOLECULE
ZINC00160637
   21    22     0     0     0
SMALL
USER_CHARGES

@<TRIPOS>ATOM
      1 C1         -0.0189    1.3762   -0.0341 C.ar      1 <0>        -0.0862
      2 C2          1.1539    2.0708   -0.2726 C.ar      1 <0>        -0.1273
      3 C3          2.3635    1.4077   -0.2754 C.ar      1 <0>        -0.0580
      4 C4          2.4028    0.0328   -0.0363 C.ar      1 <0>        -0.1603
      5 C5          1.2160   -0.6618    0.2041 C.ar      1 <0>        -0.0751
      6 C6          0.0130    0.0134    0.2036 C.ar      1 <0>        -0.1245
      7 C7          3.6961   -0.6847   -0.0382 C.2       1 <0>         0.4800
      8 O1          4.7380   -0.0612   -0.1250 O.2       1 <0>        -0.4417
      9 C8          3.7232   -2.1446    0.0642 C.2       1 <0>        -0.2850
     10 C9          4.8169   -2.9952    0.1671 C.2       1 <0>        -0.0613
     11 C10         4.5245   -4.3341    0.2488 C.2       1 <0>        -0.1893
     12 C11         3.2261   -4.7289    0.2246 C.2       1 <0>        -0.2333
     13 S1          2.3611   -3.2943    0.0975 S.3       1 <0>         0.2262
     14 H1         -0.9628    1.9008   -0.0289 H         1 <0>         0.1316
     15 H2          1.1221    3.1344   -0.4574 H         1 <0>         0.1333
     16 H3          3.2780    1.9508   -0.4624 H         1 <0>         0.1373
     17 H4          1.2395   -1.7255    0.3894 H         1 <0>         0.1245
     18 H5         -0.9059   -0.5228    0.3894 H         1 <0>         0.1337
     19 H6          5.8320   -2.6268    0.1814 H         1 <0>         0.1497
     20 H7          5.3169   -5.0634    0.3308 H         1 <0>         0.1378
     21 H8          2.8376   -5.7351    0.2790 H         1 <0>         0.1880
@<TRIPOS>BOND
     1    1    6 ar
     2    1    2 ar
     3    1   14 1
     4    2    3 ar
     5    2   15 1
     6    3    4 ar
     7    3   16 1
     8    4    5 ar
     9    4    7 1
    10    5    6 ar
    11    5   17 1
    12    6   18 1
    13    7    8 2
    14    7    9 1
    15    9   13 1
    16    9   10 2
    17   10   11 1
    18   10   19 1
    19   11   12 2
    20   11   20 1
    21   12   13 1
    22   12   21 1
@<TRIPOS>MOLECULE
ZINC03810035
   55    58     0     0     0
SMALL
USER_CHARGES
4-benzhydryloxy-1-[3-(1H-tetrazol-5-yl)propyl]piperidine
@<TRIPOS>ATOM
      1 C1         -2.8988  -11.1050    7.3335 C.ar      1 <0>        -0.1121
      2 C2         -3.5458  -11.0626    6.1126 C.ar      1 <0>        -0.1187
      3 C3         -3.3935   -9.9641    5.2875 C.ar      1 <0>        -0.1080
      4 C4         -2.5943   -8.9079    5.6832 C.ar      1 <0>        -0.0894
      5 C5         -1.9432   -8.9526    6.9018 C.ar      1 <0>        -0.0889
      6 C6         -2.0996  -10.0488    7.7292 C.ar      1 <0>        -0.1216
      7 C7         -2.4280   -7.7104    4.7835 C.3       1 <0>         0.1795
      8 C8         -3.3281   -6.5980    5.2562 C.ar      1 <0>        -0.1172
      9 C9         -2.9047   -5.7448    6.2579 C.ar      1 <0>        -0.0949
     10 C10        -3.7285   -4.7214    6.6882 C.ar      1 <0>        -0.1206
     11 C11        -4.9798   -4.5578    6.1239 C.ar      1 <0>        -0.1107
     12 C12        -5.4053   -5.4143    5.1258 C.ar      1 <0>        -0.1167
     13 C13        -4.5794   -6.4344    4.6919 C.ar      1 <0>        -0.1099
     14 O1         -1.0686   -7.2716    4.8210 O.3       1 <0>        -0.3532
     15 C14        -0.6222   -6.6583    3.6099 C.3       1 <0>         0.0821
     16 C15         0.8798   -6.9006    3.4370 C.3       1 <0>        -0.1451
     17 C16         1.3637   -6.1904    2.1707 C.3       1 <0>         0.0039
     18 C17        -0.3490   -4.4914    2.3999 C.3       1 <0>        -0.0080
     19 C18        -0.8840   -5.1509    3.6730 C.3       1 <0>        -0.1723
     20 C19         1.6662   -4.0188    1.1446 C.3       1 <0>        -0.0041
     21 C20         1.1569   -2.5761    1.1579 C.3       1 <0>        -0.1400
     22 C21         1.7557   -1.8129   -0.0252 C.3       1 <0>         0.0107
     23 C22         1.2540   -0.3919   -0.0120 C.2       1 <0>         0.0314
     24 N1          1.1929    1.7282   -0.0001 N.2       1 <0>        -0.1742
     25 N2         -0.0154    1.2842    0.0091 N.2       1 <0>        -0.2011
     26 N3          0.0021   -0.0041    0.0020 N.2       1 <0>        -0.3824
     27 H1         -3.0174  -11.9635    7.9779 H         1 <0>         0.1243
     28 H2         -4.1699  -11.8880    5.8032 H         1 <0>         0.1256
     29 H3         -3.8987   -9.9311    4.3335 H         1 <0>         0.1213
     30 H4         -1.3152   -8.1293    7.2090 H         1 <0>         0.1242
     31 H5         -1.5938  -10.0821    8.6829 H         1 <0>         0.1243
     32 H6         -2.6936   -7.9836    3.7622 H         1 <0>         0.0800
     33 H7         -1.9289   -5.8753    6.7019 H         1 <0>         0.1243
     34 H8         -3.3962   -4.0525    7.4683 H         1 <0>         0.1240
     35 H9         -5.6251   -3.7610    6.4632 H         1 <0>         0.1247
     36 H10        -6.3830   -5.2867    4.6852 H         1 <0>         0.1254
     37 H11        -4.9120   -7.1038    3.9124 H         1 <0>         0.1208
     38 H12        -1.1600   -7.0863    2.7640 H         1 <0>         0.0778
     39 H13         1.0679   -7.9706    3.3485 H         1 <0>         0.1155
     40 H14         1.4139   -6.5069    4.3017 H         1 <0>         0.0964
     41 H15         0.8391   -6.5943    1.3048 H         1 <0>         0.1299
     42 H16         2.4355   -6.3491    2.0524 H         1 <0>         0.1333
     43 H17        -0.5211   -3.4162    2.4480 H         1 <0>         0.1422
     44 H18        -0.8656   -4.9033    1.5329 H         1 <0>         0.1306
     45 H19        -1.9561   -4.9709    3.7532 H         1 <0>         0.1136
     46 H20        -0.3777   -4.7297    4.5415 H         1 <0>         0.0953
     47 H21         1.3686   -4.5006    0.2132 H         1 <0>         0.1302
     48 H22         2.7534   -4.0210    1.2235 H         1 <0>         0.1286
     49 H23         1.4545   -2.0943    2.0893 H         1 <0>         0.0817
     50 H24         0.0698   -2.5739    1.0790 H         1 <0>         0.0944
     51 H25         1.4581   -2.2947   -0.9565 H         1 <0>         0.0712
     52 H26         2.8428   -1.8151    0.0538 H         1 <0>         0.0775
     53 N4          1.1052   -4.7411    2.3050 N.4       1 <0>        -0.3943
     54 H27         1.5582   -4.3999    3.1609 H         1 <0>         0.4269
     55 N5          1.9898    0.7246   -0.0131 N.2       1 <0>        -0.3884
@<TRIPOS>BOND
     1    1    6 ar
     2    1    2 ar
     3    1   27 1
     4    2    3 ar
     5    2   28 1
     6    3    4 ar
     7    3   29 1
     8    4    5 ar
     9    4    7 1
    10    5    6 ar
    11    5   30 1
    12    6   31 1
    13    7    8 1
    14    7   14 1
    15    7   32 1
    16    8   13 ar
    17    8    9 ar
    18    9   10 ar
    19    9   33 1
    20   10   11 ar
    21   10   34 1
    22   11   12 ar
    23   11   35 1
    24   12   13 ar
    25   12   36 1
    26   13   37 1
    27   14   15 1
    28   15   19 1
    29   15   16 1
    30   15   38 1
    31   16   17 1
    32   16   39 1
    33   16   40 1
    34   17   41 1
    35   17   42 1
    36   17   53 1
    37   18   19 1
    38   18   43 1
    39   18   44 1
    40   18   53 1
    41   19   45 1
    42   19   46 1
    43   20   21 1
    44   20   47 1
    45   20   48 1
    46   20   53 1
    47   21   22 1
    48   21   49 1
    49   21   50 1
    50   22   23 1
    51   22   51 1
    52   22   52 1
    53   23   26 2
    54   23   55 1
    55   24   25 2
    56   24   55 1
    57   25   26 1
    58   53   54 1
