@<TRIPOS>MOLECULE
ZINC01482006
   32    35     0     0     0
SMALL
USER_CHARGES
chrysen-6-amine
@<TRIPOS>ATOM
      1 C1          1.1153    6.3408    0.0286 C.ar      1 <0>        -0.1134
      2 C2         -0.0811    5.6312    0.0357 C.ar      1 <0>        -0.1224
      3 C3         -0.0840    4.2663    0.0274 C.ar      1 <0>        -0.0990
      4 C4          1.1289    3.5723    0.0110 C.ar      1 <0>        -0.0529
      5 C5          2.3473    4.2899    0.0031 C.ar      1 <0>        -0.0364
      6 C6          2.3145    5.6931    0.0116 C.ar      1 <0>        -0.1104
      7 C7          3.5723    3.5903   -0.0125 C.ar      1 <0>        -0.1285
      8 C8          3.6056    2.2378   -0.0201 C.ar      1 <0>        -0.0830
      9 C9          2.4264    1.4717   -0.0133 C.ar      1 <0>        -0.0924
     10 C10         1.1701    2.1073    0.0022 C.ar      1 <0>         0.0287
     11 C11        -0.0164    1.3570    0.0095 C.ar      1 <0>        -0.2272
     12 C12         0.0021   -0.0041    0.0020 C.ar      1 <0>         0.2415
     13 C13         1.2734   -0.7230   -0.0140 C.ar      1 <0>        -0.0833
     14 C14         2.4832    0.0080   -0.0218 C.ar      1 <0>        -0.0012
     15 C15         3.7021   -0.6755   -0.0376 C.ar      1 <0>        -0.1132
     16 C16         3.7108   -2.0408   -0.0441 C.ar      1 <0>        -0.1023
     17 C17         2.5218   -2.7612   -0.0361 C.ar      1 <0>        -0.1251
     18 C18         1.3161   -2.1226   -0.0215 C.ar      1 <0>        -0.0964
     19 N1         -1.1960   -0.7139    0.0102 N.pl3     1 <0>        -0.8654
     20 H1          1.0936    7.4206    0.0361 H         1 <0>         0.1230
     21 H2         -1.0190    6.1666    0.0484 H         1 <0>         0.1233
     22 H3         -1.0188    3.7255    0.0331 H         1 <0>         0.1258
     23 H4          3.2355    6.2571    0.0059 H         1 <0>         0.1272
     24 H5          4.4996    4.1439   -0.0188 H         1 <0>         0.1255
     25 H6          4.5609    1.7343   -0.0320 H         1 <0>         0.1234
     26 H7         -0.9659    1.8716    0.0168 H         1 <0>         0.1247
     27 H8          4.6322   -0.1267   -0.0447 H         1 <0>         0.1312
     28 H9          4.6534   -2.5678   -0.0560 H         1 <0>         0.1268
     29 H10         2.5529   -3.8408   -0.0418 H         1 <0>         0.1257
     30 H11         0.3994   -2.6937   -0.0154 H         1 <0>         0.1226
     31 H12        -2.0414   -0.2385    0.0212 H         1 <0>         0.4038
     32 H13        -1.1851   -1.6839    0.0049 H         1 <0>         0.3992
@<TRIPOS>BOND
     1    1    6 ar
     2    1    2 ar
     3    1   20 1
     4    2    3 ar
     5    2   21 1
     6    3    4 ar
     7    3   22 1
     8    4   10 ar
     9    4    5 ar
    10    5    6 ar
    11    5    7 ar
    12    6   23 1
    13    7    8 ar
    14    7   24 1
    15    8    9 ar
    16    8   25 1
    17    9   14 ar
    18    9   10 ar
    19   10   11 ar
    20   11   12 ar
    21   11   26 1
    22   12   13 ar
    23   12   19 1
    24   13   18 ar
    25   13   14 ar
    26   14   15 ar
    27   15   16 ar
    28   15   27 1
    29   16   17 ar
    30   16   28 1
    31   17   18 ar
    32   17   29 1
    33   18   30 1
    34   19   31 1
    35   19   32 1
@<TRIPOS>MOLECULE
ZINC01599927
   32    35     0     0     0
SMALL
USER_CHARGES
6-nitrochrysene
@<TRIPOS>ATOM
      1 C1          2.3444    5.1120    1.1131 C.ar      1 <0>        -0.1146
      2 C2          1.1490    5.8234    1.1288 C.ar      1 <0>        -0.0957
      3 C3         -0.0378    5.2009    0.8716 C.ar      1 <0>        -0.1152
      4 C4         -0.0541    3.8321    0.5888 C.ar      1 <0>        -0.0218
      5 C5          1.1592    3.1051    0.5719 C.ar      1 <0>        -0.0597
      6 C6          2.3620    3.7767    0.8404 C.ar      1 <0>        -0.0941
      7 C7          1.1447    1.7233    0.2875 C.ar      1 <0>        -0.0604
      8 C8         -0.0136    1.0736    0.0283 C.ar      1 <0>        -0.1238
      9 C9         -1.2479    1.7461    0.0264 C.ar      1 <0>         0.0141
     10 C10        -1.3043    3.1243    0.3078 C.ar      1 <0>        -0.0612
     11 C11        -2.5390    3.7969    0.3113 C.ar      1 <0>        -0.0104
     12 C12        -3.6972    3.1481    0.0524 C.ar      1 <0>        -0.0250
     13 C13        -3.7122    1.7658   -0.2320 C.ar      1 <0>        -0.0280
     14 C14        -2.4994    1.0378   -0.2493 C.ar      1 <0>        -0.0345
     15 C15        -2.5177   -0.3304   -0.5322 C.ar      1 <0>        -0.0990
     16 C16        -3.7058   -0.9519   -0.7887 C.ar      1 <0>        -0.1017
     17 C17        -4.9001   -0.2397   -0.7721 C.ar      1 <0>        -0.0961
     18 C18        -4.9157    1.0962   -0.5000 C.ar      1 <0>        -0.1116
     19 N1         -4.9717    3.9011    0.0681 N.pl3     1 <0>         0.0248
     20 O1         -5.0138    5.0362   -0.3717 O.2       1 <0>        -0.1512
     21 O2         -5.9781    3.3856    0.5208 O.3       1 <0>        -0.1492
     22 H1          3.2719    5.6252    1.3199 H         1 <0>         0.1304
     23 H2          1.1604    6.8810    1.3474 H         1 <0>         0.1316
     24 H3         -0.9599    5.7630    0.8861 H         1 <0>         0.1307
     25 H4          3.2977    3.2373    0.8319 H         1 <0>         0.1345
     26 H5          2.0747    1.1743    0.2762 H         1 <0>         0.1389
     27 H6          0.0113    0.0154   -0.1862 H         1 <0>         0.1377
     28 H7         -2.5631    4.8551    0.5259 H         1 <0>         0.1523
     29 H8         -1.5963   -0.8937   -0.5475 H         1 <0>         0.1390
     30 H9         -3.7183   -2.0094   -1.0076 H         1 <0>         0.1355
     31 H10        -5.8283   -0.7519   -0.9780 H         1 <0>         0.1359
     32 H11        -5.8507    1.6367   -0.4905 H         1 <0>         0.1477
@<TRIPOS>BOND
     1    1    6 ar
     2    1    2 ar
     3    1   22 1
     4    2    3 ar
     5    2   23 1
     6    3    4 ar
     7    3   24 1
     8    4   10 ar
     9    4    5 ar
    10    5    6 ar
    11    5    7 ar
    12    6   25 1
    13    7    8 ar
    14    7   26 1
    15    8    9 ar
    16    8   27 1
    17    9   14 ar
    18    9   10 ar
    19   10   11 ar
    20   11   12 ar
    21   11   28 1
    22   12   13 ar
    23   12   19 1
    24   13   18 ar
    25   13   14 ar
    26   14   15 ar
    27   15   16 ar
    28   15   29 1
    29   16   17 ar
    30   16   30 1
    31   17   18 ar
    32   17   31 1
    33   18   32 1
    34   19   20 2
    35   19   21 1
@<TRIPOS>MOLECULE
ZINC36177752
   32    34     0     0     0
SMALL
USER_CHARGES

@<TRIPOS>ATOM
      1 C1          0.0738    1.4358    0.9671 C.ar      1 <0>        -0.0260
      2 C2          1.2292    2.1372    0.6703 C.ar      1 <0>        -0.0610
      3 C3          2.4371    1.4623    0.5360 C.ar      1 <0>        -0.0259
      4 C4          2.4724    0.0660    0.7046 C.ar      1 <0>        -0.0637
      5 C5          1.3008   -0.6254    1.0035 C.ar      1 <0>        -0.0177
      6 C6          0.1088    0.0631    1.1328 C.ar      1 <0>        -0.0207
      7 N1         -1.1359   -0.6724    1.4501 N.pl3     1 <0>         0.0250
      8 O1         -2.1798   -0.0733    1.5638 O.2       1 <0>        -0.1306
      9 O2         -1.1087   -1.8723    1.5955 O.3       1 <0>        -0.1385
     10 C7          3.8668   -0.3787    0.5076 C.2       1 <0>         0.0865
     11 C8          4.3335   -1.6812    0.5858 C.2       1 <0>         0.1155
     12 C9          3.4278   -2.7496    0.8839 C.1       1 <0>         0.2286
     13 N2          2.7093   -3.5972    1.1203 N.1       1 <0>        -0.3264
     14 C10         5.7215   -1.9588    0.3685 C.1       1 <0>         0.2277
     15 N3          6.8225   -2.1790    0.1962 N.1       1 <0>        -0.3285
     16 C11         4.6708    0.8240    0.2111 C.ar      1 <0>        -0.0670
     17 C12         3.8077    1.9349    0.2284 C.ar      1 <0>         0.0630
     18 C13         4.3193    3.2026   -0.0236 C.ar      1 <0>        -0.0111
     19 C14         5.6678    3.3647   -0.2888 C.ar      1 <0>         0.0226
     20 C15         6.5161    2.2724   -0.3057 C.ar      1 <0>        -0.0327
     21 C16         6.0257    1.0038   -0.0579 C.ar      1 <0>         0.0232
     22 N4          7.9560    2.4626   -0.5915 N.pl3     1 <0>         0.0275
     23 O3          8.3879    3.5706   -0.8093 O.2       1 <0>        -0.1223
     24 O4          8.7001    1.5099   -0.6070 O.3       1 <0>        -0.1227
     25 N5          3.4214    4.3793   -0.0088 N.pl3     1 <0>         0.0228
     26 O5          3.5234    5.2283   -0.8634 O.2       1 <0>        -0.1048
     27 O6          2.5861    4.4914    0.8580 O.3       1 <0>        -0.1295
     28 H1         -0.8616    1.9649    1.0746 H         1 <0>         0.1780
     29 H2          1.1925    3.2090    0.5427 H         1 <0>         0.1762
     30 H3          1.3232   -1.6973    1.1334 H         1 <0>         0.1641
     31 H4          6.0607    4.3515   -0.4843 H         1 <0>         0.1924
     32 H5          6.6919    0.1539   -0.0718 H         1 <0>         0.1759
@<TRIPOS>BOND
     1    1    6 ar
     2    1    2 ar
     3    1   28 1
     4    2    3 ar
     5    2   29 1
     6    3   17 1
     7    3    4 ar
     8    4    5 ar
     9    4   10 1
    10    5    6 ar
    11    5   30 1
    12    6    7 1
    13    7    8 2
    14    7    9 1
    15   10   11 2
    16   10   16 1
    17   11   12 1
    18   11   14 1
    19   12   13 3
    20   14   15 3
    21   16   21 ar
    22   16   17 ar
    23   17   18 ar
    24   18   19 ar
    25   18   25 1
    26   19   20 ar
    27   19   31 1
    28   20   21 ar
    29   20   22 1
    30   21   32 1
    31   22   23 2
    32   22   24 1
    33   25   26 2
    34   25   27 1
@<TRIPOS>MOLECULE
ZINC01724368
   30    33     0     0     0
SMALL
USER_CHARGES

@<TRIPOS>ATOM
      1 C1         -0.0164    1.3587    0.0095 C.ar      1 <0>        -0.1140
      2 C2          1.1670    2.0900    0.0021 C.ar      1 <0>        -0.1100
      3 C3          2.3777    1.4603   -0.0128 C.ar      1 <0>        -0.1064
      4 C4          2.4314    0.0636   -0.0207 C.ar      1 <0>        -0.0375
      5 C5          1.2302   -0.6834   -0.0133 C.ar      1 <0>        -0.0479
      6 C6          0.0021   -0.0041    0.0020 C.ar      1 <0>        -0.1029
      7 C7          1.2806   -2.0934   -0.0223 C.ar      1 <0>        -0.0960
      8 C8          2.4626   -2.7515   -0.0381 C.ar      1 <0>        -0.1026
      9 C9          3.6868   -2.0613   -0.0461 C.ar      1 <0>        -0.0421
     10 C10         3.7076   -0.6534   -0.0372 C.ar      1 <0>        -0.0164
     11 C11         4.9320    0.0365   -0.0443 C.ar      1 <0>        -0.1428
     12 C12         6.1157   -0.6232   -0.0592 C.ar      1 <0>         0.1194
     13 C13         6.1647   -2.0357   -0.0682 C.ar      1 <0>        -0.0807
     14 C14         4.9624   -2.7803   -0.0633 C.ar      1 <0>        -0.0154
     15 C15         5.0125   -4.1767   -0.0728 C.ar      1 <0>        -0.1085
     16 C16         6.2220   -4.8094   -0.0892 C.ar      1 <0>        -0.1000
     17 C17         7.4063   -4.0806   -0.0961 C.ar      1 <0>        -0.1142
     18 C18         7.3905   -2.7171   -0.0837 C.ar      1 <0>        -0.0952
     19 F1          7.2685    0.0813   -0.0659 F         1 <0>        -0.1319
     20 H1         -0.9631    1.8782    0.0259 H         1 <0>         0.1265
     21 H2          1.1271    3.1692    0.0079 H         1 <0>         0.1272
     22 H3          3.2899    2.0384   -0.0187 H         1 <0>         0.1288
     23 H4         -0.9245   -0.5589    0.0082 H         1 <0>         0.1306
     24 H5          0.3594   -2.6572   -0.0161 H         1 <0>         0.1318
     25 H6          2.4654   -3.8315   -0.0443 H         1 <0>         0.1304
     26 H7          4.9296    1.1164   -0.0380 H         1 <0>         0.1408
     27 H8          4.0988   -4.7526   -0.0669 H         1 <0>         0.1345
     28 H9          6.2596   -5.8887   -0.0965 H         1 <0>         0.1307
     29 H10         8.3520   -4.6019   -0.1083 H         1 <0>         0.1301
     30 H11         8.3182   -2.1641   -0.0892 H         1 <0>         0.1338
@<TRIPOS>BOND
     1    1    6 ar
     2    1    2 ar
     3    1   20 1
     4    2    3 ar
     5    2   21 1
     6    3    4 ar
     7    3   22 1
     8    4   10 ar
     9    4    5 ar
    10    5    6 ar
    11    5    7 ar
    12    6   23 1
    13    7    8 ar
    14    7   24 1
    15    8    9 ar
    16    8   25 1
    17    9   14 ar
    18    9   10 ar
    19   10   11 ar
    20   11   12 ar
    21   11   26 1
    22   12   13 ar
    23   12   19 1
    24   13   18 ar
    25   13   14 ar
    26   14   15 ar
    27   15   16 ar
    28   15   27 1
    29   16   17 ar
    30   16   28 1
    31   17   18 ar
    32   17   29 1
    33   18   30 1
@<TRIPOS>MOLECULE
ZINC01693315
   30    33     0     0     0
SMALL
USER_CHARGES
chrysene
@<TRIPOS>ATOM
      1 C1          2.3790    1.4163   -0.0122 C.ar      1 <0>        -0.1168
      2 C2          1.1596    2.0852    0.0022 C.ar      1 <0>        -0.1115
      3 C3         -0.0169    1.3933    0.0097 C.ar      1 <0>        -0.1073
      4 C4          0.0021   -0.0041    0.0020 C.ar      1 <0>        -0.0378
      5 C5          1.2402   -0.6880   -0.0135 C.ar      1 <0>        -0.0512
      6 C6          2.4312    0.0541   -0.0204 C.ar      1 <0>        -0.1030
      7 C7          1.2623   -2.0989   -0.0226 C.ar      1 <0>        -0.0986
      8 C8          0.1159   -2.8171   -0.0156 C.ar      1 <0>        -0.1046
      9 C9         -1.1426   -2.1909    0.0002 C.ar      1 <0>        -0.0357
     10 C10        -1.2355   -0.7862    0.0091 C.ar      1 <0>        -0.0357
     11 C11        -2.4940   -0.1601    0.0250 C.ar      1 <0>        -0.1046
     12 C12        -3.6404   -0.8784    0.0311 C.ar      1 <0>        -0.0986
     13 C13        -3.6183   -2.2893    0.0228 C.ar      1 <0>        -0.0512
     14 C14        -2.3801   -2.9731    0.0072 C.ar      1 <0>        -0.0378
     15 C15        -2.3610   -4.3705   -0.0015 C.ar      1 <0>        -0.1073
     16 C16        -3.5374   -5.0624    0.0050 C.ar      1 <0>        -0.1115
     17 C17        -4.7568   -4.3937    0.0203 C.ar      1 <0>        -0.1168
     18 C18        -4.8092   -3.0316    0.0296 C.ar      1 <0>        -0.1030
     19 H1          3.2976    1.9842   -0.0179 H         1 <0>         0.1253
     20 H2          1.1436    3.1651    0.0081 H         1 <0>         0.1261
     21 H3         -0.9579    1.9232    0.0170 H         1 <0>         0.1284
     22 H4          3.3853   -0.4518   -0.0326 H         1 <0>         0.1291
     23 H5          2.2112   -2.6145   -0.0347 H         1 <0>         0.1297
     24 H6          0.1687   -3.8958   -0.0226 H         1 <0>         0.1279
     25 H7         -2.5469    0.9186    0.0321 H         1 <0>         0.1279
     26 H8         -4.5893   -0.3628    0.0430 H         1 <0>         0.1297
     27 H9         -1.4199   -4.9002   -0.0137 H         1 <0>         0.1284
     28 H10        -3.5212   -6.1423   -0.0014 H         1 <0>         0.1260
     29 H11        -5.6754   -4.9618    0.0252 H         1 <0>         0.1254
     30 H12        -5.7633   -2.5257    0.0421 H         1 <0>         0.1291
@<TRIPOS>BOND
     1    1    6 ar
     2    1    2 ar
     3    1   19 1
     4    2    3 ar
     5    2   20 1
     6    3    4 ar
     7    3   21 1
     8    4   10 ar
     9    4    5 ar
    10    5    6 ar
    11    5    7 ar
    12    6   22 1
    13    7    8 ar
    14    7   23 1
    15    8    9 ar
    16    8   24 1
    17    9   14 ar
    18    9   10 ar
    19   10   11 ar
    20   11   12 ar
    21   11   25 1
    22   12   13 ar
    23   12   26 1
    24   13   18 ar
    25   13   14 ar
    26   14   15 ar
    27   15   16 ar
    28   15   27 1
    29   16   17 ar
    30   16   28 1
    31   17   18 ar
    32   17   29 1
    33   18   30 1
@<TRIPOS>MOLECULE
ZINC03080663
   47    50     0     0     0
SMALL
USER_CHARGES
2-nitro-1,5-diphenyl-3-(p-tolyl)benzene
@<TRIPOS>ATOM
      1 C1          7.3139    8.5971   -0.0180 C.3       1 <0>        -0.1199
      2 C2          6.0161    7.8310   -0.0111 C.ar      1 <0>        -0.0673
      3 C3          5.8224    6.8119    0.9039 C.ar      1 <0>        -0.1199
      4 C4          4.6356    6.1074    0.9150 C.ar      1 <0>        -0.0856
      5 C5          3.6320    6.4240    0.0020 C.ar      1 <0>        -0.0942
      6 C6          3.8348    7.4473   -0.9215 C.ar      1 <0>        -0.1019
      7 C7          5.0232    8.1493   -0.9200 C.ar      1 <0>        -0.1125
      8 C8          2.3537    5.6699    0.0091 C.ar      1 <0>         0.0206
      9 C9          2.3667    4.2777    0.0019 C.ar      1 <0>        -0.0962
     10 C10         1.1680    3.5705    0.0096 C.ar      1 <0>         0.0052
     11 C11        -0.0442    4.2553    0.0186 C.ar      1 <0>        -0.0962
     12 C12        -0.0572    5.6470    0.0302 C.ar      1 <0>         0.0185
     13 C13         1.1419    6.3544    0.0235 C.ar      1 <0>        -0.0163
     14 N1          1.1281    7.8346    0.0321 N.pl3     1 <0>         0.0283
     15 O1          1.1133    8.4496   -1.0191 O.2       1 <0>        -0.1369
     16 O2          1.1315    8.4375    1.0904 O.3       1 <0>        -0.1367
     17 C14        -1.3493    6.3770    0.0460 C.ar      1 <0>        -0.0869
     18 C15        -1.5709    7.3861    0.9808 C.ar      1 <0>        -0.1075
     19 C16        -2.7726    8.0650    0.9879 C.ar      1 <0>        -0.1107
     20 C17        -3.7600    7.7379    0.0761 C.ar      1 <0>        -0.1027
     21 C18        -3.5473    6.7334   -0.8507 C.ar      1 <0>        -0.1179
     22 C19        -2.3474    6.0516   -0.8701 C.ar      1 <0>        -0.0912
     23 C20         1.1819    2.0864    0.0020 C.ar      1 <0>        -0.0623
     24 C21        -0.0166    1.3760    0.0096 C.ar      1 <0>        -0.1005
     25 C22         0.0021   -0.0041    0.0020 C.ar      1 <0>        -0.1172
     26 C23         1.2078   -0.6818   -0.0131 C.ar      1 <0>        -0.1062
     27 C24         2.4006    0.0185   -0.0203 C.ar      1 <0>        -0.1172
     28 C25         2.3934    1.3987   -0.0128 C.ar      1 <0>        -0.1005
     29 H1          8.0213    8.1075   -0.6872 H         1 <0>         0.0751
     30 H2          7.1329    9.6153   -0.3625 H         1 <0>         0.0708
     31 H3          7.7261    8.6227    0.9908 H         1 <0>         0.0700
     32 H4          6.6011    6.5673    1.6112 H         1 <0>         0.1301
     33 H5          4.4854    5.3118    1.6298 H         1 <0>         0.1279
     34 H6          3.0619    7.6936   -1.6345 H         1 <0>         0.1340
     35 H7          5.1797    8.9459   -1.6322 H         1 <0>         0.1310
     36 H8          3.3070    3.7466   -0.0092 H         1 <0>         0.1499
     37 H9         -0.9744    3.7065    0.0201 H         1 <0>         0.1499
     38 H10        -0.8022    7.6394    1.6958 H         1 <0>         0.1339
     39 H11        -2.9438    8.8501    1.7094 H         1 <0>         0.1316
     40 H12        -4.7002    8.2691    0.0876 H         1 <0>         0.1291
     41 H13        -4.3217    6.4818   -1.5601 H         1 <0>         0.1305
     42 H14        -2.1822    5.2677   -1.5944 H         1 <0>         0.1278
     43 H15        -0.9586    1.9042    0.0169 H         1 <0>         0.1274
     44 H16        -0.9264   -0.5558    0.0076 H         1 <0>         0.1289
     45 H17         1.2179   -1.7618   -0.0190 H         1 <0>         0.1273
     46 H18         3.3392   -0.5157   -0.0314 H         1 <0>         0.1289
     47 H19         3.3253    1.9445   -0.0188 H         1 <0>         0.1274
@<TRIPOS>BOND
     1    1    2 1
     2    1   29 1
     3    1   30 1
     4    1   31 1
     5    2    7 ar
     6    2    3 ar
     7    3    4 ar
     8    3   32 1
     9    4    5 ar
    10    4   33 1
    11    5    6 ar
    12    5    8 1
    13    6    7 ar
    14    6   34 1
    15    7   35 1
    16    8   13 ar
    17    8    9 ar
    18    9   10 ar
    19    9   36 1
    20   10   11 ar
    21   10   23 1
    22   11   12 ar
    23   11   37 1
    24   12   13 ar
    25   12   17 1
    26   13   14 1
    27   14   15 2
    28   14   16 1
    29   17   22 ar
    30   17   18 ar
    31   18   19 ar
    32   18   38 1
    33   19   20 ar
    34   19   39 1
    35   20   21 ar
    36   20   40 1
    37   21   22 ar
    38   21   41 1
    39   22   42 1
    40   23   28 ar
    41   23   24 ar
    42   24   25 ar
    43   24   43 1
    44   25   26 ar
    45   25   44 1
    46   26   27 ar
    47   26   45 1
    48   27   28 ar
    49   27   46 1
    50   28   47 1
@<TRIPOS>MOLECULE
ZINC01713240
   37    40     0     0     0
SMALL
USER_CHARGES
2,2-dichloro-N-chrysen-6-yl-acetamide
@<TRIPOS>ATOM
      1 C1          2.3953    5.2507    0.0781 C.ar      1 <0>        -0.1138
      2 C2          1.1974    5.9578    0.0828 C.ar      1 <0>        -0.1123
      3 C3         -0.0003    5.3034    0.0781 C.ar      1 <0>        -0.1022
      4 C4         -0.0248    3.9060    0.0685 C.ar      1 <0>        -0.0377
      5 C5          1.1906    3.1835    0.0638 C.ar      1 <0>        -0.0480
      6 C6          2.4048    3.8876    0.0684 C.ar      1 <0>        -0.1056
      7 C7          1.1669    1.7729    0.0550 C.ar      1 <0>        -0.0991
      8 C8         -0.0025    1.0928    0.0510 C.ar      1 <0>        -0.1030
      9 C9         -1.2416    1.7579    0.0497 C.ar      1 <0>        -0.0463
     10 C10        -1.2891    3.1648    0.0638 C.ar      1 <0>        -0.0141
     11 C11        -2.5180    3.8438    0.0682 C.ar      1 <0>        -0.1183
     12 C12        -3.7017    3.1729    0.0640 C.ar      1 <0>         0.1499
     13 C13        -3.7203    1.7128    0.0541 C.ar      1 <0>        -0.0534
     14 C14        -2.4974    1.0038    0.0493 C.ar      1 <0>        -0.0208
     15 C15        -2.5103   -0.3937    0.0398 C.ar      1 <0>        -0.1012
     16 C16        -3.7030   -1.0581    0.0361 C.ar      1 <0>        -0.1091
     17 C17        -4.9067   -0.3623    0.0407 C.ar      1 <0>        -0.1098
     18 C18        -4.9269    1.0019    0.0496 C.ar      1 <0>        -0.1092
     19 N1         -4.9031    3.8832    0.0687 N.am      1 <0>        -0.6495
     20 C19        -4.9450    5.1396   -0.4172 C.2       1 <0>         0.5067
     21 O1         -3.9654    5.6169   -0.9498 O.2       1 <0>        -0.4684
     22 C20        -6.2091    5.9515   -0.2988 C.3       1 <0>         0.0241
     23 Cl1        -6.7203    6.0191    1.4289 Cl        1 <0>        -0.0989
     24 Cl2        -5.9082    7.6236   -0.9024 Cl        1 <0>        -0.0731
     25 H1          3.3313    5.7894    0.0820 H         1 <0>         0.1253
     26 H2          1.2153    7.0377    0.0905 H         1 <0>         0.1260
     27 H3         -0.9244    5.8625    0.0814 H         1 <0>         0.1298
     28 H4          3.3425    3.3518    0.0652 H         1 <0>         0.1293
     29 H5          2.0986    1.2265    0.0509 H         1 <0>         0.1299
     30 H6          0.0159    0.0130    0.0442 H         1 <0>         0.1281
     31 H7         -2.5239    4.9238    0.0756 H         1 <0>         0.1533
     32 H8         -1.5817   -0.9452    0.0354 H         1 <0>         0.1332
     33 H9         -3.7116   -2.1381    0.0290 H         1 <0>         0.1289
     34 H10        -5.8382   -0.9089    0.0370 H         1 <0>         0.1282
     35 H11        -5.8685    1.5308    0.0535 H         1 <0>         0.1227
     36 H12        -5.7079    3.4725    0.4217 H         1 <0>         0.4159
     37 H13        -6.9963    5.4869   -0.8926 H         1 <0>         0.1626
@<TRIPOS>BOND
     1    1    6 ar
     2    1    2 ar
     3    1   25 1
     4    2    3 ar
     5    2   26 1
     6    3    4 ar
     7    3   27 1
     8    4   10 ar
     9    4    5 ar
    10    5    6 ar
    11    5    7 ar
    12    6   28 1
    13    7    8 ar
    14    7   29 1
    15    8    9 ar
    16    8   30 1
    17    9   14 ar
    18    9   10 ar
    19   10   11 ar
    20   11   12 ar
    21   11   31 1
    22   12   13 ar
    23   12   19 1
    24   13   18 ar
    25   13   14 ar
    26   14   15 ar
    27   15   16 ar
    28   15   32 1
    29   16   17 ar
    30   16   33 1
    31   17   18 ar
    32   17   34 1
    33   18   35 1
    34   19   20 am
    35   19   36 1
    36   20   21 2
    37   20   22 1
    38   22   23 1
    39   22   24 1
    40   22   37 1
