@<TRIPOS>MOLECULE
ZINC19364229
   52    54     0     0     0
SMALL
USER_CHARGES

@<TRIPOS>ATOM
      1 C1          6.5838    1.7354   -2.0449 C.ar      1 <0>        -0.1107
      2 C2          6.6402    1.5890   -0.6715 C.ar      1 <0>        -0.1163
      3 C3          5.7105    0.7987   -0.0219 C.ar      1 <0>        -0.1082
      4 C4          4.7241    0.1552   -0.7456 C.ar      1 <0>        -0.0914
      5 C5          4.6671    0.3024   -2.1190 C.ar      1 <0>        -0.0934
      6 C6          5.5977    1.0915   -2.7687 C.ar      1 <0>        -0.1225
      7 C7          3.7112   -0.7071   -0.0376 C.3       1 <0>         0.1743
      8 H1          4.0605   -0.9234    0.9720 H         1 <0>         0.0708
      9 C8          2.3932    0.0203    0.0319 C.ar      1 <0>        -0.0842
     10 C9          1.5996    0.1215   -1.0955 C.ar      1 <0>        -0.0811
     11 C10         0.3907    0.7885   -1.0324 C.ar      1 <0>        -0.1132
     12 C11        -0.0252    1.3549    0.1595 C.ar      1 <0>        -0.0286
     13 C12         0.7695    1.2532    1.2874 C.ar      1 <0>        -0.1076
     14 C13         1.9756    0.5811    1.2245 C.ar      1 <0>        -0.0960
     15 Cl1        -1.5432    2.1933    0.2394 Cl        1 <0>        -0.0629
     16 N1          3.5378   -1.9653   -0.7758 N.3       1 <0>        -0.5298
     17 C14         2.5169   -2.8115   -0.1418 C.3       1 <0>         0.0222
     18 C15         2.3244   -4.0823   -0.9724 C.3       1 <0>         0.0017
     19 N2          3.5990   -4.8067   -1.0618 N.4       1 <0>        -0.3864
     20 C16         4.6016   -3.9580   -1.7191 C.3       1 <0>        -0.0032
     21 C17         4.8130   -2.6862   -0.8947 C.3       1 <0>         0.0253
     22 C18         3.4096   -6.0357   -1.8439 C.3       1 <0>         0.0041
     23 C19         4.7036   -6.8519   -1.8326 C.3       1 <0>         0.0167
     24 O1          4.9787   -7.2902   -0.5006 O.3       1 <0>        -0.3695
     25 C20         6.1728   -8.0657   -0.3788 C.3       1 <0>        -0.0010
     26 C21         6.3633   -8.4720    1.0598 C.2       1 <0>         0.4965
     27 O2          5.5518   -8.1293    1.9027 O.co2     1 <0>        -0.6775
     28 O3          7.3291   -9.1434    1.3809 O.co2     1 <0>        -0.6784
     29 H2          7.3074    2.3565   -2.5519 H         1 <0>         0.1239
     30 H3          7.4108    2.0918   -0.1060 H         1 <0>         0.1254
     31 H4          5.7550    0.6838    1.0511 H         1 <0>         0.1218
     32 H5          3.8967   -0.2007   -2.6845 H         1 <0>         0.1274
     33 H6          5.5534    1.2062   -3.8417 H         1 <0>         0.1236
     34 H7          1.9245   -0.3203   -2.0259 H         1 <0>         0.1377
     35 H8         -0.2290    0.8679   -1.9133 H         1 <0>         0.1350
     36 H9          0.4455    1.6953    2.2180 H         1 <0>         0.1366
     37 H10         2.5937    0.4975    2.1061 H         1 <0>         0.1321
     38 H11         2.8403   -3.0799    0.8639 H         1 <0>         0.0657
     39 H12         1.5747   -2.2661   -0.0878 H         1 <0>         0.1233
     40 H13         1.5779   -4.7179   -0.4962 H         1 <0>         0.1355
     41 H14         1.9879   -3.8142   -1.9739 H         1 <0>         0.1340
     42 H15         5.5432   -4.5015   -1.7965 H         1 <0>         0.1351
     43 H16         4.2534   -3.6906   -2.7167 H         1 <0>         0.1344
     44 H17         5.5460   -2.0494   -1.3900 H         1 <0>         0.1243
     45 H18         5.1743   -2.9525    0.0986 H         1 <0>         0.0662
     46 H19         2.6044   -6.6250   -1.4053 H         1 <0>         0.1376
     47 H20         3.1524   -5.7767   -2.8710 H         1 <0>         0.1358
     48 H21         4.5924   -7.7184   -2.4845 H         1 <0>         0.0876
     49 H22         5.5270   -6.2327   -2.1887 H         1 <0>         0.0629
     50 H23         6.0920   -8.9573   -1.0005 H         1 <0>         0.0560
     51 H24         7.0266   -7.4716   -0.7047 H         1 <0>         0.0519
     52 H25         3.9163   -5.0446   -0.1339 H         1 <0>         0.4362
@<TRIPOS>BOND
     1    1    6 ar
     2    1    2 ar
     3    1   29 1
     4    2    3 ar
     5    2   30 1
     6    3    4 ar
     7    3   31 1
     8    4    5 ar
     9    4    7 1
    10    5    6 ar
    11    5   32 1
    12    6   33 1
    13    7    8 1
    14    7    9 1
    15    7   16 1
    16    9   14 ar
    17    9   10 ar
    18   10   11 ar
    19   10   34 1
    20   11   12 ar
    21   11   35 1
    22   12   13 ar
    23   12   15 1
    24   13   14 ar
    25   13   36 1
    26   14   37 1
    27   16   21 1
    28   16   17 1
    29   17   18 1
    30   17   38 1
    31   17   39 1
    32   18   19 1
    33   18   40 1
    34   18   41 1
    35   19   20 1
    36   19   22 1
    37   19   52 1
    38   20   21 1
    39   20   42 1
    40   20   43 1
    41   21   44 1
    42   21   45 1
    43   22   23 1
    44   22   46 1
    45   22   47 1
    46   23   24 1
    47   23   48 1
    48   23   49 1
    49   24   25 1
    50   25   26 1
    51   25   50 1
    52   25   51 1
    53   26   27 2
    54   26   28 1
@<TRIPOS>MOLECULE
ZINC19364229
   52    54     0     0     0
SMALL
USER_CHARGES

@<TRIPOS>ATOM
      1 C1         -0.0167    1.3781    0.0096 C.ar      1 <0>        -0.0938
      2 C2          1.1709    2.0855    0.0021 C.ar      1 <0>        -0.1039
      3 C3          2.3773    1.4107   -0.0130 C.ar      1 <0>        -0.0846
      4 C4          2.3960    0.0285   -0.0201 C.ar      1 <0>        -0.1289
      5 C5          1.2084   -0.6789   -0.0117 C.ar      1 <0>        -0.1207
      6 C6          0.0021   -0.0041    0.0020 C.ar      1 <0>        -0.1038
      7 C7          3.7112   -0.7071   -0.0376 C.3       1 <0>         0.1307
      8 H1          4.4960   -0.0399   -0.3940 H         1 <0>         0.1535
      9 C8          4.0438   -1.1746    1.3559 C.ar      1 <0>        -0.1230
     10 C9          3.4553   -2.3197    1.8594 C.ar      1 <0>        -0.1076
     11 C10         3.7599   -2.7490    3.1374 C.ar      1 <0>        -0.0962
     12 C11         4.6540   -2.0325    3.9128 C.ar      1 <0>        -0.0164
     13 C12         5.2427   -0.8866    3.4084 C.ar      1 <0>        -0.0964
     14 C13         4.9415   -0.4614    2.1282 C.ar      1 <0>        -0.0716
     15 Cl1         5.0367   -2.5708    5.5182 Cl        1 <0>        -0.0442
     16 N1          3.6112   -1.8677   -0.9326 N.4       1 <0>        -0.3824
     17 C14         4.8926   -2.5855   -0.9481 C.3       1 <0>        -0.0053
     18 C15         4.7832   -3.8052   -1.8657 C.3       1 <0>         0.0318
     19 N2          4.4330   -3.3636   -3.2231 N.3       1 <0>        -0.5227
     20 C16         3.1643   -2.6216   -3.2195 C.3       1 <0>         0.0268
     21 C17         3.2871   -1.4117   -2.2908 C.3       1 <0>        -0.0033
     22 C18         4.3739   -4.5029   -4.1485 C.3       1 <0>         0.0634
     23 C19         4.2557   -3.9880   -5.5844 C.3       1 <0>         0.0513
     24 O1          5.4449   -3.2774   -5.9351 O.3       1 <0>        -0.3439
     25 C20         5.4375   -2.7520   -7.2639 C.3       1 <0>        -0.0031
     26 C21         6.7324   -2.0264   -7.5244 C.2       1 <0>         0.4973
     27 O2          7.5828   -1.9651   -6.6529 O.co2     1 <0>        -0.6762
     28 O3          6.9297   -1.5009   -8.6067 O.co2     1 <0>        -0.6917
     29 H2         -0.9591    1.9053    0.0259 H         1 <0>         0.1345
     30 H3          1.1563    3.1654    0.0076 H         1 <0>         0.1368
     31 H4          3.3051    1.9634   -0.0196 H         1 <0>         0.1349
     32 H5          1.2231   -1.7588   -0.0176 H         1 <0>         0.1142
     33 H6         -0.9258   -0.5567    0.0082 H         1 <0>         0.1340
     34 H7          2.7571   -2.8788    1.2541 H         1 <0>         0.1242
     35 H8          3.2998   -3.6435    3.5307 H         1 <0>         0.1450
     36 H9          5.9405   -0.3266    4.0133 H         1 <0>         0.1476
     37 H10         5.4046    0.4305    1.7325 H         1 <0>         0.1449
     38 H11         5.6758   -1.9229   -1.3163 H         1 <0>         0.1445
     39 H12         5.1384   -2.9120    0.0624 H         1 <0>         0.1326
     40 H13         5.7385   -4.3296   -1.8890 H         1 <0>         0.1260
     41 H14         4.0094   -4.4747   -1.4901 H         1 <0>         0.0529
     42 H15         2.9384   -2.2826   -4.2306 H         1 <0>         0.1263
     43 H16         2.3638   -3.2716   -2.8662 H         1 <0>         0.0536
     44 H17         2.3425   -0.8679   -2.2757 H         1 <0>         0.1338
     45 H18         4.0785   -0.7551   -2.6521 H         1 <0>         0.1444
     46 H19         5.2814   -5.0987   -4.0497 H         1 <0>         0.0976
     47 H20         3.5069   -5.1194   -3.9110 H         1 <0>         0.0530
     48 H21         4.1227   -4.8308   -6.2628 H         1 <0>         0.0514
     49 H22         3.3975   -3.3205   -5.6616 H         1 <0>         0.0377
     50 H23         5.3290   -3.5690   -7.9771 H         1 <0>         0.0441
     51 H24         4.6038   -2.0588   -7.3759 H         1 <0>         0.0411
     52 H25         2.8844   -2.4849   -0.6028 H         1 <0>         0.4098
@<TRIPOS>BOND
     1    1    6 ar
     2    1    2 ar
     3    1   29 1
     4    2    3 ar
     5    2   30 1
     6    3    4 ar
     7    3   31 1
     8    4    5 ar
     9    4    7 1
    10    5    6 ar
    11    5   32 1
    12    6   33 1
    13    7    8 1
    14    7    9 1
    15    7   16 1
    16    9   14 ar
    17    9   10 ar
    18   10   11 ar
    19   10   34 1
    20   11   12 ar
    21   11   35 1
    22   12   13 ar
    23   12   15 1
    24   13   14 ar
    25   13   36 1
    26   14   37 1
    27   16   21 1
    28   16   17 1
    29   16   52 1
    30   17   18 1
    31   17   38 1
    32   17   39 1
    33   18   19 1
    34   18   40 1
    35   18   41 1
    36   19   20 1
    37   19   22 1
    38   20   21 1
    39   20   42 1
    40   20   43 1
    41   21   44 1
    42   21   45 1
    43   22   23 1
    44   22   46 1
    45   22   47 1
    46   23   24 1
    47   23   48 1
    48   23   49 1
    49   24   25 1
    50   25   26 1
    51   25   50 1
    52   25   51 1
    53   26   27 2
    54   26   28 1
@<TRIPOS>MOLECULE
ZINC19364229
   51    53     0     0     0
SMALL
USER_CHARGES

@<TRIPOS>ATOM
      1 C1          6.5912    1.7379   -2.0312 C.ar      1 <0>        -0.1201
      2 C2          6.6450    1.5865   -0.6583 C.ar      1 <0>        -0.1210
      3 C3          5.7129    0.7954   -0.0131 C.ar      1 <0>        -0.1114
      4 C4          4.7267    0.1561   -0.7408 C.ar      1 <0>        -0.0735
      5 C5          4.6724    0.3082   -2.1137 C.ar      1 <0>        -0.0888
      6 C6          5.6053    1.0982   -2.7590 C.ar      1 <0>        -0.1250
      7 C7          3.7112   -0.7071   -0.0376 C.3       1 <0>         0.1625
      8 H1          4.0570   -0.9251    0.9729 H         1 <0>         0.0613
      9 C8          2.3931    0.0205    0.0286 C.ar      1 <0>        -0.0653
     10 C9          1.6019    0.1210   -1.1005 C.ar      1 <0>        -0.0767
     11 C10         0.3930    0.7882   -1.0405 C.ar      1 <0>        -0.1145
     12 C11        -0.0253    1.3555    0.1500 C.ar      1 <0>        -0.0345
     13 C12         0.7669    1.2545    1.2798 C.ar      1 <0>        -0.1109
     14 C13         1.9731    0.5822    1.2199 C.ar      1 <0>        -0.0996
     15 Cl1        -1.5434    2.1941    0.2261 Cl        1 <0>        -0.0764
     16 N1          3.5400   -1.9641   -0.7783 N.3       1 <0>        -0.5277
     17 C14         2.5171   -2.8110   -0.1492 C.3       1 <0>         0.0560
     18 C15         2.3125   -4.0714   -0.9930 C.3       1 <0>         0.0629
     19 N2          3.5884   -4.7911   -1.1110 N.3       1 <0>        -0.5250
     20 C16         4.6113   -3.9442   -1.7402 C.3       1 <0>         0.0598
     21 C17         4.8158   -2.6838   -0.8963 C.3       1 <0>         0.0581
     22 C18         3.4172   -6.0481   -1.8518 C.3       1 <0>         0.0645
     23 C19         4.6945   -6.8831   -1.7415 C.3       1 <0>         0.0561
     24 O1          4.8943   -7.2705   -0.3807 O.3       1 <0>        -0.3413
     25 C20         6.0670   -8.0586   -0.1669 C.3       1 <0>        -0.0020
     26 C21         6.1776   -8.4084    1.2947 C.2       1 <0>         0.4980
     27 O2          5.3307   -8.0190    2.0806 O.co2     1 <0>        -0.6734
     28 O3          7.1140   -9.0809    1.6914 O.co2     1 <0>        -0.7012
     29 H2          7.3167    2.3596   -2.5348 H         1 <0>         0.1186
     30 H3          7.4155    2.0860   -0.0897 H         1 <0>         0.1206
     31 H4          5.7554    0.6766    1.0595 H         1 <0>         0.1199
     32 H5          3.9021   -0.1915   -2.6823 H         1 <0>         0.1279
     33 H6          5.5631    1.2168   -3.8317 H         1 <0>         0.1198
     34 H7          1.9288   -0.3216   -2.0299 H         1 <0>         0.1384
     35 H8         -0.2249    0.8670   -1.9228 H         1 <0>         0.1316
     36 H9          0.4411    1.6975    2.2093 H         1 <0>         0.1322
     37 H10         2.5894    0.4992    2.1028 H         1 <0>         0.1305
     38 H11         2.8436   -3.0927    0.8519 H         1 <0>         0.0488
     39 H12         1.5785   -2.2605   -0.0845 H         1 <0>         0.0791
     40 H13         1.5751   -4.7148   -0.5130 H         1 <0>         0.0800
     41 H14         1.9599   -3.7912   -1.9856 H         1 <0>         0.0361
     42 H15         5.5498   -4.4947   -1.8049 H         1 <0>         0.0809
     43 H16         4.2848   -3.6625   -2.7413 H         1 <0>         0.0361
     44 H17         5.5532   -2.0404   -1.3764 H         1 <0>         0.0800
     45 H18         5.1684   -2.9640    0.0963 H         1 <0>         0.0488
     46 H19         2.5807   -6.6064   -1.4315 H         1 <0>         0.0829
     47 H20         3.2166   -5.8275   -2.9002 H         1 <0>         0.0407
     48 H21         4.6011   -7.7737   -2.3629 H         1 <0>         0.0405
     49 H22         5.5454   -6.2917   -2.0797 H         1 <0>         0.0376
     50 H23         6.0021   -8.9737   -0.7556 H         1 <0>         0.0389
     51 H24         6.9464   -7.4917   -0.4724 H         1 <0>         0.0392
@<TRIPOS>BOND
     1    1    6 ar
     2    1    2 ar
     3    1   29 1
     4    2    3 ar
     5    2   30 1
     6    3    4 ar
     7    3   31 1
     8    4    5 ar
     9    4    7 1
    10    5    6 ar
    11    5   32 1
    12    6   33 1
    13    7    8 1
    14    7    9 1
    15    7   16 1
    16    9   14 ar
    17    9   10 ar
    18   10   11 ar
    19   10   34 1
    20   11   12 ar
    21   11   35 1
    22   12   13 ar
    23   12   15 1
    24   13   14 ar
    25   13   36 1
    26   14   37 1
    27   16   21 1
    28   16   17 1
    29   17   18 1
    30   17   38 1
    31   17   39 1
    32   18   19 1
    33   18   40 1
    34   18   41 1
    35   19   20 1
    36   19   22 1
    37   20   21 1
    38   20   42 1
    39   20   43 1
    40   21   44 1
    41   21   45 1
    42   22   23 1
    43   22   46 1
    44   22   47 1
    45   23   24 1
    46   23   48 1
    47   23   49 1
    48   24   25 1
    49   25   26 1
    50   25   50 1
    51   25   51 1
    52   26   27 2
    53   26   28 1
@<TRIPOS>MOLECULE
ZINC19364230
   52    54     0     0     0
SMALL
USER_CHARGES

@<TRIPOS>ATOM
      1 C1          7.1006    1.9749    1.2595 C.ar      1 <0>        -0.1109
      2 C2          7.1296    1.6479   -0.0833 C.ar      1 <0>        -0.1164
      3 C3          6.2125    0.7495   -0.5959 C.ar      1 <0>        -0.1084
      4 C4          5.2666    0.1778    0.2344 C.ar      1 <0>        -0.0910
      5 C5          5.2381    0.5042    1.5774 C.ar      1 <0>        -0.0938
      6 C6          6.1544    1.4036    2.0897 C.ar      1 <0>        -0.1223
      7 C7          4.2661   -0.8007   -0.3246 C.3       1 <0>         0.1743
      8 H1          4.5900   -1.1267   -1.3130 H         1 <0>         0.0708
      9 C8          2.9183   -0.1352   -0.4318 C.ar      1 <0>        -0.0847
     10 C9          2.1639    0.0845    0.7056 C.ar      1 <0>        -0.0804
     11 C10         0.9276    0.6948    0.6080 C.ar      1 <0>        -0.1135
     12 C11         0.4453    1.0860   -0.6283 C.ar      1 <0>        -0.0282
     13 C12         1.2008    0.8659   -1.7663 C.ar      1 <0>        -0.1077
     14 C13         2.4394    0.2606   -1.6667 C.ar      1 <0>        -0.0957
     15 Cl1        -1.1076    1.8522   -0.7518 Cl        1 <0>        -0.0629
     16 N1          4.1683   -1.9641    0.5670 N.3       1 <0>        -0.5297
     17 C14         3.1882   -2.9351    0.0603 C.3       1 <0>         0.0239
     18 C15         3.0729   -4.1004    1.0454 C.3       1 <0>        -0.0027
     19 N2          4.3856   -4.7404    1.2028 N.4       1 <0>        -0.3865
     20 C16         5.3475   -3.7650    1.7327 C.3       1 <0>         0.0017
     21 C17         5.4817   -2.5969    0.7532 C.3       1 <0>         0.0236
     22 C18         4.2706   -5.8702    2.1347 C.3       1 <0>         0.0043
     23 C19         3.3954   -6.9590    1.5106 C.3       1 <0>         0.0168
     24 O1          4.0336   -7.4696    0.3384 O.3       1 <0>        -0.3700
     25 C20         3.2950   -8.4977   -0.3245 C.3       1 <0>        -0.0010
     26 C21         4.0570   -8.9597   -1.5398 C.2       1 <0>         0.4967
     27 O2          5.1328   -8.4552   -1.8129 O.co2     1 <0>        -0.6778
     28 O3          3.5976   -9.8378   -2.2499 O.co2     1 <0>        -0.6781
     29 H2          7.8199    2.6733    1.6609 H         1 <0>         0.1238
     30 H3          7.8686    2.0945   -0.7320 H         1 <0>         0.1253
     31 H4          6.2347    0.4946   -1.6451 H         1 <0>         0.1219
     32 H5          4.4989    0.0578    2.2260 H         1 <0>         0.1275
     33 H6          6.1319    1.6588    3.1389 H         1 <0>         0.1237
     34 H7          2.5403   -0.2213    1.6706 H         1 <0>         0.1374
     35 H8          0.3381    0.8661    1.4966 H         1 <0>         0.1350
     36 H9          0.8247    1.1708   -2.7316 H         1 <0>         0.1368
     37 H10         3.0314    0.0930   -2.5543 H         1 <0>         0.1321
     38 H11         2.2175   -2.4507   -0.0453 H         1 <0>         0.1229
     39 H12         3.5155   -3.3098   -0.9096 H         1 <0>         0.0666
     40 H13         2.7325   -3.7272    2.0113 H         1 <0>         0.1344
     41 H14         2.3569   -4.8287    0.6645 H         1 <0>         0.1348
     42 H15         4.9954   -3.3935    2.6951 H         1 <0>         0.1338
     43 H16         6.3178   -4.2446    1.8613 H         1 <0>         0.1354
     44 H17         5.8467   -2.9661   -0.2052 H         1 <0>         0.0654
     45 H18         6.1842   -1.8658    1.1532 H         1 <0>         0.1246
     46 H19         5.2619   -6.2742    2.3400 H         1 <0>         0.1373
     47 H20         3.8174   -5.5288    3.0654 H         1 <0>         0.1357
     48 H21         3.2537   -7.7670    2.2283 H         1 <0>         0.0876
     49 H22         2.4267   -6.5372    1.2424 H         1 <0>         0.0628
     50 H23         3.1512   -9.3376    0.3552 H         1 <0>         0.0561
     51 H24         2.3243   -8.1078   -0.6308 H         1 <0>         0.0520
     52 H25         4.7058   -5.0755    0.3065 H         1 <0>         0.4365
@<TRIPOS>BOND
     1    1    6 ar
     2    1    2 ar
     3    1   29 1
     4    2    3 ar
     5    2   30 1
     6    3    4 ar
     7    3   31 1
     8    4    5 ar
     9    4    7 1
    10    5    6 ar
    11    5   32 1
    12    6   33 1
    13    7    8 1
    14    7    9 1
    15    7   16 1
    16    9   14 ar
    17    9   10 ar
    18   10   11 ar
    19   10   34 1
    20   11   12 ar
    21   11   35 1
    22   12   13 ar
    23   12   15 1
    24   13   14 ar
    25   13   36 1
    26   14   37 1
    27   16   21 1
    28   16   17 1
    29   17   18 1
    30   17   38 1
    31   17   39 1
    32   18   19 1
    33   18   40 1
    34   18   41 1
    35   19   20 1
    36   19   22 1
    37   19   52 1
    38   20   21 1
    39   20   42 1
    40   20   43 1
    41   21   44 1
    42   21   45 1
    43   22   23 1
    44   22   46 1
    45   22   47 1
    46   23   24 1
    47   23   48 1
    48   23   49 1
    49   24   25 1
    50   25   26 1
    51   25   50 1
    52   25   51 1
    53   26   27 2
    54   26   28 1
@<TRIPOS>MOLECULE
ZINC19364230
   52    54     0     0     0
SMALL
USER_CHARGES

@<TRIPOS>ATOM
      1 C1          0.2441    2.1500    1.0851 C.ar      1 <0>        -0.0940
      2 C2          1.4939    2.7339    0.9954 C.ar      1 <0>        -0.1039
      3 C3          2.6102    1.9476    0.7797 C.ar      1 <0>        -0.0846
      4 C4          2.4768    0.5775    0.6541 C.ar      1 <0>        -0.1285
      5 C5          1.2272   -0.0065    0.7448 C.ar      1 <0>        -0.1206
      6 C6          0.1107    0.7799    0.9591 C.ar      1 <0>        -0.1037
      7 C7          3.6937   -0.2796    0.4180 C.3       1 <0>         0.1307
      8 H1          4.5870    0.2661    0.7221 H         1 <0>         0.1535
      9 C8          3.7893   -0.6237   -1.0461 C.ar      1 <0>        -0.1238
     10 C9          3.0093   -1.6378   -1.5698 C.ar      1 <0>        -0.1073
     11 C10         3.0966   -1.9539   -2.9125 C.ar      1 <0>        -0.0965
     12 C11         3.9647   -1.2552   -3.7324 C.ar      1 <0>        -0.0162
     13 C12         4.7451   -0.2404   -3.2076 C.ar      1 <0>        -0.0966
     14 C13         4.6528    0.0786   -1.8660 C.ar      1 <0>        -0.0713
     15 Cl1         4.0752   -1.6520   -5.4188 Cl        1 <0>        -0.0441
     16 N1          3.5828   -1.5149    1.2052 N.4       1 <0>        -0.3822
     17 C14         4.7682   -2.3508    0.9734 C.3       1 <0>        -0.0048
     18 C15         4.6444   -3.6462    1.7786 C.3       1 <0>         0.0283
     19 N2          4.5238   -3.3221    3.2071 N.3       1 <0>        -0.5233
     20 C16         3.3552   -2.4648    3.4511 C.3       1 <0>         0.0328
     21 C17         3.4897   -1.1792    2.6321 C.3       1 <0>        -0.0043
     22 C18         4.4596   -4.5437    4.0205 C.3       1 <0>         0.0631
     23 C19         5.8560   -5.1599    4.1264 C.3       1 <0>         0.0542
     24 O1          6.7168   -4.2694    4.8391 O.3       1 <0>        -0.3446
     25 C20         8.0526   -4.7525    4.9947 C.3       1 <0>        -0.0026
     26 C21         8.8678   -3.7391    5.7561 C.2       1 <0>         0.4976
     27 O2          8.3525   -2.6996    6.1308 O.co2     1 <0>        -0.6771
     28 O3         10.0425   -3.9589    5.9975 O.co2     1 <0>        -0.6919
     29 H2         -0.6275    2.7638    1.2581 H         1 <0>         0.1344
     30 H3          1.5981    3.8043    1.0935 H         1 <0>         0.1367
     31 H4          3.5866    2.4039    0.7089 H         1 <0>         0.1349
     32 H5          1.1229   -1.0769    0.6464 H         1 <0>         0.1143
     33 H6         -0.8657    0.3237    1.0295 H         1 <0>         0.1340
     34 H7          2.3319   -2.1834   -0.9296 H         1 <0>         0.1243
     35 H8          2.4874   -2.7464   -3.3215 H         1 <0>         0.1450
     36 H9          5.4232    0.3052   -3.8471 H         1 <0>         0.1477
     37 H10         5.2584    0.8739   -1.4572 H         1 <0>         0.1449
     38 H11         4.8434   -2.5884   -0.0877 H         1 <0>         0.1324
     39 H12         5.6609   -1.8108    1.2890 H         1 <0>         0.1444
     40 H13         3.7592   -4.1931    1.4538 H         1 <0>         0.0539
     41 H14         5.5307   -4.2601    1.6185 H         1 <0>         0.1241
     42 H15         2.4488   -2.9923    3.1538 H         1 <0>         0.0527
     43 H16         3.3011   -2.2168    4.5111 H         1 <0>         0.1270
     44 H17         4.3889   -0.6452    2.9391 H         1 <0>         0.1444
     45 H18         2.6171   -0.5481    2.8006 H         1 <0>         0.1340
     46 H19         4.0944   -4.2975    5.0176 H         1 <0>         0.0952
     47 H20         3.7822   -5.2573    3.5514 H         1 <0>         0.0552
     48 H21         5.7947   -6.1094    4.6584 H         1 <0>         0.0501
     49 H22         6.2554   -5.3288    3.1264 H         1 <0>         0.0374
     50 H23         8.0370   -5.6934    5.5446 H         1 <0>         0.0436
     51 H24         8.4977   -4.9129    4.0127 H         1 <0>         0.0414
     52 H25         2.7557   -2.0196    0.9239 H         1 <0>         0.4098
@<TRIPOS>BOND
     1    1    6 ar
     2    1    2 ar
     3    1   29 1
     4    2    3 ar
     5    2   30 1
     6    3    4 ar
     7    3   31 1
     8    4    5 ar
     9    4    7 1
    10    5    6 ar
    11    5   32 1
    12    6   33 1
    13    7    8 1
    14    7    9 1
    15    7   16 1
    16    9   14 ar
    17    9   10 ar
    18   10   11 ar
    19   10   34 1
    20   11   12 ar
    21   11   35 1
    22   12   13 ar
    23   12   15 1
    24   13   14 ar
    25   13   36 1
    26   14   37 1
    27   16   21 1
    28   16   17 1
    29   16   52 1
    30   17   18 1
    31   17   38 1
    32   17   39 1
    33   18   19 1
    34   18   40 1
    35   18   41 1
    36   19   20 1
    37   19   22 1
    38   20   21 1
    39   20   42 1
    40   20   43 1
    41   21   44 1
    42   21   45 1
    43   22   23 1
    44   22   46 1
    45   22   47 1
    46   23   24 1
    47   23   48 1
    48   23   49 1
    49   24   25 1
    50   25   26 1
    51   25   50 1
    52   25   51 1
    53   26   27 2
    54   26   28 1
@<TRIPOS>MOLECULE
ZINC19364230
   51    53     0     0     0
SMALL
USER_CHARGES

@<TRIPOS>ATOM
      1 C1          7.2854    1.9516    1.2585 C.ar      1 <0>        -0.1202
      2 C2          7.2598    1.6346   -0.0868 C.ar      1 <0>        -0.1212
      3 C3          6.3151    0.7488   -0.5704 C.ar      1 <0>        -0.1114
      4 C4          5.3962    0.1798    0.2914 C.ar      1 <0>        -0.0728
      5 C5          5.4223    0.4961    1.6368 C.ar      1 <0>        -0.0883
      6 C6          6.3662    1.3829    2.1202 C.ar      1 <0>        -0.1250
      7 C7          4.3657   -0.7851   -0.2359 C.3       1 <0>         0.1624
      8 H1          4.6445   -1.1010   -1.2412 H         1 <0>         0.0613
      9 C8          3.0194   -0.1092   -0.2771 C.ar      1 <0>        -0.0658
     10 C9          2.3144    0.0986    0.8938 C.ar      1 <0>        -0.0773
     11 C10         1.0796    0.7184    0.8566 C.ar      1 <0>        -0.1145
     12 C11         0.5491    1.1310   -0.3527 C.ar      1 <0>        -0.0345
     13 C12         1.2551    0.9228   -1.5242 C.ar      1 <0>        -0.1106
     14 C13         2.4923    0.3079   -1.4851 C.ar      1 <0>        -0.0995
     15 Cl1        -1.0020    1.9091   -0.4002 Cl        1 <0>        -0.0762
     16 N1          4.2976   -1.9587    0.6450 N.3       1 <0>        -0.5274
     17 C14         3.2491   -2.8887    0.2032 C.3       1 <0>         0.0562
     18 C15         3.1570   -4.0554    1.1895 C.3       1 <0>         0.0610
     19 N2          4.4591   -4.7323    1.2664 N.3       1 <0>        -0.5251
     20 C16         5.5077   -3.8023    1.7083 C.3       1 <0>         0.0638
     21 C17         5.5997   -2.6356    0.7219 C.3       1 <0>         0.0577
     22 C18         4.3911   -5.9059    2.1473 C.3       1 <0>         0.0640
     23 C19         3.6793   -7.0487    1.4204 C.3       1 <0>         0.0590
     24 O1          4.4519   -7.4458    0.2857 O.3       1 <0>        -0.3414
     25 C20         3.8724   -8.5132   -0.4672 C.3       1 <0>        -0.0018
     26 C21         4.7661   -8.8481   -1.6336 C.2       1 <0>         0.4982
     27 O2          5.8030   -8.2299   -1.8042 O.co2     1 <0>        -0.6738
     28 O3          4.4521   -9.7371   -2.4065 O.co2     1 <0>        -0.7014
     29 H2          8.0263    2.6401    1.6370 H         1 <0>         0.1185
     30 H3          7.9778    2.0792   -0.7601 H         1 <0>         0.1205
     31 H4          6.2947    0.5017   -1.6215 H         1 <0>         0.1200
     32 H5          4.7042    0.0517    2.3101 H         1 <0>         0.1276
     33 H6          6.3863    1.6303    3.1713 H         1 <0>         0.1197
     34 H7          2.7285   -0.2239    1.8377 H         1 <0>         0.1383
     35 H8          0.5288    0.8803    1.7714 H         1 <0>         0.1316
     36 H9          0.8413    1.2444   -2.4685 H         1 <0>         0.1324
     37 H10         3.0456    0.1496   -2.3990 H         1 <0>         0.1306
     38 H11         2.2925   -2.3674    0.1662 H         1 <0>         0.0788
     39 H12         3.4947   -3.2693   -0.7883 H         1 <0>         0.0486
     40 H13         2.8847   -3.6777    2.1751 H         1 <0>         0.0365
     41 H14         2.3998   -4.7612    0.8482 H         1 <0>         0.0783
     42 H15         5.2620   -3.4218    2.6997 H         1 <0>         0.0357
     43 H16         6.4642   -4.3236    1.7452 H         1 <0>         0.0811
     44 H17         5.8720   -3.0133   -0.2636 H         1 <0>         0.0492
     45 H18         6.3569   -1.9298    1.0632 H         1 <0>         0.0800
     46 H19         5.4005   -6.2184    2.4149 H         1 <0>         0.0809
     47 H20         3.8383   -5.6502    3.0513 H         1 <0>         0.0431
     48 H21         3.5664   -7.8954    2.0974 H         1 <0>         0.0396
     49 H22         2.6960   -6.7131    1.0910 H         1 <0>         0.0361
     50 H23         3.7635   -9.3903    0.1706 H         1 <0>         0.0385
     51 H24         2.8931   -8.2080   -0.8358 H         1 <0>         0.0391
@<TRIPOS>BOND
     1    1    6 ar
     2    1    2 ar
     3    1   29 1
     4    2    3 ar
     5    2   30 1
     6    3    4 ar
     7    3   31 1
     8    4    5 ar
     9    4    7 1
    10    5    6 ar
    11    5   32 1
    12    6   33 1
    13    7    8 1
    14    7    9 1
    15    7   16 1
    16    9   14 ar
    17    9   10 ar
    18   10   11 ar
    19   10   34 1
    20   11   12 ar
    21   11   35 1
    22   12   13 ar
    23   12   15 1
    24   13   14 ar
    25   13   36 1
    26   14   37 1
    27   16   21 1
    28   16   17 1
    29   17   18 1
    30   17   38 1
    31   17   39 1
    32   18   19 1
    33   18   40 1
    34   18   41 1
    35   19   20 1
    36   19   22 1
    37   20   21 1
    38   20   42 1
    39   20   43 1
    40   21   44 1
    41   21   45 1
    42   22   23 1
    43   22   46 1
    44   22   47 1
    45   23   24 1
    46   23   48 1
    47   23   49 1
    48   24   25 1
    49   25   26 1
    50   25   50 1
    51   25   51 1
    52   26   27 2
    53   26   28 1
@<TRIPOS>MOLECULE
ZINC53166256
   43    46     0     0     0
SMALL
USER_CHARGES

@<TRIPOS>ATOM
      1 C1         -0.0645    1.4412   -0.3732 C.3       1 <0>         0.0245
      2 N1         -0.0216   -0.0161   -0.1927 N.3       1 <0>        -0.5427
      3 C2          0.3881   -0.6883   -1.4329 C.3       1 <0>         0.0399
      4 C3          0.2462   -2.2042   -1.2592 C.3       1 <0>         0.1270
      5 N2          0.9912   -2.6085   -0.0572 N.pl3     1 <0>        -0.5934
      6 C4          0.7333   -1.8856    1.1973 C.3       1 <0>         0.1156
      7 C5          0.8560   -0.3822    0.9269 C.3       1 <0>         0.0395
      8 C6          1.9059   -3.6360   -0.1053 C.2       1 <0>         0.5356
      9 N3          2.1874   -4.1476   -1.2567 N.2       1 <0>        -0.6206
     10 C7          2.9530   -5.2310   -1.5577 C.ar      1 <0>         0.1701
     11 C8          2.4830   -6.1190   -2.5335 C.ar      1 <0>        -0.1161
     12 C9          3.2327   -7.2189   -2.8990 C.ar      1 <0>        -0.1046
     13 C10         4.4585   -7.4578   -2.3086 C.ar      1 <0>        -0.1308
     14 C11         4.9338   -6.5952   -1.3330 C.ar      1 <0>        -0.1099
     15 C12         4.1849   -5.4996   -0.9492 C.ar      1 <0>         0.0928
     16 N4          4.6603   -4.6750    0.0974 N.pl3     1 <0>        -0.6675
     17 C13         3.8314   -4.5378    1.1992 C.2       1 <0>         0.0941
     18 C14         2.5165   -4.0886    1.1665 C.2       1 <0>        -0.2204
     19 C15         1.8382   -4.1107    2.4492 C.2       1 <0>        -0.0854
     20 C16         2.5687   -4.5058    3.5084 C.2       1 <0>        -0.1956
     21 S1          4.1544   -4.8614    2.8004 S.3       1 <0>         0.1912
     22 C17         2.1405   -4.6249    4.9484 C.3       1 <0>         0.1641
     23 O1          1.6299   -5.9381    5.1865 O.3       1 <0>        -0.5666
     24 H1          0.9395    1.8113   -0.5807 H         1 <0>         0.0253
     25 H2         -0.7212    1.6847   -1.2084 H         1 <0>         0.0709
     26 H3         -0.4436    1.9089    0.5355 H         1 <0>         0.0707
     27 H4         -0.2467   -0.3553   -2.2540 H         1 <0>         0.0875
     28 H5          1.4271   -0.4432   -1.6533 H         1 <0>         0.0376
     29 H6         -0.8063   -2.4623   -1.1417 H         1 <0>         0.0713
     30 H7          0.6556   -2.7127   -2.1321 H         1 <0>         0.1047
     31 H8         -0.2724   -2.1131    1.5509 H         1 <0>         0.0773
     32 H9          1.4647   -2.1834    1.9486 H         1 <0>         0.0976
     33 H10         1.8885   -0.1414    0.6736 H         1 <0>         0.0377
     34 H11         0.5606    0.1728    1.8173 H         1 <0>         0.0886
     35 H12         1.5267   -5.9420   -3.0033 H         1 <0>         0.1272
     36 H13         2.8583   -7.8974   -3.6513 H         1 <0>         0.1261
     37 H14         5.0449   -8.3146   -2.6060 H         1 <0>         0.1266
     38 H15         5.8924   -6.7804   -0.8713 H         1 <0>         0.1236
     39 H16         5.5203   -4.2292    0.0463 H         1 <0>         0.4183
     40 H17         0.8015   -3.8247    2.5488 H         1 <0>         0.1460
     41 H18         2.9969   -4.4447    5.5982 H         1 <0>         0.0639
     42 H19         1.3639   -3.8895    5.1585 H         1 <0>         0.0718
     43 H20         1.3347   -6.0866    6.0953 H         1 <0>         0.3866
@<TRIPOS>BOND
     1    1    2 1
     2    1   24 1
     3    1   25 1
     4    1   26 1
     5    2    7 1
     6    2    3 1
     7    3    4 1
     8    3   27 1
     9    3   28 1
    10    4    5 1
    11    4   29 1
    12    4   30 1
    13    5    6 1
    14    5    8 1
    15    6    7 1
    16    6   31 1
    17    6   32 1
    18    7   33 1
    19    7   34 1
    20    8   18 1
    21    8    9 2
    22    9   10 1
    23   10   15 ar
    24   10   11 ar
    25   11   12 ar
    26   11   35 1
    27   12   13 ar
    28   12   36 1
    29   13   14 ar
    30   13   37 1
    31   14   15 ar
    32   14   38 1
    33   15   16 1
    34   16   17 1
    35   16   39 1
    36   17   21 1
    37   17   18 2
    38   18   19 1
    39   19   20 2
    40   19   40 1
    41   20   21 1
    42   20   22 1
    43   22   23 1
    44   22   41 1
    45   22   42 1
    46   23   43 1
@<TRIPOS>MOLECULE
ZINC53166256
   44    47     0     0     0
SMALL
USER_CHARGES

@<TRIPOS>ATOM
      1 C1         -0.0503    1.4404   -0.3738 C.3       1 <0>        -0.0468
      2 N1         -0.0137   -0.0159   -0.1846 N.4       1 <0>        -0.3851
      3 C2          0.4926   -0.6538   -1.4064 C.3       1 <0>        -0.0215
      4 C3          0.4236   -2.1768   -1.2526 C.3       1 <0>         0.1009
      5 N2          1.1441   -2.5548   -0.0269 N.pl3     1 <0>        -0.6150
      6 C4          0.8123   -1.8460    1.2187 C.3       1 <0>         0.0891
      7 C5          0.8630   -0.3387    0.9482 C.3       1 <0>        -0.0221
      8 C6          2.1011   -3.5439   -0.0451 C.2       1 <0>         0.5271
      9 N3          2.4417   -4.0411   -1.1867 N.2       1 <0>        -0.5934
     10 C7          3.2607   -5.0916   -1.4627 C.ar      1 <0>         0.1438
     11 C8          2.8603   -5.9960   -2.4544 C.ar      1 <0>        -0.1034
     12 C9          3.6662   -7.0636   -2.7954 C.ar      1 <0>        -0.1053
     13 C10         4.8803   -7.2535   -2.1643 C.ar      1 <0>        -0.1121
     14 C11         5.2869   -6.3742   -1.1727 C.ar      1 <0>        -0.1118
     15 C12         4.4814   -5.3110   -0.8134 C.ar      1 <0>         0.1053
     16 N4          4.8874   -4.4699    0.2491 N.pl3     1 <0>        -0.6685
     17 C13         4.0171   -4.3690    1.3226 C.2       1 <0>         0.0970
     18 C14         2.6868   -3.9739    1.2462 C.2       1 <0>        -0.2330
     19 C15         1.9674   -4.0264    2.5054 C.2       1 <0>        -0.1010
     20 C16         2.6776   -4.3936    3.5882 C.2       1 <0>        -0.1858
     21 S1          4.2994   -4.6826    2.9336 S.3       1 <0>         0.2189
     22 C17         2.2067   -4.5331    5.0129 C.3       1 <0>         0.1600
     23 O1          1.7425   -5.8666    5.2328 O.3       1 <0>        -0.5661
     24 H1          0.9563    1.8058   -0.5769 H         1 <0>         0.1210
     25 H2         -0.7009    1.6813   -1.2145 H         1 <0>         0.1255
     26 H3         -0.4336    1.9146    0.5297 H         1 <0>         0.1251
     27 H4         -0.1168   -0.3464   -2.2563 H         1 <0>         0.1423
     28 H5          1.5267   -0.3518   -1.5724 H         1 <0>         0.1313
     29 H6         -0.6176   -2.4904   -1.1769 H         1 <0>         0.0891
     30 H7          0.8911   -2.6535   -2.1141 H         1 <0>         0.1420
     31 H8         -0.1896   -2.1263    1.5440 H         1 <0>         0.0942
     32 H9          1.5369   -2.1040    1.9911 H         1 <0>         0.1380
     33 H10         1.8859   -0.0462    0.7110 H         1 <0>         0.1319
     34 H11         0.5265    0.2010    1.8334 H         1 <0>         0.1434
     35 H12         1.9139   -5.8573   -2.9558 H         1 <0>         0.1292
     36 H13         3.3452   -7.7553   -3.5603 H         1 <0>         0.1323
     37 H14         5.5108   -8.0849   -2.4425 H         1 <0>         0.1334
     38 H15         6.2363   -6.5211   -0.6793 H         1 <0>         0.1295
     39 H16         5.7296   -3.9892    0.2272 H         1 <0>         0.4219
     40 H17         0.9172   -3.7832    2.5704 H         1 <0>         0.1434
     41 H18         3.0327   -4.3194    5.6912 H         1 <0>         0.0672
     42 H19         1.3940   -3.8304    5.1974 H         1 <0>         0.0714
     43 H20         1.4234   -6.0289    6.1311 H         1 <0>         0.3916
     44 H21        -0.9456   -0.3526    0.0063 H         1 <0>         0.4248
@<TRIPOS>BOND
     1    1    2 1
     2    1   24 1
     3    1   25 1
     4    1   26 1
     5    2    7 1
     6    2    3 1
     7    2   44 1
     8    3    4 1
     9    3   27 1
    10    3   28 1
    11    4    5 1
    12    4   29 1
    13    4   30 1
    14    5    6 1
    15    5    8 1
    16    6    7 1
    17    6   31 1
    18    6   32 1
    19    7   33 1
    20    7   34 1
    21    8   18 1
    22    8    9 2
    23    9   10 1
    24   10   15 ar
    25   10   11 ar
    26   11   12 ar
    27   11   35 1
    28   12   13 ar
    29   12   36 1
    30   13   14 ar
    31   13   37 1
    32   14   15 ar
    33   14   38 1
    34   15   16 1
    35   16   17 1
    36   16   39 1
    37   17   21 1
    38   17   18 2
    39   18   19 1
    40   19   20 2
    41   19   40 1
    42   20   21 1
    43   20   22 1
    44   22   23 1
    45   22   41 1
    46   22   42 1
    47   23   43 1
@<TRIPOS>MOLECULE
ZINC01249433
   37    38     0     0     0
SMALL
USER_CHARGES

@<TRIPOS>ATOM
      1 C1          0.9656    2.2263    0.1786 C.3       1 <0>        -0.0537
      2 N1          0.5697    0.8433    0.4764 N.4       1 <0>        -0.3871
      3 C2         -0.8223    0.8226    0.9452 C.3       1 <0>        -0.0478
      4 C3          0.6891    0.0273   -0.7393 C.3       1 <0>        -0.0050
      5 C4          2.1588   -0.0534   -1.1571 C.3       1 <0>        -0.0176
      6 C5          2.9410   -0.7926   -0.1022 C.ar      1 <0>        -0.1235
      7 C6          4.0798   -0.2253    0.4383 C.ar      1 <0>        -0.1103
      8 C7          4.7973   -0.9034    1.4059 C.ar      1 <0>        -0.1093
      9 C8          4.3758   -2.1487    1.8332 C.ar      1 <0>        -0.1028
     10 C9          3.2365   -2.7156    1.2933 C.ar      1 <0>        -0.1094
     11 C10         2.5166   -2.0356    0.3289 C.ar      1 <0>        -0.1196
     12 C11         2.2685   -0.7859   -2.4695 C.ar      1 <0>        -0.0936
     13 C12         1.6693   -2.0222   -2.6231 C.ar      1 <0>        -0.1155
     14 C13         1.7700   -2.6941   -3.8270 C.ar      1 <0>        -0.1120
     15 C14         2.4693   -2.1296   -4.8773 C.ar      1 <0>        -0.1050
     16 C15         3.0676   -0.8929   -4.7239 C.ar      1 <0>        -0.1110
     17 C16         2.9634   -0.2191   -3.5215 C.ar      1 <0>        -0.1048
     18 H1          1.9985    2.2417   -0.1693 H         1 <0>         0.1226
     19 H2          0.3151    2.6316   -0.5964 H         1 <0>         0.1247
     20 H3          0.8770    2.8318    1.0807 H         1 <0>         0.1261
     21 H4         -1.4728    1.2279    0.1702 H         1 <0>         0.1237
     22 H5         -1.1160   -0.2036    1.1661 H         1 <0>         0.1230
     23 H6         -0.9109    1.4281    1.8473 H         1 <0>         0.1257
     24 H7          0.3119   -0.9761   -0.5419 H         1 <0>         0.1321
     25 H8          0.1079    0.4827   -1.5411 H         1 <0>         0.1380
     26 H9          2.5607    0.9537   -1.2684 H         1 <0>         0.1075
     27 H10         4.4091    0.7475    0.1044 H         1 <0>         0.1265
     28 H11         5.6874   -0.4605    1.8277 H         1 <0>         0.1316
     29 H12         4.9368   -2.6788    2.5887 H         1 <0>         0.1313
     30 H13         2.9073   -3.6886    1.6270 H         1 <0>         0.1308
     31 H14         1.6244   -2.4769   -0.0903 H         1 <0>         0.1244
     32 H15         1.1230   -2.4632   -1.8026 H         1 <0>         0.1202
     33 H16         1.3025   -3.6603   -3.9468 H         1 <0>         0.1288
     34 H17         2.5485   -2.6549   -5.8176 H         1 <0>         0.1297
     35 H18         3.6143   -0.4521   -5.5444 H         1 <0>         0.1301
     36 H19         3.4277    0.7488   -3.4028 H         1 <0>         0.1247
     37 H20         1.1719    0.4681    1.1938 H         1 <0>         0.4267
@<TRIPOS>BOND
     1    1    2 1
     2    1   18 1
     3    1   19 1
     4    1   20 1
     5    2    3 1
     6    2    4 1
     7    2   37 1
     8    3   21 1
     9    3   22 1
    10    3   23 1
    11    4    5 1
    12    4   24 1
    13    4   25 1
    14    5    6 1
    15    5   12 1
    16    5   26 1
    17    6   11 ar
    18    6    7 ar
    19    7    8 ar
    20    7   27 1
    21    8    9 ar
    22    8   28 1
    23    9   10 ar
    24    9   29 1
    25   10   11 ar
    26   10   30 1
    27   11   31 1
    28   12   17 ar
    29   12   13 ar
    30   13   14 ar
    31   13   32 1
    32   14   15 ar
    33   14   33 1
    34   15   16 ar
    35   15   34 1
    36   16   17 ar
    37   16   35 1
    38   17   36 1
@<TRIPOS>MOLECULE
ZINC35857039
   45    47     0     0     0
SMALL
USER_CHARGES

@<TRIPOS>ATOM
      1 C1         -1.1868    0.8283    0.5807 C.3       1 <0>        -0.1547
      2 C2         -0.0787    0.0000   -0.0728 C.3       1 <0>         0.0097
      3 H1         -0.5204   -0.8430   -0.6041 H         1 <0>         0.0990
      4 C3          0.6856    0.8615   -1.0448 C.ar      1 <0>         0.1337
      5 C4          0.8303    2.2128   -0.7925 C.ar      1 <0>        -0.1699
      6 C5          1.5352    2.9965   -1.6929 C.ar      1 <0>        -0.0743
      7 C6          2.0707    2.3889   -2.8186 C.ar      1 <0>        -0.1690
      8 C7          1.8852    1.0322   -3.0041 C.ar      1 <0>         0.1034
      9 N1          1.2132    0.3165   -2.1233 N.ar      1 <0>        -0.4835
     10 C8          0.8592   -0.5117    0.9900 C.2       1 <0>        -0.0505
     11 C9          2.2563   -0.1033    0.9962 C.ar      1 <0>        -0.0919
     12 C10         2.9309    0.7599    0.1005 C.ar      1 <0>        -0.1003
     13 C11         4.2534    1.0312    0.2603 C.ar      1 <0>        -0.1212
     14 C12         4.9878    0.4768    1.3003 C.ar      1 <0>        -0.0781
     15 C13         4.3661   -0.3701    2.1959 C.ar      1 <0>        -0.0838
     16 C14         3.0255   -0.6534    2.0443 C.ar      1 <0>        -0.1009
     17 S1          1.8628   -1.6562    2.9331 S.3       1 <0>         0.0471
     18 C15         0.4140   -1.3434    1.9427 C.2       1 <0>        -0.1698
     19 C16        -0.9794   -1.8858    2.1307 C.3       1 <0>        -0.0665
     20 C17        -1.1652   -3.1281    1.2572 C.3       1 <0>        -0.0120
     21 N2         -2.5235   -3.6568    1.4405 N.4       1 <0>        -0.3867
     22 C18        -2.7422   -4.7762    0.5147 C.3       1 <0>        -0.0477
     23 C19        -2.6837   -4.1265    2.8231 C.3       1 <0>        -0.0549
     24 H2         -0.7413    1.6103    1.1956 H         1 <0>         0.0712
     25 H3         -1.8052    1.2827   -0.1933 H         1 <0>         0.0736
     26 H4         -1.8032    0.1818    1.2053 H         1 <0>         0.0668
     27 H5          0.3993    2.6527    0.0948 H         1 <0>         0.1396
     28 H6          1.6640    4.0550   -1.5220 H         1 <0>         0.1422
     29 H7          2.6254    2.9688   -3.5414 H         1 <0>         0.1431
     30 H8          2.2990    0.5515   -3.8782 H         1 <0>         0.1623
     31 H9          2.3892    1.2080   -0.7194 H         1 <0>         0.1531
     32 H10         4.7443    1.6929   -0.4380 H         1 <0>         0.1282
     33 H11         6.0377    0.7062    1.4075 H         1 <0>         0.1399
     34 H12         4.9260   -0.8082    3.0089 H         1 <0>         0.1360
     35 H13        -1.1275   -2.1520    3.1773 H         1 <0>         0.1044
     36 H14        -1.7067   -1.1268    1.8425 H         1 <0>         0.1149
     37 H15        -1.0171   -2.8618    0.2107 H         1 <0>         0.1354
     38 H16        -0.4379   -3.8871    1.5455 H         1 <0>         0.1359
     39 H17        -2.0156   -5.5629    0.7177 H         1 <0>         0.1231
     40 H18        -3.7500   -5.1685    0.6507 H         1 <0>         0.1263
     41 H19        -2.6233   -4.4278   -0.5113 H         1 <0>         0.1244
     42 H20        -2.5214   -3.2959    3.5101 H         1 <0>         0.1245
     43 H21        -3.6915   -4.5188    2.9591 H         1 <0>         0.1267
     44 H22        -1.9571   -4.9132    3.0261 H         1 <0>         0.1242
     45 H23        -3.1961   -2.9286    1.2525 H         1 <0>         0.4269
@<TRIPOS>BOND
     1    1    2 1
     2    1   24 1
     3    1   25 1
     4    1   26 1
     5    2    3 1
     6    2    4 1
     7    2   10 1
     8    4    9 ar
     9    4    5 ar
    10    5    6 ar
    11    5   27 1
    12    6    7 ar
    13    6   28 1
    14    7    8 ar
    15    7   29 1
    16    8    9 ar
    17    8   30 1
    18   10   18 2
    19   10   11 1
    20   11   16 ar
    21   11   12 ar
    22   12   13 ar
    23   12   31 1
    24   13   14 ar
    25   13   32 1
    26   14   15 ar
    27   14   33 1
    28   15   16 ar
    29   15   34 1
    30   16   17 1
    31   17   18 1
    32   18   19 1
    33   19   20 1
    34   19   35 1
    35   19   36 1
    36   20   21 1
    37   20   37 1
    38   20   38 1
    39   21   22 1
    40   21   23 1
    41   21   45 1
    42   22   39 1
    43   22   40 1
    44   22   41 1
    45   23   42 1
    46   23   43 1
    47   23   44 1
@<TRIPOS>MOLECULE
ZINC00596712
   46    49     0     0     0
SMALL
USER_CHARGES
1-[4-(chloroBLAHylidene)-1-piperidyl]ethanone
@<TRIPOS>ATOM
      1 C1          5.2433   -3.5248    4.5784 C.3       1 <0>        -0.1808
      2 C2          4.3511   -4.3678    3.7040 C.2       1 <0>         0.5132
      3 O1          4.5184   -5.5676    3.6449 O.2       1 <0>        -0.5455
      4 N1          3.3674   -3.7885    2.9878 N.am      1 <0>        -0.6137
      5 C3          2.4147   -4.6122    2.2325 C.3       1 <0>         0.1148
      6 C4          2.4706   -4.2026    0.7553 C.3       1 <0>        -0.1097
      7 C5          2.3592   -2.6961    0.6722 C.2       1 <0>        -0.0506
      8 C6          1.4389   -2.1188   -0.1099 C.2       1 <0>        -0.0651
      9 C7          0.4349   -2.9654   -0.7936 C.ar      1 <0>        -0.0285
     10 C8          0.8125   -3.9327   -1.7205 C.ar      1 <0>        -0.0876
     11 C9         -0.1656   -4.7069   -2.3169 C.ar      1 <0>        -0.1115
     12 C10        -1.4967   -4.5122   -1.9889 C.ar      1 <0>        -0.0311
     13 C11        -1.8624   -3.5437   -1.0693 C.ar      1 <0>        -0.1050
     14 C12        -0.8850   -2.7639   -0.4719 C.ar      1 <0>        -0.0591
     15 C13        -1.2691   -1.7076    0.5171 C.3       1 <0>        -0.0785
     16 C14        -1.1147   -0.3104   -0.0200 C.3       1 <0>        -0.0682
     17 C15         0.3060    0.1287   -0.2575 C.ar      1 <0>        -0.1103
     18 C16         1.4466   -0.6486   -0.2728 C.ar      1 <0>         0.1754
     19 N2          2.6485   -0.0884   -0.4573 N.ar      1 <0>        -0.4749
     20 C17         2.8096    1.1990   -0.6526 C.ar      1 <0>         0.1038
     21 C18         1.7118    2.0399   -0.6679 C.ar      1 <0>        -0.1711
     22 C19         0.4545    1.5064   -0.4648 C.ar      1 <0>        -0.0845
     23 Cl1        -2.7188   -5.4917   -2.7377 Cl        1 <0>        -0.0686
     24 C20         3.3172   -1.8578    1.4898 C.3       1 <0>        -0.0959
     25 C21         3.2361   -2.3262    2.9533 C.3       1 <0>         0.1019
     26 H1          4.8823   -2.4963    4.5814 H         1 <0>         0.0826
     27 H2          5.2312   -3.9171    5.5953 H         1 <0>         0.0959
     28 H3          6.2617   -3.5512    4.1909 H         1 <0>         0.0958
     29 H4          1.4077   -4.4526    2.6180 H         1 <0>         0.0694
     30 H5          2.6807   -5.6647    2.3302 H         1 <0>         0.0978
     31 H6          1.6426   -4.6621    0.2154 H         1 <0>         0.0908
     32 H7          3.4167   -4.5251    0.3206 H         1 <0>         0.0863
     33 H8          1.8535   -4.0766   -1.9697 H         1 <0>         0.1370
     34 H9          0.1084   -5.4626   -3.0382 H         1 <0>         0.1369
     35 H10        -2.9027   -3.3971   -0.8190 H         1 <0>         0.1366
     36 H11        -0.6434   -1.8134    1.4034 H         1 <0>         0.0781
     37 H12        -2.3097   -1.8599    0.8035 H         1 <0>         0.0822
     38 H13        -1.5745    0.3815    0.6856 H         1 <0>         0.0855
     39 H14        -1.6570   -0.2432   -0.9631 H         1 <0>         0.0798
     40 H15         3.8003    1.6023   -0.8019 H         1 <0>         0.1598
     41 H16         1.8362    3.0993   -0.8366 H         1 <0>         0.1358
     42 H17        -0.4133    2.1493   -0.4702 H         1 <0>         0.1337
     43 H18         4.3322   -1.9898    1.1148 H         1 <0>         0.0858
     44 H19         3.0345   -0.8072    1.4230 H         1 <0>         0.0934
     45 H20         2.2763   -2.0353    3.3802 H         1 <0>         0.0708
     46 H21         4.0454   -1.8730    3.5258 H         1 <0>         0.0971
@<TRIPOS>BOND
     1    1    2 1
     2    1   26 1
     3    1   27 1
     4    1   28 1
     5    2    3 2
     6    2    4 am
     7    4   25 1
     8    4    5 1
     9    5    6 1
    10    5   29 1
    11    5   30 1
    12    6    7 1
    13    6   31 1
    14    6   32 1
    15    7    8 2
    16    7   24 1
    17    8   18 1
    18    8    9 1
    19    9   14 ar
    20    9   10 ar
    21   10   11 ar
    22   10   33 1
    23   11   12 ar
    24   11   34 1
    25   12   13 ar
    26   12   23 1
    27   13   14 ar
    28   13   35 1
    29   14   15 1
    30   15   16 1
    31   15   36 1
    32   15   37 1
    33   16   17 1
    34   16   38 1
    35   16   39 1
    36   17   22 ar
    37   17   18 ar
    38   18   19 ar
    39   19   20 ar
    40   20   21 ar
    41   20   40 1
    42   21   22 ar
    43   21   41 1
    44   22   42 1
    45   24   25 1
    46   24   43 1
    47   24   44 1
    48   25   45 1
    49   25   46 1
@<TRIPOS>MOLECULE
ZINC00006157
   35    38     0     0     0
SMALL
USER_CHARGES

@<TRIPOS>ATOM
      1 C1         -0.0165    1.3692    0.0096 C.ar      1 <0>        -0.0974
      2 C2          1.1790    2.0645    0.0019 C.ar      1 <0>        -0.1042
      3 C3          2.3606    1.3636   -0.0383 C.ar      1 <0>        -0.1159
      4 C4          2.3823   -0.0351   -0.0554 C.ar      1 <0>        -0.1129
      5 C5          1.2046   -0.7251   -0.0050 C.ar      1 <0>        -0.0524
      6 C6          0.0021   -0.0041    0.0020 C.ar      1 <0>        -0.1159
      7 C7          1.0264   -2.2044    0.1084 C.3       1 <0>        -0.0513
      8 C8          1.8107   -3.0316   -0.8557 C.ar      1 <0>        -0.0543
      9 C9          1.1842   -3.8049   -1.8132 C.ar      1 <0>        -0.0952
     10 C10         1.9355   -4.6202   -2.6401 C.ar      1 <0>        -0.0843
     11 C11         3.3112   -4.6696   -2.5058 C.ar      1 <0>        -0.1013
     12 C12         3.9445   -3.8747   -1.5698 C.ar      1 <0>        -0.1067
     13 C13         3.1936   -3.0257   -0.7684 C.ar      1 <0>         0.0947
     14 N1          3.8201   -2.0705    0.0290 N.pl3     1 <0>        -0.5190
     15 C14         3.7550   -0.6312   -0.1656 C.3       1 <0>         0.1707
     16 H1          4.1908   -0.3718   -1.1304 H         1 <0>         0.1321
     17 C15         4.6448   -0.0681    0.9629 C.3       1 <0>         0.0789
     18 N2          5.0933   -1.2676    1.6846 N.pl3     1 <0>        -0.6478
     19 C16         4.6065   -2.3282    1.1266 C.cat     1 <0>         0.7172
     20 N3          4.8535   -3.5991    1.5897 N.pl3     1 <0>        -0.8015
     21 H2         -0.9562    1.9014    0.0259 H         1 <0>         0.1349
     22 H3          1.1840    3.1442    0.0268 H         1 <0>         0.1365
     23 H4          3.2946    1.9056   -0.0576 H         1 <0>         0.1294
     24 H5         -0.9340   -0.5427    0.0015 H         1 <0>         0.1296
     25 H6          1.3043   -2.5042    1.1188 H         1 <0>         0.0858
     26 H7         -0.0307   -2.4315   -0.0297 H         1 <0>         0.0961
     27 H8          0.1095   -3.7733   -1.9158 H         1 <0>         0.1424
     28 H9          1.4463   -5.2205   -3.3930 H         1 <0>         0.1417
     29 H10         3.8910   -5.3300   -3.1335 H         1 <0>         0.1425
     30 H11         5.0184   -3.9140   -1.4620 H         1 <0>         0.1330
     31 H12         5.4968    0.4695    0.5468 H         1 <0>         0.1309
     32 H13         4.0654    0.5802    1.6202 H         1 <0>         0.1289
     33 H14         4.4655   -4.3642    1.1369 H         1 <0>         0.4389
     34 H15         5.4157   -3.7306    2.3691 H         1 <0>         0.4389
     35 H16         5.6696   -1.2644    2.4648 H         1 <0>         0.4567
@<TRIPOS>BOND
     1    1    6 ar
     2    1    2 ar
     3    1   21 1
     4    2    3 ar
     5    2   22 1
     6    3    4 ar
     7    3   23 1
     8    4   15 1
     9    4    5 ar
    10    5    6 ar
    11    5    7 1
    12    6   24 1
    13    7    8 1
    14    7   25 1
    15    7   26 1
    16    8   13 ar
    17    8    9 ar
    18    9   10 ar
    19    9   27 1
    20   10   11 ar
    21   10   28 1
    22   11   12 ar
    23   11   29 1
    24   12   13 ar
    25   12   30 1
    26   13   14 1
    27   14   19 1
    28   14   15 1
    29   15   16 1
    30   15   17 1
    31   17   18 1
    32   17   31 1
    33   17   32 1
    34   18   19 2
    35   18   35 1
    36   19   20 1
    37   20   33 1
    38   20   34 1
@<TRIPOS>MOLECULE
ZINC01999487
   35    38     0     0     0
SMALL
USER_CHARGES

@<TRIPOS>ATOM
      1 C1         -0.0165    1.3692    0.0096 C.ar      1 <0>        -0.0974
      2 C2          1.1790    2.0645    0.0019 C.ar      1 <0>        -0.1041
      3 C3          2.3611    1.3633    0.0120 C.ar      1 <0>        -0.1159
      4 C4          2.3830   -0.0355    0.0128 C.ar      1 <0>        -0.1129
      5 C5          1.2044   -0.7250   -0.0226 C.ar      1 <0>        -0.0524
      6 C6          0.0021   -0.0041    0.0020 C.ar      1 <0>        -0.1159
      7 C7          1.0239   -2.2029   -0.1493 C.3       1 <0>        -0.0513
      8 C8          1.8268   -3.0410    0.7898 C.ar      1 <0>        -0.0543
      9 C9          1.2189   -3.8252    1.7504 C.ar      1 <0>        -0.0952
     10 C10         1.9861   -4.6498    2.5533 C.ar      1 <0>        -0.0842
     11 C11         3.3590   -4.6971    2.3919 C.ar      1 <0>        -0.1013
     12 C12         3.9740   -3.8919    1.4526 C.ar      1 <0>        -0.1067
     13 C13         3.2077   -3.0339    0.6757 C.ar      1 <0>         0.0947
     14 N1          3.8186   -2.0697   -0.1229 N.pl3     1 <0>        -0.5190
     15 C14         3.7575   -0.6327    0.0894 C.3       1 <0>         0.1707
     16 H1          4.2121   -0.3842    1.0484 H         1 <0>         0.1321
     17 C15         4.6252   -0.0566   -1.0498 C.3       1 <0>         0.0789
     18 N2          5.0594   -1.2478   -1.7937 N.pl3     1 <0>        -0.6478
     19 C16         4.5835   -2.3147   -1.2384 C.cat     1 <0>         0.7172
     20 N3          4.8212   -3.5802   -1.7207 N.pl3     1 <0>        -0.8015
     21 H2         -0.9562    1.9014    0.0259 H         1 <0>         0.1349
     22 H3          1.1837    3.1444   -0.0123 H         1 <0>         0.1365
     23 H4          3.2953    1.9052    0.0192 H         1 <0>         0.1294
     24 H5         -0.9339   -0.5428    0.0154 H         1 <0>         0.1296
     25 H6         -0.0303   -2.4317    0.0068 H         1 <0>         0.0961
     26 H7          1.2821   -2.4912   -1.1683 H         1 <0>         0.0859
     27 H8          0.1466   -3.7944    1.8748 H         1 <0>         0.1424
     28 H9          1.5116   -5.2584    3.3088 H         1 <0>         0.1417
     29 H10         3.9510   -5.3641    3.0011 H         1 <0>         0.1425
     30 H11         5.0455   -3.9301    1.3232 H         1 <0>         0.1330
     31 H12         4.0332    0.5991   -1.6882 H         1 <0>         0.1289
     32 H13         5.4852    0.4764   -0.6442 H         1 <0>         0.1309
     33 H14         4.4420   -4.3505   -1.2692 H         1 <0>         0.4389
     34 H15         5.3681   -3.7027   -2.5124 H         1 <0>         0.4389
     35 H16         5.6205   -1.2356   -2.5849 H         1 <0>         0.4567
@<TRIPOS>BOND
     1    1    6 ar
     2    1    2 ar
     3    1   21 1
     4    2    3 ar
     5    2   22 1
     6    3    4 ar
     7    3   23 1
     8    4   15 1
     9    4    5 ar
    10    5    6 ar
    11    5    7 1
    12    6   24 1
    13    7    8 1
    14    7   25 1
    15    7   26 1
    16    8   13 ar
    17    8    9 ar
    18    9   10 ar
    19    9   27 1
    20   10   11 ar
    21   10   28 1
    22   11   12 ar
    23   11   29 1
    24   12   13 ar
    25   12   30 1
    26   13   14 1
    27   14   19 1
    28   14   15 1
    29   15   16 1
    30   15   17 1
    31   17   18 1
    32   17   31 1
    33   17   32 1
    34   18   19 2
    35   18   35 1
    36   19   20 1
    37   20   33 1
    38   20   34 1
@<TRIPOS>MOLECULE
ZINC22055590
   40    43     0     0     0
SMALL
USER_CHARGES
2-methyl-4-piperazin-1-yl-10H-thieno[2,3-b][1,5]benzodiazepine
@<TRIPOS>ATOM
      1 C1          2.9000    6.4909    5.1733 C.3       1 <0>        -0.0794
      2 C2          2.5815    5.9866    3.7894 C.2       1 <0>        -0.1487
      3 C3          1.6183    6.4056    2.9486 C.2       1 <0>        -0.1359
      4 C4          1.5178    5.7559    1.6564 C.2       1 <0>        -0.2219
      5 C5          2.4395    4.7328    1.4394 C.2       1 <0>         0.1326
      6 S1          3.3891    4.6898    2.8707 S.3       1 <0>         0.1175
      7 N1          2.5084    3.9288    0.3158 N.pl3     1 <0>        -0.6794
      8 C6          1.3322    3.2144   -0.0160 C.ar      1 <0>         0.1140
      9 C7          1.3818    1.8365   -0.0931 C.ar      1 <0>        -0.1132
     10 C8          0.2296    1.1109   -0.3542 C.ar      1 <0>        -0.1125
     11 C9         -0.9694    1.7704   -0.5428 C.ar      1 <0>        -0.1069
     12 C10        -1.0287    3.1477   -0.4744 C.ar      1 <0>        -0.1040
     13 C11         0.1275    3.8975   -0.2233 C.ar      1 <0>         0.1419
     14 N2          0.0194    5.2532   -0.2098 N.2       1 <0>        -0.5947
     15 C12         0.5397    6.1123    0.6013 C.2       1 <0>         0.5251
     16 N3          0.1661    7.4315    0.4793 N.pl3     1 <0>        -0.6143
     17 C13        -0.9003    7.8310   -0.4516 C.3       1 <0>         0.0945
     18 C14        -0.3858    8.9721   -1.3278 C.3       1 <0>        -0.0147
     19 N4          0.1296   10.0500   -0.4732 N.4       1 <0>        -0.5347
     20 C15         1.2772    9.5959    0.3235 C.3       1 <0>        -0.0188
     21 C16         0.8267    8.4796    1.2719 C.3       1 <0>         0.0827
     22 H1          2.2045    7.3011    5.4374 H         1 <0>         0.0840
     23 H2          3.9319    6.8713    5.1964 H         1 <0>         0.0821
     24 H3          2.7962    5.6683    5.8962 H         1 <0>         0.0829
     25 H4          0.9422    7.2004    3.2271 H         1 <0>         0.1391
     26 H5          3.4417    3.8721   -0.2636 H         1 <0>         0.4455
     27 H6          2.3208    1.3226    0.0501 H         1 <0>         0.1291
     28 H7          0.2702    0.0334   -0.4145 H         1 <0>         0.1328
     29 H8         -1.8675    1.2043   -0.7411 H         1 <0>         0.1317
     30 H9         -1.9729    3.6514   -0.6202 H         1 <0>         0.1285
     31 H10        -1.1776    6.9729   -1.0815 H         1 <0>         0.1410
     32 H11        -1.7789    8.1660    0.1193 H         1 <0>         0.0882
     33 H12         0.4208    8.6008   -1.9770 H         1 <0>         0.1293
     34 H13        -1.2082    9.3572   -1.9486 H         1 <0>         0.1436
     35 H14         0.4513   10.8938   -1.1013 H         1 <0>         0.4556
     36 H15         2.0613    9.2147   -0.3472 H         1 <0>         0.1293
     37 H16         1.6735   10.4385    0.9091 H         1 <0>         0.1449
     38 H17         0.1191    8.8797    2.0130 H         1 <0>         0.0936
     39 H18         1.6982    8.0530    1.7901 H         1 <0>         0.1398
     40 H19        -0.6625   10.3846    0.2128 H         1 <0>         0.4497
@<TRIPOS>BOND
     1    1    2 1
     2    1   22 1
     3    1   23 1
     4    1   24 1
     5    2    6 1
     6    2    3 2
     7    3    4 1
     8    3   25 1
     9    4   15 1
    10    4    5 2
    11    5    6 1
    12    5    7 1
    13    7    8 1
    14    7   26 1
    15    8   13 ar
    16    8    9 ar
    17    9   10 ar
    18    9   27 1
    19   10   11 ar
    20   10   28 1
    21   11   12 ar
    22   11   29 1
    23   12   13 ar
    24   12   30 1
    25   13   14 1
    26   14   15 2
    27   15   16 1
    28   16   21 1
    29   16   17 1
    30   17   18 1
    31   17   31 1
    32   17   32 1
    33   18   19 1
    34   18   33 1
    35   18   34 1
    36   19   20 1
    37   19   35 1
    38   19   40 1
    39   20   21 1
    40   20   36 1
    41   20   37 1
    42   21   38 1
    43   21   39 1
@<TRIPOS>MOLECULE
ZINC22055590
   39    42     0     0     0
SMALL
USER_CHARGES
2-methyl-4-piperazin-1-yl-10H-thieno[2,3-b][1,5]benzodiazepine
@<TRIPOS>ATOM
      1 C1          2.9000    6.4909    5.1733 C.3       1 <0>        -0.0731
      2 C2          2.5815    5.9866    3.7894 C.2       1 <0>        -0.1595
      3 C3          1.6183    6.4056    2.9486 C.2       1 <0>        -0.1197
      4 C4          1.5178    5.7559    1.6564 C.2       1 <0>        -0.2090
      5 C5          2.4395    4.7328    1.4394 C.2       1 <0>         0.1289
      6 S1          3.3891    4.6898    2.8707 S.3       1 <0>         0.0909
      7 N1          2.5084    3.9288    0.3158 N.pl3     1 <0>        -0.6777
      8 C6          1.3322    3.2144   -0.0160 C.ar      1 <0>         0.1017
      9 C7          1.3818    1.8365   -0.0931 C.ar      1 <0>        -0.1111
     10 C8          0.2296    1.1109   -0.3542 C.ar      1 <0>        -0.1312
     11 C9         -0.9694    1.7704   -0.5428 C.ar      1 <0>        -0.1060
     12 C10        -1.0287    3.1477   -0.4744 C.ar      1 <0>        -0.1167
     13 C11         0.1275    3.8975   -0.2233 C.ar      1 <0>         0.1681
     14 N2          0.0194    5.2532   -0.2098 N.2       1 <0>        -0.6216
     15 C12         0.5397    6.1123    0.6013 C.2       1 <0>         0.5340
     16 N3          0.1661    7.4315    0.4793 N.pl3     1 <0>        -0.5933
     17 C13        -0.9003    7.8310   -0.4516 C.3       1 <0>         0.1226
     18 C14        -0.3858    8.9721   -1.3278 C.3       1 <0>         0.0334
     19 N4          0.1296   10.0500   -0.4732 N.3       1 <0>        -0.6705
     20 C15         1.2772    9.5959    0.3235 C.3       1 <0>         0.0314
     21 C16         0.8267    8.4796    1.2719 C.3       1 <0>         0.1111
     22 H1          2.2045    7.3011    5.4374 H         1 <0>         0.0832
     23 H2          3.9319    6.8713    5.1964 H         1 <0>         0.0780
     24 H3          2.7962    5.6683    5.8962 H         1 <0>         0.0776
     25 H4          0.9422    7.2004    3.2271 H         1 <0>         0.1418
     26 H5          3.4417    3.8721   -0.2636 H         1 <0>         0.4407
     27 H6          2.3208    1.3226    0.0501 H         1 <0>         0.1233
     28 H7          0.2702    0.0334   -0.4145 H         1 <0>         0.1260
     29 H8         -1.8675    1.2043   -0.7411 H         1 <0>         0.1256
     30 H9         -1.9729    3.6514   -0.6202 H         1 <0>         0.1265
     31 H10        -1.1776    6.9729   -1.0815 H         1 <0>         0.1044
     32 H11        -1.7789    8.1660    0.1193 H         1 <0>         0.0695
     33 H12         0.4208    8.6008   -1.9770 H         1 <0>         0.0349
     34 H13        -1.2082    9.3572   -1.9486 H         1 <0>         0.0894
     35 H14         2.0613    9.2147   -0.3472 H         1 <0>         0.0352
     36 H15         1.6735   10.4385    0.9091 H         1 <0>         0.0904
     37 H16         0.1191    8.8797    2.0130 H         1 <0>         0.0755
     38 H17         1.6982    8.0530    1.7901 H         1 <0>         0.0999
     39 H18         0.4513   10.8938   -1.1013 H         1 <0>         0.3455
@<TRIPOS>BOND
     1    1    2 1
     2    1   22 1
     3    1   23 1
     4    1   24 1
     5    2    6 1
     6    2    3 2
     7    3    4 1
     8    3   25 1
     9    4   15 1
    10    4    5 2
    11    5    6 1
    12    5    7 1
    13    7    8 1
    14    7   26 1
    15    8   13 ar
    16    8    9 ar
    17    9   10 ar
    18    9   27 1
    19   10   11 ar
    20   10   28 1
    21   11   12 ar
    22   11   29 1
    23   12   13 ar
    24   12   30 1
    25   13   14 1
    26   14   15 2
    27   15   16 1
    28   16   21 1
    29   16   17 1
    30   17   18 1
    31   17   31 1
    32   17   32 1
    33   18   19 1
    34   18   33 1
    35   18   34 1
    36   19   20 1
    37   19   39 1
    38   20   21 1
    39   20   35 1
    40   20   36 1
    41   21   37 1
    42   21   38 1
@<TRIPOS>MOLECULE
ZINC00001261
   42    45     0     0     0
SMALL
USER_CHARGES

@<TRIPOS>ATOM
      1 C1         -0.2107    0.9756    0.5610 C.ar      1 <0>        -0.1553
      2 C2          0.8872    1.7907    0.3694 C.ar      1 <0>        -0.0834
      3 C3          2.1528    1.2227    0.1733 C.ar      1 <0>        -0.0966
      4 C4          2.2463   -0.1552    0.1921 C.ar      1 <0>         0.1418
      5 N1          1.1542   -0.9088    0.3665 N.ar      1 <0>        -0.4773
      6 C5         -0.0402   -0.3967    0.5485 C.ar      1 <0>         0.1052
      7 C6          3.5236   -0.8885    0.0550 C.2       1 <0>         0.0206
      8 C7          3.5732   -1.9766   -0.7230 C.2       1 <0>        -0.1347
      9 C8          2.3880   -2.3886   -1.5714 C.3       1 <0>        -0.0949
     10 C9          2.8920   -2.6758   -2.9903 C.3       1 <0>        -0.0070
     11 N2          3.9749   -3.6649   -2.9342 N.4       1 <0>        -0.5046
     12 C10         5.1477   -3.0945   -2.2608 C.3       1 <0>        -0.0029
     13 C11         4.8187   -2.8359   -0.7908 C.3       1 <0>        -0.1118
     14 C12         4.7482   -0.4455    0.7586 C.ar      1 <0>        -0.0594
     15 C13         5.3707   -1.2514    1.7078 C.ar      1 <0>        -0.0873
     16 C14         6.5181   -0.7921    2.3275 C.ar      1 <0>        -0.1095
     17 C15         7.0306    0.4518    1.9995 C.ar      1 <0>        -0.0232
     18 C16         6.4017    1.2475    1.0567 C.ar      1 <0>        -0.1027
     19 C17         5.2492    0.7919    0.4373 C.ar      1 <0>        -0.0538
     20 C18         4.5456    1.6531   -0.5659 C.3       1 <0>        -0.0791
     21 C19         3.2532    2.2255   -0.0494 C.3       1 <0>        -0.0765
     22 Cl1         8.4749    1.0192    2.7779 Cl        1 <0>        -0.0534
     23 H1         -1.1887    1.4040    0.7230 H         1 <0>         0.1426
     24 H2          0.7704    2.8644    0.3703 H         1 <0>         0.1400
     25 H3         -0.8907   -1.0475    0.6886 H         1 <0>         0.1654
     26 H4          1.9316   -3.2864   -1.1545 H         1 <0>         0.1032
     27 H5          1.6560   -1.5814   -1.5975 H         1 <0>         0.1185
     28 H6          2.0735   -3.0671   -3.5944 H         1 <0>         0.1349
     29 H7          3.2647   -1.7540   -3.4370 H         1 <0>         0.1279
     30 H8          3.6596   -4.4773   -2.4256 H         1 <0>         0.4285
     31 H9          5.9819   -3.7927   -2.3304 H         1 <0>         0.1365
     32 H10         5.4201   -2.1541   -2.7399 H         1 <0>         0.1298
     33 H11         5.6503   -2.3164   -0.3148 H         1 <0>         0.1212
     34 H12         4.6390   -3.7846   -0.2850 H         1 <0>         0.1038
     35 H13         4.9635   -2.2203    1.9565 H         1 <0>         0.1381
     36 H14         7.0141   -1.4029    3.0673 H         1 <0>         0.1417
     37 H15         6.8072    2.2164    0.8054 H         1 <0>         0.1420
     38 H16         5.2051    2.4742   -0.8469 H         1 <0>         0.0882
     39 H17         4.3348    1.0566   -1.4535 H         1 <0>         0.0742
     40 H18         2.8992    2.9708   -0.7617 H         1 <0>         0.0918
     41 H19         3.4547    2.7293    0.8959 H         1 <0>         0.0866
     42 H20         4.2277   -3.9375   -3.8722 H         1 <0>         0.4309
@<TRIPOS>BOND
     1    1    6 ar
     2    1    2 ar
     3    1   23 1
     4    2    3 ar
     5    2   24 1
     6    3   21 1
     7    3    4 ar
     8    4    5 ar
     9    4    7 1
    10    5    6 ar
    11    6   25 1
    12    7    8 2
    13    7   14 1
    14    8   13 1
    15    8    9 1
    16    9   10 1
    17    9   26 1
    18    9   27 1
    19   10   11 1
    20   10   28 1
    21   10   29 1
    22   11   12 1
    23   11   30 1
    24   11   42 1
    25   12   13 1
    26   12   31 1
    27   12   32 1
    28   13   33 1
    29   13   34 1
    30   14   19 ar
    31   14   15 ar
    32   15   16 ar
    33   15   35 1
    34   16   17 ar
    35   16   36 1
    36   17   18 ar
    37   17   22 1
    38   18   19 ar
    39   18   37 1
    40   19   20 1
    41   20   21 1
    42   20   38 1
    43   20   39 1
    44   21   40 1
    45   21   41 1
@<TRIPOS>MOLECULE
ZINC01530688
   45    48     0     0     0
SMALL
USER_CHARGES

@<TRIPOS>ATOM
      1 C1         -4.7096    1.3430    2.2454 C.3       1 <0>        -0.0476
      2 N1         -4.6828   -0.1254    2.2123 N.4       1 <0>        -0.5103
      3 C2         -3.7697   -0.5747    1.1528 C.3       1 <0>        -0.0122
      4 C3         -3.7417   -2.1040    1.1183 C.3       1 <0>        -0.1635
      5 C4         -2.7907   -2.5720    0.0149 C.3       1 <0>        -0.0969
      6 C5         -2.6597   -4.0954    0.0667 C.3       1 <0>         0.0263
      7 C6         -4.0215   -4.8232    0.0106 C.3       1 <0>        -0.1040
      8 C7         -3.8423   -6.3391    0.0533 C.3       1 <0>        -0.1129
      9 C8         -2.3488   -6.7253    0.1407 C.3       1 <0>        -0.0103
     10 C9         -1.6882   -6.0486   -1.0501 C.ar      1 <0>        -0.0804
     11 C10        -1.8517   -4.6645   -1.0890 C.ar      1 <0>        -0.0813
     12 C11        -1.3264   -3.9281   -2.1114 C.ar      1 <0>        -0.1094
     13 C12        -0.6062   -4.5800   -3.1047 C.ar      1 <0>        -0.1189
     14 C13        -0.4268   -5.9496   -3.0553 C.ar      1 <0>        -0.1139
     15 C14        -0.9845   -6.6958   -2.0246 C.ar      1 <0>        -0.1023
     16 C15        -1.8144   -5.9955    1.3627 C.ar      1 <0>        -0.0777
     17 C16        -1.9635   -4.5918    1.3239 C.ar      1 <0>        -0.0757
     18 C17        -1.5329   -3.7937    2.3445 C.ar      1 <0>        -0.1206
     19 C18        -0.9095   -4.3826    3.4374 C.ar      1 <0>        -0.1235
     20 C19        -0.7301   -5.7522    3.4874 C.ar      1 <0>        -0.1148
     21 C20        -1.2169   -6.5979    2.4324 C.ar      1 <0>        -0.1003
     22 H1         -5.3871    1.6763    3.0315 H         1 <0>         0.1266
     23 H2         -3.7068    1.7202    2.4459 H         1 <0>         0.1236
     24 H3         -5.0547    1.7219    1.2835 H         1 <0>         0.1237
     25 H4         -4.3633   -0.4762    3.1027 H         1 <0>         0.4303
     26 H5         -4.1148   -0.1957    0.1909 H         1 <0>         0.1331
     27 H6         -2.7669   -0.1974    1.3534 H         1 <0>         0.1321
     28 H7         -3.3966   -2.4829    2.0803 H         1 <0>         0.0978
     29 H8         -4.7445   -2.4813    0.9178 H         1 <0>         0.0924
     30 H9         -3.1863   -2.2741   -0.9562 H         1 <0>         0.0849
     31 H10        -1.8110   -2.1178    0.1629 H         1 <0>         0.0828
     32 H11        -4.6281   -4.5114    0.8609 H         1 <0>         0.0659
     33 H12        -4.5344   -4.5501   -0.9116 H         1 <0>         0.0712
     34 H13        -4.3652   -6.7360    0.9235 H         1 <0>         0.0720
     35 H14        -4.2715   -6.7748   -0.8490 H         1 <0>         0.0737
     36 H15        -2.1865   -7.8028    0.1645 H         1 <0>         0.1072
     37 H16        -1.4684   -2.8581   -2.1478 H         1 <0>         0.1223
     38 H17        -0.1840   -4.0128   -3.9210 H         1 <0>         0.1245
     39 H18         0.1348   -6.4454   -3.8333 H         1 <0>         0.1261
     40 H19        -0.8596   -7.7681   -1.9924 H         1 <0>         0.1279
     41 H20        -1.6741   -2.7238    2.3027 H         1 <0>         0.1202
     42 H21        -0.5623   -3.7660    4.2534 H         1 <0>         0.1230
     43 H22        -0.2442   -6.1987    4.3423 H         1 <0>         0.1258
     44 H23        -1.0918   -7.6703    2.4602 H         1 <0>         0.1327
     45 H24        -5.6110   -0.4746    2.0266 H         1 <0>         0.4305
@<TRIPOS>BOND
     1    1    2 1
     2    1   22 1
     3    1   23 1
     4    1   24 1
     5    2    3 1
     6    2   25 1
     7    2   45 1
     8    3    4 1
     9    3   26 1
    10    3   27 1
    11    4    5 1
    12    4   28 1
    13    4   29 1
    14    5    6 1
    15    5   30 1
    16    5   31 1
    17    6   11 1
    18    6   17 1
    19    6    7 1
    20    7    8 1
    21    7   32 1
    22    7   33 1
    23    8    9 1
    24    8   34 1
    25    8   35 1
    26    9   10 1
    27    9   16 1
    28    9   36 1
    29   10   15 ar
    30   10   11 ar
    31   11   12 ar
    32   12   13 ar
    33   12   37 1
    34   13   14 ar
    35   13   38 1
    36   14   15 ar
    37   14   39 1
    38   15   40 1
    39   16   21 ar
    40   16   17 ar
    41   17   18 ar
    42   18   19 ar
    43   18   41 1
    44   19   20 ar
    45   19   42 1
    46   20   21 ar
    47   20   43 1
    48   21   44 1
@<TRIPOS>MOLECULE
ZINC02022527
   54    55     0     0     0
SMALL
USER_CHARGES

@<TRIPOS>ATOM
      1 C1         -3.0730    2.2881   -4.2693 C.3       1 <0>        -0.1569
      2 C2         -2.3049    1.5870   -3.1471 C.3       1 <0>        -0.1270
      3 C3         -2.8110    2.0874   -1.7927 C.3       1 <0>        -0.1231
      4 C4         -2.0429    1.3862   -0.6705 C.3       1 <0>        -0.1174
      5 C5         -2.5490    1.8867    0.6839 C.3       1 <0>        -0.1006
      6 C6         -2.2117    3.3722    0.8391 C.3       1 <0>        -0.1451
      7 C7         -2.6658    3.8518    2.2196 C.3       1 <0>        -0.0114
      8 C8         -2.3347    1.6429    3.1595 C.3       1 <0>        -0.0001
      9 C9         -1.8707    1.0973    1.8070 C.3       1 <0>        -0.1442
     10 C10        -2.2939    3.5901    4.5974 C.3       1 <0>        -0.0052
     11 C11        -2.1583    5.1140    4.5919 C.3       1 <0>        -0.1459
     12 C12        -2.4764    5.6593    5.9856 C.3       1 <0>        -0.1543
     13 C13        -2.3428    7.1604    5.9803 C.2       1 <0>         0.3987
     14 O1         -2.0245    7.7371    4.9623 O.2       1 <0>        -0.4456
     15 C14        -2.5986    7.9263    7.2106 C.ar      1 <0>        -0.1885
     16 C15        -3.0878    7.2813    8.3513 C.ar      1 <0>        -0.0705
     17 C16        -3.3195    8.0047    9.5018 C.ar      1 <0>        -0.1389
     18 C17        -3.0801    9.3679    9.5265 C.ar      1 <0>        -0.0729
     19 C18        -2.6016   10.0143    8.4004 C.ar      1 <0>        -0.1345
     20 C19        -2.3594    9.3036    7.2436 C.ar      1 <0>        -0.0178
     21 C20        -1.8387   10.0095    6.0182 C.3       1 <0>        -0.1264
     22 H1         -4.1363    2.0676   -4.1746 H         1 <0>         0.0549
     23 H2         -2.9175    3.3647   -4.1985 H         1 <0>         0.0540
     24 H3         -2.7125    1.9316   -5.2342 H         1 <0>         0.0581
     25 H4         -1.2417    1.8075   -3.2417 H         1 <0>         0.0621
     26 H5         -2.4605    0.5104   -3.2179 H         1 <0>         0.0631
     27 H6         -3.8743    1.8669   -1.6981 H         1 <0>         0.0644
     28 H7         -2.6555    3.1639   -1.7219 H         1 <0>         0.0632
     29 H8         -2.1984    0.3097   -0.7413 H         1 <0>         0.0733
     30 H9         -0.9796    1.6067   -0.7651 H         1 <0>         0.0688
     31 H10        -3.6287    1.7492    0.7427 H         1 <0>         0.0884
     32 H11        -1.1354    3.5132    0.7407 H         1 <0>         0.0881
     33 H12        -2.7264    3.9447    0.0675 H         1 <0>         0.1133
     34 H13        -3.7442    3.7233    2.3122 H         1 <0>         0.1295
     35 H14        -2.4142    4.9057    2.3388 H         1 <0>         0.1342
     36 H15        -3.4146    1.5248    3.2476 H         1 <0>         0.1293
     37 H16        -1.8426    1.0924    3.9613 H         1 <0>         0.1282
     38 H17        -2.1418    0.0446    1.7270 H         1 <0>         0.1118
     39 H18        -0.7890    1.2025    1.7239 H         1 <0>         0.0880
     40 H19        -3.3133    3.3170    4.8704 H         1 <0>         0.1315
     41 H20        -1.5979    3.1659    5.3211 H         1 <0>         0.1302
     42 H21        -1.1389    5.3871    4.3190 H         1 <0>         0.0944
     43 H22        -2.8542    5.5382    3.8682 H         1 <0>         0.0968
     44 H23        -3.4115    5.4088    6.2361 H         1 <0>         0.0981
     45 H24        -1.7805    5.2352    6.7093 H         1 <0>         0.1100
     46 H25        -3.2793    6.2186    8.3321 H         1 <0>         0.1290
     47 H26        -3.6933    7.5074   10.3846 H         1 <0>         0.1322
     48 H27        -3.2682    9.9300   10.4293 H         1 <0>         0.1326
     49 H28        -2.4176   11.0782    8.4274 H         1 <0>         0.1332
     50 H29        -2.6709   10.2515    5.3572 H         1 <0>         0.0784
     51 H30        -1.3321   10.9277    6.3156 H         1 <0>         0.0652
     52 H31        -1.1365    9.3600    5.4956 H         1 <0>         0.0893
     53 N1         -1.9588    3.0696    3.2558 N.4       1 <0>        -0.3931
     54 H32        -0.9467    3.1581    3.1071 H         1 <0>         0.4272
@<TRIPOS>BOND
     1    1    2 1
     2    1   22 1
     3    1   23 1
     4    1   24 1
     5    2    3 1
     6    2   25 1
     7    2   26 1
     8    3    4 1
     9    3   27 1
    10    3   28 1
    11    4    5 1
    12    4   29 1
    13    4   30 1
    14    5    9 1
    15    5    6 1
    16    5   31 1
    17    6    7 1
    18    6   32 1
    19    6   33 1
    20    7   34 1
    21    7   35 1
    22    7   53 1
    23    8    9 1
    24    8   36 1
    25    8   37 1
    26    8   53 1
    27    9   38 1
    28    9   39 1
    29   10   11 1
    30   10   40 1
    31   10   41 1
    32   10   53 1
    33   11   12 1
    34   11   42 1
    35   11   43 1
    36   12   13 1
    37   12   44 1
    38   12   45 1
    39   13   14 2
    40   13   15 1
    41   15   20 ar
    42   15   16 ar
    43   16   17 ar
    44   16   46 1
    45   17   18 ar
    46   17   47 1
    47   18   19 ar
    48   18   48 1
    49   19   20 ar
    50   19   49 1
    51   20   21 1
    52   21   50 1
    53   21   51 1
    54   21   52 1
    55   53   54 1
@<TRIPOS>MOLECULE
ZINC00538337
   58    62     0     0     0
SMALL
USER_CHARGES

@<TRIPOS>ATOM
      1 C1         -0.0168    1.3842    0.0097 C.ar      1 <0>        -0.0898
      2 C2          1.1703    2.0901    0.0021 C.ar      1 <0>        -0.1344
      3 C3          2.3788    1.4141   -0.0135 C.ar      1 <0>         0.1119
      4 C4          2.3997    0.0295   -0.0216 C.ar      1 <0>        -0.1322
      5 C5          1.2148   -0.6800   -0.0137 C.ar      1 <0>        -0.0888
      6 C6          0.0021   -0.0041    0.0020 C.ar      1 <0>         0.1035
      7 N1         -1.2015   -0.7222    0.0101 N.pl3     1 <0>        -0.4255
      8 C7         -2.2407   -0.5077    0.8765 C.2       1 <0>         0.0751
      9 C8         -3.2397   -1.3652    0.6140 C.2       1 <0>        -0.1721
     10 C9         -2.8068   -2.1974   -0.5117 C.ar      1 <0>        -0.0841
     11 C10        -1.5194   -1.7470   -0.8569 C.ar      1 <0>         0.1032
     12 C11        -0.8430   -2.3517   -1.9103 C.ar      1 <0>        -0.1070
     13 C12        -1.4366   -3.3808   -2.6081 C.ar      1 <0>        -0.0841
     14 C13        -2.7089   -3.8239   -2.2706 C.ar      1 <0>        -0.0491
     15 C14        -3.3935   -3.2441   -1.2250 C.ar      1 <0>        -0.0671
     16 Cl1        -3.4366   -5.1218   -3.1648 Cl        1 <0>        -0.0596
     17 C15        -4.5571   -1.4553    1.3402 C.3       1 <0>        -0.0164
     18 C16        -4.3063   -1.7573    2.8204 C.3       1 <0>        -0.1397
     19 C17        -5.6422   -1.7687    3.5665 C.3       1 <0>        -0.0052
     20 N2         -6.2909   -0.4585    3.4359 N.4       1 <0>        -0.3798
     21 C18        -6.5994   -0.1937    2.0255 C.3       1 <0>        -0.0131
     22 C19        -5.3003   -0.1217    1.2201 C.3       1 <0>        -0.1392
     23 C20        -7.5345   -0.4493    4.2177 C.3       1 <0>        -0.0330
     24 C21        -8.1476    0.9521    4.1845 C.3       1 <0>         0.1326
     25 N3         -9.3878    0.9612    4.9641 N.am      1 <0>        -0.6351
     26 C22       -10.7283    0.6664    4.4362 C.3       1 <0>         0.0898
     27 C23       -11.6494    0.8170    5.6625 C.3       1 <0>         0.0871
     28 N4        -10.7301    1.1807    6.7511 N.am      1 <0>        -0.7327
     29 C24        -9.4802    1.2337    6.2723 C.2       1 <0>         0.7000
     30 O1         -8.5172    1.5083    6.9620 O.2       1 <0>        -0.5776
     31 F1          3.5389    2.1063   -0.0213 F         1 <0>        -0.1276
     32 H1         -0.9590    1.9118    0.0260 H         1 <0>         0.1391
     33 H2          1.1561    3.1700    0.0080 H         1 <0>         0.1488
     34 H3          3.3432   -0.4959   -0.0345 H         1 <0>         0.1499
     35 H4          1.2315   -1.7598   -0.0203 H         1 <0>         0.1411
     36 H5         -2.2541    0.2401    1.6556 H         1 <0>         0.1691
     37 H6          0.1466   -2.0149   -2.1816 H         1 <0>         0.1333
     38 H7         -0.9074   -3.8472   -3.4259 H         1 <0>         0.1426
     39 H8         -4.3833   -3.5900   -0.9659 H         1 <0>         0.1336
     40 H9         -5.1611   -2.2499    0.9021 H         1 <0>         0.0971
     41 H10        -3.8271   -2.7315    2.9171 H         1 <0>         0.1158
     42 H11        -3.6594   -0.9891    3.2440 H         1 <0>         0.0884
     43 H12        -6.2882   -2.5373    3.1423 H         1 <0>         0.1304
     44 H13        -5.4673   -1.9836    4.6207 H         1 <0>         0.1320
     45 H14        -7.2250   -0.9960    1.6341 H         1 <0>         0.1319
     46 H15        -7.1311    0.7541    1.9420 H         1 <0>         0.1316
     47 H16        -4.6740    0.6804    1.6106 H         1 <0>         0.0885
     48 H17        -5.5315    0.0731    0.1729 H         1 <0>         0.1159
     49 H18        -8.2379   -1.1638    3.7899 H         1 <0>         0.1318
     50 H19        -7.3173   -0.7265    5.2492 H         1 <0>         0.1351
     51 H20        -7.4442    1.6665    4.6123 H         1 <0>         0.1060
     52 H21        -8.3648    1.2293    3.1530 H         1 <0>         0.1030
     53 H22       -11.0011    1.3839    3.6624 H         1 <0>         0.0916
     54 H23       -10.7713   -0.3513    4.0481 H         1 <0>         0.0867
     55 H24       -12.3795    1.6093    5.4975 H         1 <0>         0.0926
     56 H25       -12.1498   -0.1259    5.8832 H         1 <0>         0.0914
     57 H26       -10.9875    1.3510    7.6707 H         1 <0>         0.4382
     58 H27        -5.6719    0.2583    3.7840 H         1 <0>         0.4243
@<TRIPOS>BOND
     1    1    6 ar
     2    1    2 ar
     3    1   32 1
     4    2    3 ar
     5    2   33 1
     6    3    4 ar
     7    3   31 1
     8    4    5 ar
     9    4   34 1
    10    5    6 ar
    11    5   35 1
    12    6    7 1
    13    7   11 1
    14    7    8 1
    15    8    9 2
    16    8   36 1
    17    9   10 1
    18    9   17 1
    19   10   15 ar
    20   10   11 ar
    21   11   12 ar
    22   12   13 ar
    23   12   37 1
    24   13   14 ar
    25   13   38 1
    26   14   15 ar
    27   14   16 1
    28   15   39 1
    29   17   22 1
    30   17   18 1
    31   17   40 1
    32   18   19 1
    33   18   41 1
    34   18   42 1
    35   19   20 1
    36   19   43 1
    37   19   44 1
    38   20   21 1
    39   20   23 1
    40   20   58 1
    41   21   22 1
    42   21   45 1
    43   21   46 1
    44   22   47 1
    45   22   48 1
    46   23   24 1
    47   23   49 1
    48   23   50 1
    49   24   25 1
    50   24   51 1
    51   24   52 1
    52   25   29 am
    53   25   26 1
    54   26   27 1
    55   26   53 1
    56   26   54 1
    57   27   28 1
    58   27   55 1
    59   27   56 1
    60   28   29 am
    61   28   57 1
    62   29   30 2
@<TRIPOS>MOLECULE
ZINC12375998
   42    44     0     0     0
SMALL
USER_CHARGES

@<TRIPOS>ATOM
      1 C1         -0.0167    1.3781    0.0096 C.ar      1 <0>        -0.1093
      2 C2          1.1709    2.0855    0.0021 C.ar      1 <0>        -0.1163
      3 C3          2.3773    1.4107   -0.0130 C.ar      1 <0>        -0.0880
      4 C4          2.3960    0.0285   -0.0201 C.ar      1 <0>        -0.0814
      5 C5          1.2084   -0.6789   -0.0117 C.ar      1 <0>        -0.1187
      6 C6          0.0021   -0.0041    0.0020 C.ar      1 <0>        -0.1186
      7 C7          3.7112   -0.7071   -0.0376 C.3       1 <0>         0.2366
      8 C8          4.1644   -0.9594    1.3773 C.ar      1 <0>        -0.1240
      9 C9          3.7926   -2.1226    2.0252 C.ar      1 <0>        -0.1164
     10 C10         4.2084   -2.3540    3.3231 C.ar      1 <0>        -0.1178
     11 C11         4.9964   -1.4225    3.9729 C.ar      1 <0>        -0.1085
     12 C12         5.3690   -0.2598    3.3247 C.ar      1 <0>        -0.1134
     13 C13         4.9568   -0.0303    2.0254 C.ar      1 <0>        -0.0983
     14 C14         3.5388   -2.0427   -0.7637 C.3       1 <0>        -0.1267
     15 C15         3.0877   -1.7877   -2.2048 C.3       1 <0>        -0.1437
     16 C16         2.9942   -3.1220   -2.9479 C.3       1 <0>        -0.0074
     17 N1          4.3081   -3.7763   -2.9535 N.4       1 <0>        -0.5054
     18 C17         4.7147   -4.0888   -1.5782 C.3       1 <0>        -0.0040
     19 C18         4.8745   -2.7916   -0.7823 C.3       1 <0>        -0.1532
     20 O1          4.6894    0.0820   -0.7176 O.3       1 <0>        -0.5401
     21 H1         -0.9591    1.9053    0.0259 H         1 <0>         0.1269
     22 H2          1.1563    3.1654    0.0076 H         1 <0>         0.1274
     23 H3          3.3051    1.9634   -0.0196 H         1 <0>         0.1290
     24 H4          1.2231   -1.7588   -0.0179 H         1 <0>         0.1184
     25 H5         -0.9258   -0.5567    0.0082 H         1 <0>         0.1263
     26 H6          3.1769   -2.8503    1.5175 H         1 <0>         0.1189
     27 H7          3.9172   -3.2624    3.8295 H         1 <0>         0.1259
     28 H8          5.3206   -1.6030    4.9871 H         1 <0>         0.1271
     29 H9          5.9843    0.4681    3.8325 H         1 <0>         0.1278
     30 H10         5.2510    0.8763    1.5176 H         1 <0>         0.1293
     31 H11         2.7908   -2.6444   -0.2475 H         1 <0>         0.1031
     32 H12         2.1108   -1.3043   -2.2002 H         1 <0>         0.1174
     33 H13         3.8112   -1.1430   -2.7039 H         1 <0>         0.0983
     34 H14         2.2703   -3.7658   -2.4481 H         1 <0>         0.1297
     35 H15         2.6730   -2.9441   -3.9742 H         1 <0>         0.1350
     36 H16         4.2556   -4.6294   -3.4897 H         1 <0>         0.4320
     37 H17         3.9542   -4.7119   -1.1076 H         1 <0>         0.1310
     38 H18         5.6639   -4.6245   -1.5932 H         1 <0>         0.1354
     39 H19         5.6350   -2.1678   -1.2520 H         1 <0>         0.0906
     40 H20         5.1747   -3.0258    0.2390 H         1 <0>         0.1195
     41 H21         5.5625   -0.3307   -0.7670 H         1 <0>         0.3774
     42 H22         4.9880   -3.1595   -3.3723 H         1 <0>         0.4283
@<TRIPOS>BOND
     1    1    6 ar
     2    1    2 ar
     3    1   21 1
     4    2    3 ar
     5    2   22 1
     6    3    4 ar
     7    3   23 1
     8    4    5 ar
     9    4    7 1
    10    5    6 ar
    11    5   24 1
    12    6   25 1
    13    7    8 1
    14    7   14 1
    15    7   20 1
    16    8   13 ar
    17    8    9 ar
    18    9   10 ar
    19    9   26 1
    20   10   11 ar
    21   10   27 1
    22   11   12 ar
    23   11   28 1
    24   12   13 ar
    25   12   29 1
    26   13   30 1
    27   14   19 1
    28   14   15 1
    29   14   31 1
    30   15   16 1
    31   15   32 1
    32   15   33 1
    33   16   17 1
    34   16   34 1
    35   16   35 1
    36   17   18 1
    37   17   36 1
    38   17   42 1
    39   18   19 1
    40   18   37 1
    41   18   38 1
    42   19   39 1
    43   19   40 1
    44   20   41 1
@<TRIPOS>MOLECULE
ZINC43172197
   65    69     0     0     0
SMALL
USER_CHARGES

@<TRIPOS>ATOM
      1 C1         -0.0286    1.3393   -0.2252 C.ar      1 <0>        -0.1263
      2 C2          1.1459    2.0527   -0.4528 C.ar      1 <0>        -0.0786
      3 C3          2.3554    1.4279   -0.4646 C.ar      1 <0>        -0.1141
      4 C4          2.4267    0.0417   -0.2440 C.ar      1 <0>         0.1749
      5 C5          1.2312   -0.6814   -0.0123 C.ar      1 <0>        -0.1379
      6 C6          0.0015   -0.0049   -0.0076 C.ar      1 <0>        -0.0808
      7 C7          1.3022   -2.0719    0.2091 C.ar      1 <0>        -0.0101
      8 C8          2.5277   -2.6669    0.1908 C.ar      1 <0>        -0.2219
      9 C9          3.6751   -1.8960   -0.0441 C.ar      1 <0>         0.4164
     10 N1          3.6022   -0.5969   -0.2499 N.ar      1 <0>        -0.5364
     11 N2          4.9157   -2.5156   -0.0597 N.pl3     1 <0>        -0.6257
     12 C10         6.1561   -1.7247   -0.0617 C.3       1 <0>         0.1039
     13 C11         7.0550   -2.2339   -1.1933 C.3       1 <0>        -0.0206
     14 N3          7.2586   -3.6802   -1.0422 N.4       1 <0>        -0.3833
     15 C12         5.9807   -4.3848   -1.2054 C.3       1 <0>        -0.0267
     16 C13         5.0286   -3.9823   -0.0687 C.3       1 <0>         0.1029
     17 C14         8.2075   -4.1484   -2.0613 C.3       1 <0>        -0.0096
     18 C15         8.5167   -5.6286   -1.8285 C.3       1 <0>        -0.1518
     19 C16         9.5049   -6.1163   -2.8898 C.3       1 <0>        -0.1004
     20 C17         9.8142   -7.5965   -2.6570 C.3       1 <0>        -0.0665
     21 C18        10.7876   -8.0768   -3.7024 C.2       1 <0>         0.3883
     22 N4         11.2199   -7.2407   -4.6041 N.2       1 <0>        -0.5267
     23 C19        12.0886   -7.6100   -5.5588 C.2       1 <0>         0.1766
     24 C20        12.5410   -8.8863   -5.5890 C.2       1 <0>        -0.2302
     25 C21        12.0683   -9.7969   -4.6145 C.2       1 <0>         0.5018
     26 O1         12.4462  -10.9567   -4.6149 O.2       1 <0>        -0.5281
     27 N5         11.1974   -9.3604   -3.6824 N.am      1 <0>        -0.3603
     28 N6         10.7293  -10.2158   -2.7257 N.3       1 <0>        -0.6050
     29 C22        13.5308   -9.3829   -6.6065 C.3       1 <0>        -0.0570
     30 C23        13.5949   -8.4333   -7.8017 C.3       1 <0>        -0.1220
     31 C24        13.7948   -7.0072   -7.2746 C.3       1 <0>        -0.1228
     32 C25        12.5148   -6.5724   -6.5633 C.3       1 <0>        -0.0691
     33 H1         -0.9750    1.8595   -0.2168 H         1 <0>         0.1319
     34 H2          1.0963    3.1180   -0.6228 H         1 <0>         0.1338
     35 H3          3.2568    1.9953   -0.6433 H         1 <0>         0.1347
     36 H4         -0.9158   -0.5472    0.1681 H         1 <0>         0.1329
     37 H5          0.4081   -2.6505    0.3889 H         1 <0>         0.1459
     38 H6          2.6152   -3.7304    0.3574 H         1 <0>         0.1363
     39 H7          5.9200   -0.6734   -0.2263 H         1 <0>         0.1390
     40 H8          6.6674   -1.8431    0.8937 H         1 <0>         0.0867
     41 H9          6.5802   -2.0320   -2.1534 H         1 <0>         0.1327
     42 H10         8.0179   -1.7249   -1.1496 H         1 <0>         0.1417
     43 H11         5.5384   -4.1179   -2.1652 H         1 <0>         0.1337
     44 H12         6.1519   -5.4608   -1.1707 H         1 <0>         0.1443
     45 H13         5.4280   -4.3247    0.8860 H         1 <0>         0.0939
     46 H14         4.0467   -4.4242   -0.2380 H         1 <0>         0.1277
     47 H15         7.7700   -4.0200   -3.0514 H         1 <0>         0.1314
     48 H16         9.1286   -3.5697   -1.9932 H         1 <0>         0.1343
     49 H17         8.9541   -5.7571   -0.8384 H         1 <0>         0.0888
     50 H18         7.5955   -6.2073   -1.8966 H         1 <0>         0.0887
     51 H19         9.0675   -5.9878   -3.8799 H         1 <0>         0.0879
     52 H20        10.4261   -5.5376   -2.8217 H         1 <0>         0.0869
     53 H21        10.2516   -7.7249   -1.6669 H         1 <0>         0.0970
     54 H22         8.8930   -8.1752   -2.7251 H         1 <0>         0.1094
     55 H23        11.1245  -11.1372   -2.8399 H         1 <0>         0.3897
     56 H24        10.9101   -9.8570   -1.8002 H         1 <0>         0.3573
     57 H25        14.5168   -9.4487   -6.1464 H         1 <0>         0.0780
     58 H26        13.2281  -10.3723   -6.9494 H         1 <0>         0.0820
     59 H27        14.4313   -8.7078   -8.4445 H         1 <0>         0.0780
     60 H28        12.6638   -8.4893   -8.3657 H         1 <0>         0.0684
     61 H29        14.6289   -6.9887   -6.5732 H         1 <0>         0.0695
     62 H30        13.9992   -6.3336   -8.1068 H         1 <0>         0.0799
     63 H31        11.7223   -6.4381   -7.2996 H         1 <0>         0.0922
     64 H32        12.6920   -5.6271   -6.0505 H         1 <0>         0.0900
     65 H33         7.6323   -3.8721   -0.1248 H         1 <0>         0.4223
@<TRIPOS>BOND
     1    1    6 ar
     2    1    2 ar
     3    1   33 1
     4    2    3 ar
     5    2   34 1
     6    3    4 ar
     7    3   35 1
     8    4   10 ar
     9    4    5 ar
    10    5    6 ar
    11    5    7 ar
    12    6   36 1
    13    7    8 ar
    14    7   37 1
    15    8    9 ar
    16    8   38 1
    17    9   10 ar
    18    9   11 1
    19   11   16 1
    20   11   12 1
    21   12   13 1
    22   12   39 1
    23   12   40 1
    24   13   14 1
    25   13   41 1
    26   13   42 1
    27   14   15 1
    28   14   17 1
    29   14   65 1
    30   15   16 1
    31   15   43 1
    32   15   44 1
    33   16   45 1
    34   16   46 1
    35   17   18 1
    36   17   47 1
    37   17   48 1
    38   18   19 1
    39   18   49 1
    40   18   50 1
    41   19   20 1
    42   19   51 1
    43   19   52 1
    44   20   21 1
    45   20   53 1
    46   20   54 1
    47   21   27 1
    48   21   22 2
    49   22   23 1
    50   23   32 1
    51   23   24 2
    52   24   25 1
    53   24   29 1
    54   25   26 2
    55   25   27 am
    56   27   28 1
    57   28   55 1
    58   28   56 1
    59   29   30 1
    60   29   57 1
    61   29   58 1
    62   30   31 1
    63   30   59 1
    64   30   60 1
    65   31   32 1
    66   31   61 1
    67   31   62 1
    68   32   63 1
    69   32   64 1
@<TRIPOS>MOLECULE
ZINC43172197
   66    70     0     0     0
SMALL
USER_CHARGES

@<TRIPOS>ATOM
      1 C1         -1.1440   -0.8993   -0.0171 C.ar      1 <0>        -0.1033
      2 C2         -1.0157   -2.2859   -0.0512 C.ar      1 <0>        -0.0204
      3 C3          0.2105   -2.8771   -0.0661 C.ar      1 <0>        -0.1497
      4 C4          1.3688   -2.0814   -0.0474 C.ar      1 <0>         0.1557
      5 C5          1.2360   -0.6719   -0.0132 C.ar      1 <0>        -0.1140
      6 C6         -0.0440   -0.0963    0.0018 C.ar      1 <0>        -0.0476
      7 C7          2.3976    0.1267    0.0055 C.ar      1 <0>         0.0854
      8 C8          3.6094   -0.4958   -0.0102 C.ar      1 <0>        -0.2269
      9 C9          3.6751   -1.8960   -0.0441 C.ar      1 <0>         0.4969
     10 N1          2.5859   -2.6367   -0.0619 N.ar      1 <0>        -0.5138
     11 N2          4.9157   -2.5156   -0.0597 N.pl3     1 <0>        -0.6162
     12 C10         6.1531   -1.7280   -0.1716 C.3       1 <0>         0.0894
     13 C11         7.0086   -2.3243   -1.2943 C.3       1 <0>        -0.0234
     14 N3          7.2215   -3.7546   -1.0390 N.4       1 <0>        -0.3866
     15 C12         5.9400   -4.4691   -1.0968 C.3       1 <0>        -0.0271
     16 C13         5.0319   -3.9786    0.0413 C.3       1 <0>         0.0772
     17 C14         8.1312   -4.3013   -2.0547 C.3       1 <0>        -0.0113
     18 C15         8.4530   -5.7590   -1.7194 C.3       1 <0>        -0.1526
     19 C16         9.4004   -6.3285   -2.7773 C.3       1 <0>        -0.1013
     20 C17         9.7222   -7.7862   -2.4420 C.3       1 <0>        -0.0650
     21 C18        10.6553   -8.3471   -3.4839 C.2       1 <0>         0.3838
     22 N4         11.0501   -7.5841   -4.4642 N.2       1 <0>        -0.5277
     23 C19        11.8820   -8.0272   -5.4203 C.2       1 <0>         0.1728
     24 C20        12.3360   -9.3022   -5.3686 C.2       1 <0>        -0.2233
     25 C21        11.9039  -10.1338   -4.3084 C.2       1 <0>         0.5008
     26 O1         12.2844  -11.2903   -4.2331 O.2       1 <0>        -0.5229
     27 N5         11.0688   -9.6254   -3.3799 N.am      1 <0>        -0.3604
     28 N6         10.6405  -10.4034   -2.3420 N.3       1 <0>        -0.6058
     29 C22        13.2868   -9.8772   -6.3821 C.3       1 <0>        -0.0594
     30 C23        13.3020   -9.0237   -7.6493 C.3       1 <0>        -0.1222
     31 C24        13.5186   -7.5610   -7.2431 C.3       1 <0>        -0.1237
     32 C25        12.2662   -7.0713   -6.5185 C.3       1 <0>        -0.0677
     33 H1         -2.1283   -0.4551   -0.0100 H         1 <0>         0.1575
     34 H2         -1.9029   -2.9016   -0.0656 H         1 <0>         0.1592
     35 H3          0.2928   -3.9536   -0.0918 H         1 <0>         0.1535
     36 H4         -0.1561    0.9776    0.0279 H         1 <0>         0.1626
     37 H5          2.3287    1.2042    0.0312 H         1 <0>         0.1843
     38 H6          4.5178    0.0882    0.0031 H         1 <0>         0.1823
     39 H7          5.9082   -0.6926   -0.4084 H         1 <0>         0.1453
     40 H8          6.7015   -1.7717    0.7694 H         1 <0>         0.1213
     41 H9          6.4963   -2.1977   -2.2480 H         1 <0>         0.1414
     42 H10         7.9711   -1.8139   -1.3280 H         1 <0>         0.1613
     43 H11         5.4601   -4.2775   -2.0565 H         1 <0>         0.1416
     44 H12         6.1151   -5.5391   -0.9850 H         1 <0>         0.1605
     45 H13         5.4689   -4.2457    1.0034 H         1 <0>         0.1263
     46 H14         4.0452   -4.4318   -0.0547 H         1 <0>         0.1193
     47 H15         7.6552   -4.2502   -3.0340 H         1 <0>         0.1362
     48 H16         9.0529   -3.7196   -2.0679 H         1 <0>         0.1427
     49 H17         8.9289   -5.8101   -0.7402 H         1 <0>         0.0917
     50 H18         7.5313   -6.3408   -1.7062 H         1 <0>         0.0876
     51 H19         8.9244   -6.2774   -3.7565 H         1 <0>         0.0892
     52 H20        10.3221   -5.7467   -2.7904 H         1 <0>         0.0896
     53 H21        10.1981   -7.8373   -1.4627 H         1 <0>         0.0969
     54 H22         8.8005   -8.3680   -2.4288 H         1 <0>         0.1081
     55 H23        11.0332  -11.3311   -2.3993 H         1 <0>         0.3914
     56 H24        10.8562   -9.9736   -1.4549 H         1 <0>         0.3562
     57 H25        14.2901   -9.9074   -5.9571 H         1 <0>         0.0800
     58 H26        12.9735  -10.8902   -6.6347 H         1 <0>         0.0835
     59 H27        14.1134   -9.3480   -8.3008 H         1 <0>         0.0798
     60 H28        12.3498   -9.1230   -8.1704 H         1 <0>         0.0684
     61 H29        14.3793   -7.4882   -6.5784 H         1 <0>         0.0701
     62 H30        13.6889   -6.9544   -8.1326 H         1 <0>         0.0809
     63 H31        11.4454   -6.9945   -7.2316 H         1 <0>         0.0916
     64 H32        12.4609   -6.0890   -6.0882 H         1 <0>         0.0889
     65 H33         2.6678   -3.6029   -0.0853 H         1 <0>         0.4330
     66 H34         7.6311   -3.8745   -0.1247 H         1 <0>         0.4283
@<TRIPOS>BOND
     1    1    6 ar
     2    1    2 ar
     3    1   33 1
     4    2    3 ar
     5    2   34 1
     6    3    4 ar
     7    3   35 1
     8    4   10 ar
     9    4    5 ar
    10    5    6 ar
    11    5    7 ar
    12    6   36 1
    13    7    8 ar
    14    7   37 1
    15    8    9 ar
    16    8   38 1
    17    9   10 ar
    18    9   11 1
    19   10   65 1
    20   11   16 1
    21   11   12 1
    22   12   13 1
    23   12   39 1
    24   12   40 1
    25   13   14 1
    26   13   41 1
    27   13   42 1
    28   14   15 1
    29   14   17 1
    30   14   66 1
    31   15   16 1
    32   15   43 1
    33   15   44 1
    34   16   45 1
    35   16   46 1
    36   17   18 1
    37   17   47 1
    38   17   48 1
    39   18   19 1
    40   18   49 1
    41   18   50 1
    42   19   20 1
    43   19   51 1
    44   19   52 1
    45   20   21 1
    46   20   53 1
    47   20   54 1
    48   21   27 1
    49   21   22 2
    50   22   23 1
    51   23   32 1
    52   23   24 2
    53   24   25 1
    54   24   29 1
    55   25   26 2
    56   25   27 am
    57   27   28 1
    58   28   55 1
    59   28   56 1
    60   29   30 1
    61   29   57 1
    62   29   58 1
    63   30   31 1
    64   30   59 1
    65   30   60 1
    66   31   32 1
    67   31   61 1
    68   31   62 1
    69   32   63 1
    70   32   64 1
@<TRIPOS>MOLECULE
ZINC19868747
   35    37     0     0     0
SMALL
USER_CHARGES

@<TRIPOS>ATOM
      1 C1          1.7302    1.7441   -0.9395 C.3       1 <0>         0.0240
      2 N1          1.2923    0.3866   -0.5886 N.3       1 <0>        -0.5432
      3 C2          1.3850   -0.5124   -1.7468 C.3       1 <0>         0.0387
      4 C3          0.7532   -1.8628   -1.3929 C.3       1 <0>         0.1167
      5 N2          1.3840   -2.3658   -0.1631 N.am      1 <0>        -0.6105
      6 C4          1.4518   -1.4694    1.0010 C.3       1 <0>         0.0883
      7 C5          2.0561   -0.1344    0.5529 C.3       1 <0>         0.0410
      8 C6          1.8862   -3.6152   -0.1043 C.2       1 <0>         0.5853
      9 O1          1.8175   -4.3446   -1.0754 O.2       1 <0>        -0.5148
     10 C7          2.5172   -4.0965    1.1337 C.2       1 <0>         0.0219
     11 C8          3.5030   -5.0289    1.2044 C.2       1 <0>        -0.1018
     12 C9          3.8299   -5.2082    2.5703 C.ar      1 <0>        -0.1076
     13 C10         4.7524   -6.0229    3.2398 C.ar      1 <0>        -0.0492
     14 C11         4.8387   -5.9739    4.6014 C.ar      1 <0>        -0.0596
     15 C12         4.0183   -5.1217    5.3321 C.ar      1 <0>        -0.0784
     16 C13         3.1040   -4.3122    4.6965 C.ar      1 <0>        -0.1163
     17 C14         2.9980   -4.3442    3.3087 C.ar      1 <0>         0.1111
     18 N3          2.2062   -3.6685    2.4098 N.pl3     1 <0>        -0.5787
     19 H1          1.5375   -3.0029    2.6350 H         1 <0>         0.4234
     20 Cl1         5.9824   -6.9851    5.4279 Cl        1 <0>        -0.0682
     21 H2          2.7874    1.7277   -1.2047 H         1 <0>         0.0280
     22 H3          1.1486    2.1058   -1.7875 H         1 <0>         0.0730
     23 H4          1.5797    2.4063   -0.0869 H         1 <0>         0.0722
     24 H5          0.8548   -0.0730   -2.5916 H         1 <0>         0.0931
     25 H6          2.4324   -0.6588   -2.0106 H         1 <0>         0.0418
     26 H7         -0.3169   -1.7349   -1.2296 H         1 <0>         0.0811
     27 H8          0.9205   -2.5696   -2.2056 H         1 <0>         0.1017
     28 H9          0.4489   -1.3036    1.3944 H         1 <0>         0.0850
     29 H10         2.0810   -1.9161    1.7709 H         1 <0>         0.0956
     30 H11         3.0942   -0.2862    0.2570 H         1 <0>         0.0428
     31 H12         2.0126    0.5790    1.3757 H         1 <0>         0.0919
     32 H13         3.9556   -5.5417    0.3686 H         1 <0>         0.1591
     33 H14         5.3933   -6.6881    2.6802 H         1 <0>         0.1382
     34 H15         4.0989   -5.0947    6.4088 H         1 <0>         0.1403
     35 H16         2.4707   -3.6541    5.2729 H         1 <0>         0.1342
@<TRIPOS>BOND
     1    1    2 1
     2    1   21 1
     3    1   22 1
     4    1   23 1
     5    2    7 1
     6    2    3 1
     7    3    4 1
     8    3   24 1
     9    3   25 1
    10    4    5 1
    11    4   26 1
    12    4   27 1
    13    5    6 1
    14    5    8 am
    15    6    7 1
    16    6   28 1
    17    6   29 1
    18    7   30 1
    19    7   31 1
    20    8    9 2
    21    8   10 1
    22   10   18 1
    23   10   11 2
    24   11   12 1
    25   11   32 1
    26   12   17 ar
    27   12   13 ar
    28   13   14 ar
    29   13   33 1
    30   14   15 ar
    31   14   20 1
    32   15   16 ar
    33   15   34 1
    34   16   17 ar
    35   16   35 1
    36   17   18 1
    37   18   19 1
@<TRIPOS>MOLECULE
ZINC13518995
   19    20     0     0     0
SMALL
USER_CHARGES
(1S,2S)-2-(1H-imidazol-4-yl)cyclopropan-1-amine
@<TRIPOS>ATOM
      1 C1         -0.7050    3.1521    0.0257 C.2       1 <0>        -0.0248
      2 C2          0.6414    3.1322    0.0128 C.2       1 <0>        -0.0108
      3 N1          1.0374    1.8508    0.0021 N.2       1 <0>        -0.4865
      4 C3         -0.0126    1.0758    0.0080 C.2       1 <0>         0.2063
      5 N2         -1.1205    1.8479    0.0168 N.pl3     1 <0>        -0.5652
      6 H1         -2.0676    1.5268    0.0168 H         1 <0>         0.4377
      7 C4          1.5450    4.3383    0.0111 C.3       1 <0>        -0.0261
      8 H2          2.3184    4.3453   -0.7570 H         1 <0>         0.1399
      9 C5          0.9302    5.6821    0.4074 C.3       1 <0>        -0.1486
     10 C6          1.8868    4.9669    1.3635 C.3       1 <0>        -0.0671
     11 H3          1.4584    4.5078    2.2545 H         1 <0>         0.1790
     12 H4         -1.3359    4.0287    0.0368 H         1 <0>         0.1805
     13 H5          0.0021   -0.0041    0.0020 H         1 <0>         0.2169
     14 H6          1.2989    6.5735   -0.1001 H         1 <0>         0.1303
     15 H7         -0.1278    5.6939    0.6693 H         1 <0>         0.1332
     16 H8          3.3513    5.9206    2.4516 H         1 <0>         0.4426
     17 H9          3.9416    4.8446    1.3292 H         1 <0>         0.4412
     18 N3          3.2312    5.5521    1.5096 N.4       1 <0>        -0.6153
     19 H10         3.3414    6.3173    0.8339 H         1 <0>         0.4368
@<TRIPOS>BOND
     1    1    5 1
     2    1    2 2
     3    1   12 1
     4    2    3 1
     5    2    7 1
     6    3    4 2
     7    4    5 1
     8    4   13 1
     9    5    6 1
    10    7    8 1
    11    7   10 1
    12    7    9 1
    13    9   10 1
    14    9   14 1
    15    9   15 1
    16   10   11 1
    17   10   18 1
    18   16   18 1
    19   17   18 1
    20   18   19 1
@<TRIPOS>MOLECULE
ZINC13518995
   20    21     0     0     0
SMALL
USER_CHARGES
(1S,2S)-2-(1H-imidazol-4-yl)cyclopropan-1-amine
@<TRIPOS>ATOM
      1 C1         -0.7050    3.1521    0.0257 C.2       1 <0>         0.0629
      2 C2          0.6414    3.1322    0.0128 C.2       1 <0>         0.0232
      3 C3         -0.0126    1.0758    0.0080 C.cat     1 <0>         0.3343
      4 N1         -1.1205    1.8479    0.0168 N.pl3     1 <0>        -0.5124
      5 H1         -2.0676    1.5268    0.0168 H         1 <0>         0.4846
      6 C4          1.5450    4.3383    0.0111 C.3       1 <0>        -0.0845
      7 H2          2.3184    4.3453   -0.7570 H         1 <0>         0.1618
      8 C5          0.9302    5.6821    0.4074 C.3       1 <0>        -0.1253
      9 C6          1.8868    4.9669    1.3635 C.3       1 <0>        -0.0515
     10 H3          1.4584    4.5078    2.2545 H         1 <0>         0.1878
     11 H4         -1.3359    4.0287    0.0368 H         1 <0>         0.2290
     12 H5          0.0021   -0.0041    0.0020 H         1 <0>         0.2734
     13 H6          1.2989    6.5735   -0.1001 H         1 <0>         0.1478
     14 H7         -0.1278    5.6939    0.6693 H         1 <0>         0.1449
     15 H8          3.3513    5.9206    2.4516 H         1 <0>         0.4541
     16 H9          3.9416    4.8446    1.3292 H         1 <0>         0.4429
     17 N2          3.2312    5.5521    1.5096 N.4       1 <0>        -0.6192
     18 H10         3.3414    6.3173    0.8339 H         1 <0>         0.4452
     19 N3          1.0361    1.8512    0.0021 N.pl3     1 <0>        -0.4826
     20 H11         2.0115    1.5306   -0.0090 H         1 <0>         0.4836
@<TRIPOS>BOND
     1    1    4 1
     2    1    2 2
     3    1   11 1
     4    2    6 1
     5    2   19 1
     6    3    4 1
     7    3   12 1
     8    3   19 2
     9    4    5 1
    10    6    7 1
    11    6    9 1
    12    6    8 1
    13    8    9 1
    14    8   13 1
    15    8   14 1
    16    9   10 1
    17    9   17 1
    18   15   17 1
    19   16   17 1
    20   17   18 1
    21   19   20 1
@<TRIPOS>MOLECULE
ZINC19632896
   63    67     0     0     0
SMALL
USER_CHARGES

@<TRIPOS>ATOM
      1 C1         -0.0167    1.3781    0.0096 C.ar      1 <0>        -0.1095
      2 C2          1.1709    2.0855    0.0021 C.ar      1 <0>        -0.1150
      3 C3          2.3773    1.4107   -0.0130 C.ar      1 <0>        -0.1095
      4 C4          2.3960    0.0285   -0.0201 C.ar      1 <0>        -0.0937
      5 C5          1.2084   -0.6789   -0.0117 C.ar      1 <0>        -0.0969
      6 C6          0.0021   -0.0041    0.0020 C.ar      1 <0>        -0.1213
      7 C7          3.7112   -0.7071   -0.0376 C.3       1 <0>         0.1793
      8 C8          4.0438   -1.1746    1.3559 C.ar      1 <0>        -0.0936
      9 C9          3.4555   -2.3197    1.8597 C.ar      1 <0>        -0.0951
     10 C10         3.7605   -2.7485    3.1379 C.ar      1 <0>        -0.1214
     11 C11         4.6543   -2.0326    3.9122 C.ar      1 <0>        -0.1095
     12 C12         5.2433   -0.8881    3.4082 C.ar      1 <0>        -0.1155
     13 C13         4.9415   -0.4616    2.1284 C.ar      1 <0>        -0.1100
     14 N1          3.6112   -1.8677   -0.9326 N.3       1 <0>        -0.5295
     15 C14         3.2015   -1.4575   -2.2832 C.3       1 <0>         0.0228
     16 C15         3.0515   -2.6981   -3.1664 C.3       1 <0>        -0.0002
     17 N2          4.3309   -3.4176   -3.2216 N.4       1 <0>        -0.3855
     18 C16         4.7147   -3.8421   -1.8688 C.3       1 <0>        -0.0055
     19 C17         4.8785   -2.6110   -0.9748 C.3       1 <0>         0.0255
     20 C18         4.1915   -4.5985   -4.0840 C.3       1 <0>        -0.0040
     21 C19         5.5531   -5.2782   -4.2422 C.3       1 <0>        -0.1722
     22 C20         5.4078   -6.5082   -5.1404 C.3       1 <0>         0.1396
     23 N3          6.7115   -7.1590   -5.2919 N.am      1 <0>        -0.5413
     24 C21         7.6521   -6.8796   -6.2805 C.ar      1 <0>         0.0793
     25 C22         7.6792   -5.9901   -7.3439 C.ar      1 <0>        -0.1064
     26 C23         8.7826   -5.9437   -8.1733 C.ar      1 <0>        -0.1051
     27 C24         9.8612   -6.7817   -7.9477 C.ar      1 <0>        -0.1009
     28 C25         9.8431   -7.6712   -6.8914 C.ar      1 <0>        -0.1004
     29 C26         8.7402   -7.7244   -6.0527 C.ar      1 <0>         0.0920
     30 N4          8.4270   -8.4910   -4.9327 N.am      1 <0>        -0.6410
     31 H1          8.9931   -9.1699   -4.5331 H         1 <0>         0.4394
     32 C27         7.2072   -8.1251   -4.4958 C.2       1 <0>         0.6831
     33 O1          6.6377   -8.5981   -3.5300 O.2       1 <0>        -0.5511
     34 H2         -0.9591    1.9053    0.0259 H         1 <0>         0.1257
     35 H3          1.1563    3.1654    0.0076 H         1 <0>         0.1264
     36 H4          3.3051    1.9634   -0.0196 H         1 <0>         0.1205
     37 H5          1.2231   -1.7588   -0.0179 H         1 <0>         0.1275
     38 H6         -0.9258   -0.5567    0.0082 H         1 <0>         0.1248
     39 H7          4.4960   -0.0399   -0.3940 H         1 <0>         0.0670
     40 H8          2.7572   -2.8790    1.2547 H         1 <0>         0.1273
     41 H9          3.3004   -3.6427    3.5317 H         1 <0>         0.1246
     42 H10         4.8921   -2.3673    4.9112 H         1 <0>         0.1255
     43 H11         5.9413   -0.3286    4.0133 H         1 <0>         0.1262
     44 H12         5.4045    0.4305    1.7332 H         1 <0>         0.1203
     45 H13         2.2482   -0.9315   -2.2300 H         1 <0>         0.1289
     46 H14         3.9580   -0.7978   -2.7081 H         1 <0>         0.0614
     47 H15         2.2853   -3.3511   -2.7485 H         1 <0>         0.1391
     48 H16         2.7614   -2.3950   -4.1724 H         1 <0>         0.1367
     49 H17         3.9399   -4.4892   -1.4576 H         1 <0>         0.1401
     50 H18         5.6576   -4.3871   -1.9128 H         1 <0>         0.1352
     51 H19         5.6626   -1.9703   -1.3782 H         1 <0>         0.0612
     52 H20         5.1487   -2.9266    0.0329 H         1 <0>         0.1273
     53 H21         3.4870   -5.2970   -3.6324 H         1 <0>         0.1362
     54 H22         3.8224   -4.2921   -5.0628 H         1 <0>         0.1360
     55 H23         6.2575   -4.5797   -4.6938 H         1 <0>         0.0932
     56 H24         5.9221   -5.5846   -3.2634 H         1 <0>         0.0955
     57 H25         4.7033   -7.2067   -4.6889 H         1 <0>         0.1051
     58 H26         5.0387   -6.2018   -6.1192 H         1 <0>         0.1010
     59 H27         6.8393   -5.3354   -7.5234 H         1 <0>         0.1275
     60 H28         8.8038   -5.2510   -9.0016 H         1 <0>         0.1372
     61 H29        10.7204   -6.7399   -8.6007 H         1 <0>         0.1391
     62 H30        10.6862   -8.3238   -6.7189 H         1 <0>         0.1363
     63 H31         5.0427   -2.8092   -3.5975 H         1 <0>         0.4204
@<TRIPOS>BOND
     1    1    6 ar
     2    1    2 ar
     3    1   34 1
     4    2    3 ar
     5    2   35 1
     6    3    4 ar
     7    3   36 1
     8    4    5 ar
     9    4    7 1
    10    5    6 ar
    11    5   37 1
    12    6   38 1
    13    7    8 1
    14    7   14 1
    15    7   39 1
    16    8   13 ar
    17    8    9 ar
    18    9   10 ar
    19    9   40 1
    20   10   11 ar
    21   10   41 1
    22   11   12 ar
    23   11   42 1
    24   12   13 ar
    25   12   43 1
    26   13   44 1
    27   14   19 1
    28   14   15 1
    29   15   16 1
    30   15   45 1
    31   15   46 1
    32   16   17 1
    33   16   47 1
    34   16   48 1
    35   17   18 1
    36   17   20 1
    37   17   63 1
    38   18   19 1
    39   18   49 1
    40   18   50 1
    41   19   51 1
    42   19   52 1
    43   20   21 1
    44   20   53 1
    45   20   54 1
    46   21   22 1
    47   21   55 1
    48   21   56 1
    49   22   23 1
    50   22   57 1
    51   22   58 1
    52   23   32 am
    53   23   24 1
    54   24   29 ar
    55   24   25 ar
    56   25   26 ar
    57   25   59 1
    58   26   27 ar
    59   26   60 1
    60   27   28 ar
    61   27   61 1
    62   28   29 ar
    63   28   62 1
    64   29   30 1
    65   30   31 1
    66   30   32 am
    67   32   33 2
@<TRIPOS>MOLECULE
ZINC01892860
   38    40     0     0     0
SMALL
USER_CHARGES

@<TRIPOS>ATOM
      1 C1         -0.0169    1.3962    0.0097 C.ar      1 <0>        -0.0188
      2 C2          1.1625    2.0954    0.0022 C.ar      1 <0>        -0.1651
      3 C3          2.3762    1.4165   -0.0135 C.ar      1 <0>         0.1662
      4 C4          2.4006    0.0259   -0.0212 C.ar      1 <0>        -0.2246
      5 C5          1.2269   -0.6828   -0.0138 C.ar      1 <0>        -0.0273
      6 C6          0.0021   -0.0041    0.0020 C.ar      1 <0>        -0.2066
      7 C7         -1.2581   -0.7581    0.0100 C.2       1 <0>         0.4281
      8 O1         -2.3178   -0.1681    0.0233 O.2       1 <0>        -0.4587
      9 C8         -1.2347   -2.2649    0.0017 C.3       1 <0>        -0.2225
     10 C9         -2.2150   -2.9815   -0.9291 C.3       1 <0>        -0.1476
     11 C10        -2.4480   -2.9935    0.5829 C.3       1 <0>        -0.1501
     12 O2          3.5404    2.1130   -0.0218 O.3       1 <0>        -0.3084
     13 C11         4.7507    1.3535   -0.0378 C.3       1 <0>         0.0562
     14 C12         5.9494    2.3043   -0.0452 C.3       1 <0>        -0.1155
     15 C13         7.2453    1.4912   -0.0624 C.3       1 <0>        -0.0389
     16 C14         8.4259    2.4277   -0.0696 C.2       1 <0>        -0.0275
     17 C15         8.9817    3.0104   -1.1490 C.2       1 <0>        -0.0181
     18 N1         10.0067    3.7674   -0.7302 N.2       1 <0>        -0.4935
     19 C16        10.1072    3.6759    0.5677 C.2       1 <0>         0.1869
     20 N2          9.1358    2.8542    1.0203 N.pl3     1 <0>        -0.5676
     21 H1          8.9728    2.6101    1.9448 H         1 <0>         0.4194
     22 H2         -0.9588    1.9243    0.0260 H         1 <0>         0.1415
     23 H3          1.1490    3.1753    0.0081 H         1 <0>         0.1389
     24 H4          3.3458   -0.4966   -0.0334 H         1 <0>         0.1353
     25 H5          1.2469   -1.7626   -0.0205 H         1 <0>         0.1358
     26 H6         -0.2556   -2.7207    0.1493 H         1 <0>         0.1249
     27 H7         -2.8768   -2.3632   -1.5355 H         1 <0>         0.1023
     28 H8         -1.8808   -3.9090   -1.3942 H         1 <0>         0.1060
     29 H9         -2.2673   -3.9288    1.1127 H         1 <0>         0.1052
     30 H10        -3.2632   -2.3830    0.9714 H         1 <0>         0.1050
     31 H11         4.7943    0.7207    0.8486 H         1 <0>         0.0663
     32 H12         4.7763    0.7297   -0.9313 H         1 <0>         0.0696
     33 H13         5.9057    2.9372   -0.9316 H         1 <0>         0.0830
     34 H14         5.9237    2.9282    0.8483 H         1 <0>         0.0740
     35 H15         7.2889    0.8584    0.8240 H         1 <0>         0.0743
     36 H16         7.2709    0.8673   -0.9558 H         1 <0>         0.0930
     37 H17         8.6588    2.8894   -2.1725 H         1 <0>         0.1696
     38 H18        10.8428    4.1775    1.1790 H         1 <0>         0.2092
@<TRIPOS>BOND
     1    1    6 ar
     2    1    2 ar
     3    1   22 1
     4    2    3 ar
     5    2   23 1
     6    3    4 ar
     7    3   12 1
     8    4    5 ar
     9    4   24 1
    10    5    6 ar
    11    5   25 1
    12    6    7 1
    13    7    8 2
    14    7    9 1
    15    9   11 1
    16    9   10 1
    17    9   26 1
    18   10   11 1
    19   10   27 1
    20   10   28 1
    21   11   29 1
    22   11   30 1
    23   12   13 1
    24   13   14 1
    25   13   31 1
    26   13   32 1
    27   14   15 1
    28   14   33 1
    29   14   34 1
    30   15   16 1
    31   15   35 1
    32   15   36 1
    33   16   20 1
    34   16   17 2
    35   17   18 1
    36   17   37 1
    37   18   19 2
    38   19   20 1
    39   19   38 1
    40   20   21 1
@<TRIPOS>MOLECULE
ZINC01892860
   39    41     0     0     0
SMALL
USER_CHARGES

@<TRIPOS>ATOM
      1 C1         -0.0169    1.3962    0.0097 C.ar      1 <0>        -0.0189
      2 C2          1.1625    2.0954    0.0022 C.ar      1 <0>        -0.1606
      3 C3          2.3762    1.4165   -0.0135 C.ar      1 <0>         0.1572
      4 C4          2.4006    0.0259   -0.0212 C.ar      1 <0>        -0.2224
      5 C5          1.2269   -0.6828   -0.0138 C.ar      1 <0>        -0.0284
      6 C6          0.0021   -0.0041    0.0020 C.ar      1 <0>        -0.1965
      7 C7         -1.2581   -0.7581    0.0100 C.2       1 <0>         0.4253
      8 O1         -2.3178   -0.1681    0.0233 O.2       1 <0>        -0.4527
      9 C8         -1.2347   -2.2649    0.0017 C.3       1 <0>        -0.2245
     10 C9         -2.2150   -2.9815   -0.9291 C.3       1 <0>        -0.1467
     11 C10        -2.4480   -2.9935    0.5829 C.3       1 <0>        -0.1489
     12 O2          3.5404    2.1130   -0.0218 O.3       1 <0>        -0.3105
     13 C11         4.7507    1.3535   -0.0378 C.3       1 <0>         0.0546
     14 C12         5.9494    2.3043   -0.0452 C.3       1 <0>        -0.1206
     15 C13         7.2453    1.4912   -0.0624 C.3       1 <0>        -0.0608
     16 C14         8.4259    2.4277   -0.0696 C.2       1 <0>         0.0335
     17 C15         8.9723    3.0039   -1.1573 C.2       1 <0>         0.0370
     18 N1         10.0150    3.7732   -0.7163 N.pl3     1 <0>        -0.5090
     19 H1         10.6046    4.3131   -1.2656 H         1 <0>         0.4686
     20 C16        10.0696    3.6402    0.6265 C.cat     1 <0>         0.3079
     21 N2          9.1131    2.8380    1.0067 N.pl3     1 <0>        -0.4748
     22 H2         -0.9588    1.9243    0.0260 H         1 <0>         0.1443
     23 H3          1.1490    3.1753    0.0081 H         1 <0>         0.1393
     24 H4          3.3458   -0.4966   -0.0334 H         1 <0>         0.1336
     25 H5          1.2469   -1.7626   -0.0205 H         1 <0>         0.1381
     26 H6         -0.2556   -2.7207    0.1493 H         1 <0>         0.1243
     27 H7         -2.8768   -2.3632   -1.5355 H         1 <0>         0.1031
     28 H8         -1.8808   -3.9090   -1.3942 H         1 <0>         0.1071
     29 H9         -2.2673   -3.9288    1.1127 H         1 <0>         0.1065
     30 H10        -3.2632   -2.3830    0.9714 H         1 <0>         0.1060
     31 H11         4.7943    0.7207    0.8486 H         1 <0>         0.0700
     32 H12         4.7763    0.7297   -0.9313 H         1 <0>         0.0726
     33 H13         5.9057    2.9372   -0.9316 H         1 <0>         0.0877
     34 H14         5.9237    2.9282    0.8483 H         1 <0>         0.0805
     35 H15         7.2889    0.8584    0.8240 H         1 <0>         0.1009
     36 H16         7.2709    0.8673   -0.9558 H         1 <0>         0.1173
     37 H17         8.6499    2.8822   -2.1808 H         1 <0>         0.2275
     38 H18        10.7840    4.1213    1.2782 H         1 <0>         0.2672
     39 H19         8.9293    2.5779    1.9229 H         1 <0>         0.4653
@<TRIPOS>BOND
     1    1    6 ar
     2    1    2 ar
     3    1   22 1
     4    2    3 ar
     5    2   23 1
     6    3    4 ar
     7    3   12 1
     8    4    5 ar
     9    4   24 1
    10    5    6 ar
    11    5   25 1
    12    6    7 1
    13    7    8 2
    14    7    9 1
    15    9   11 1
    16    9   10 1
    17    9   26 1
    18   10   11 1
    19   10   27 1
    20   10   28 1
    21   11   29 1
    22   11   30 1
    23   12   13 1
    24   13   14 1
    25   13   31 1
    26   13   32 1
    27   14   15 1
    28   14   33 1
    29   14   34 1
    30   15   16 1
    31   15   35 1
    32   15   36 1
    33   16   21 1
    34   16   17 2
    35   17   18 1
    36   17   37 1
    37   18   19 1
    38   18   20 1
    39   20   21 2
    40   20   38 1
    41   21   39 1
@<TRIPOS>MOLECULE
ZINC01892860
   39    41     0     0     0
SMALL
USER_CHARGES

@<TRIPOS>ATOM
      1 C1         -0.0169    1.3962    0.0097 C.ar      1 <0>        -0.0189
      2 C2          1.1625    2.0954    0.0022 C.ar      1 <0>        -0.1606
      3 C3          2.3762    1.4165   -0.0135 C.ar      1 <0>         0.1572
      4 C4          2.4006    0.0259   -0.0212 C.ar      1 <0>        -0.2224
      5 C5          1.2269   -0.6828   -0.0138 C.ar      1 <0>        -0.0284
      6 C6          0.0021   -0.0041    0.0020 C.ar      1 <0>        -0.1965
      7 C7         -1.2581   -0.7581    0.0100 C.2       1 <0>         0.4253
      8 O1         -2.3178   -0.1681    0.0233 O.2       1 <0>        -0.4527
      9 C8         -1.2347   -2.2649    0.0017 C.3       1 <0>        -0.2245
     10 C9         -2.2150   -2.9815   -0.9291 C.3       1 <0>        -0.1467
     11 C10        -2.4480   -2.9935    0.5829 C.3       1 <0>        -0.1489
     12 O2          3.5404    2.1130   -0.0218 O.3       1 <0>        -0.3104
     13 C11         4.7507    1.3535   -0.0378 C.3       1 <0>         0.0547
     14 C12         5.9494    2.3043   -0.0452 C.3       1 <0>        -0.1201
     15 C13         7.2453    1.4912   -0.0624 C.3       1 <0>        -0.0608
     16 C14         8.4259    2.4277   -0.0696 C.2       1 <0>         0.0635
     17 N1          9.1358    2.8542    1.0203 N.pl3     1 <0>        -0.5108
     18 C15        10.1053    3.6783    0.5680 C.cat     1 <0>         0.3073
     19 N2         10.0094    3.7640   -0.7306 N.pl3     1 <0>        -0.4727
     20 C16         8.9890    3.0012   -1.1501 C.2       1 <0>         0.0056
     21 H1         -0.9588    1.9243    0.0260 H         1 <0>         0.1443
     22 H2          1.1490    3.1753    0.0081 H         1 <0>         0.1393
     23 H3          3.3458   -0.4966   -0.0334 H         1 <0>         0.1337
     24 H4          1.2469   -1.7626   -0.0205 H         1 <0>         0.1381
     25 H5         -0.2556   -2.7207    0.1493 H         1 <0>         0.1243
     26 H6         -2.8768   -2.3632   -1.5355 H         1 <0>         0.1031
     27 H7         -1.8808   -3.9090   -1.3942 H         1 <0>         0.1071
     28 H8         -2.2673   -3.9288    1.1127 H         1 <0>         0.1065
     29 H9         -3.2632   -2.3830    0.9714 H         1 <0>         0.1060
     30 H10         4.7943    0.7207    0.8486 H         1 <0>         0.0702
     31 H11         4.7763    0.7297   -0.9313 H         1 <0>         0.0727
     32 H12         5.9057    2.9372   -0.9316 H         1 <0>         0.0879
     33 H13         5.9237    2.9282    0.8483 H         1 <0>         0.0810
     34 H14         7.2889    0.8584    0.8240 H         1 <0>         0.1020
     35 H15         7.2709    0.8673   -0.9558 H         1 <0>         0.1186
     36 H16        10.8383    4.1831    1.1797 H         1 <0>         0.2671
     37 H17         8.6728    2.8717   -2.1747 H         1 <0>         0.2253
     38 H18         8.9728    2.6101    1.9448 H         1 <0>         0.4657
     39 H19        10.5871    4.2932   -1.3026 H         1 <0>         0.4682
@<TRIPOS>BOND
     1    1    6 ar
     2    1    2 ar
     3    1   21 1
     4    2    3 ar
     5    2   22 1
     6    3    4 ar
     7    3   12 1
     8    4    5 ar
     9    4   23 1
    10    5    6 ar
    11    5   24 1
    12    6    7 1
    13    7    8 2
    14    7    9 1
    15    9   11 1
    16    9   10 1
    17    9   25 1
    18   10   11 1
    19   10   26 1
    20   10   27 1
    21   11   28 1
    22   11   29 1
    23   12   13 1
    24   13   14 1
    25   13   30 1
    26   13   31 1
    27   14   15 1
    28   14   32 1
    29   14   33 1
    30   15   34 1
    31   15   35 1
    32   15   16 1
    33   16   17 1
    34   16   20 2
    35   17   18 1
    36   17   38 1
    37   18   36 1
    38   18   19 2
    39   19   20 1
    40   19   39 1
    41   20   37 1
@<TRIPOS>MOLECULE
ZINC01892860
   38    40     0     0     0
SMALL
USER_CHARGES

@<TRIPOS>ATOM
      1 C1         -0.0169    1.3962    0.0097 C.ar      1 <0>        -0.0188
      2 C2          1.1625    2.0954    0.0022 C.ar      1 <0>        -0.1665
      3 C3          2.3762    1.4165   -0.0135 C.ar      1 <0>         0.1685
      4 C4          2.4006    0.0259   -0.0212 C.ar      1 <0>        -0.2252
      5 C5          1.2269   -0.6828   -0.0138 C.ar      1 <0>        -0.0271
      6 C6          0.0021   -0.0041    0.0020 C.ar      1 <0>        -0.2089
      7 C7         -1.2581   -0.7581    0.0100 C.2       1 <0>         0.4286
      8 O1         -2.3178   -0.1681    0.0233 O.2       1 <0>        -0.4599
      9 C8         -1.2347   -2.2649    0.0017 C.3       1 <0>        -0.2221
     10 C9         -2.2150   -2.9815   -0.9291 C.3       1 <0>        -0.1479
     11 C10        -2.4480   -2.9935    0.5829 C.3       1 <0>        -0.1503
     12 O2          3.5404    2.1130   -0.0218 O.3       1 <0>        -0.3077
     13 C11         4.7507    1.3535   -0.0378 C.3       1 <0>         0.0561
     14 C12         5.9494    2.3043   -0.0452 C.3       1 <0>        -0.1106
     15 C13         7.2453    1.4912   -0.0624 C.3       1 <0>        -0.0289
     16 C14         8.4259    2.4277   -0.0696 C.2       1 <0>         0.0011
     17 N1          8.6474    3.4100   -0.9557 N.2       1 <0>        -0.4885
     18 C15         9.7636    4.0161   -0.6562 C.2       1 <0>         0.1872
     19 N2         10.2924    3.4325    0.4408 N.pl3     1 <0>        -0.5707
     20 C16         9.4406    2.4288    0.8158 C.2       1 <0>        -0.0525
     21 H1         -0.9588    1.9243    0.0260 H         1 <0>         0.1408
     22 H2          1.1490    3.1753    0.0081 H         1 <0>         0.1386
     23 H3          3.3458   -0.4966   -0.0334 H         1 <0>         0.1357
     24 H4          1.2469   -1.7626   -0.0205 H         1 <0>         0.1352
     25 H5         -0.2556   -2.7207    0.1493 H         1 <0>         0.1250
     26 H6         -2.8768   -2.3632   -1.5355 H         1 <0>         0.1020
     27 H7         -1.8808   -3.9090   -1.3942 H         1 <0>         0.1058
     28 H8         -2.2673   -3.9288    1.1127 H         1 <0>         0.1049
     29 H9         -3.2632   -2.3830    0.9714 H         1 <0>         0.1048
     30 H10         4.7943    0.7207    0.8486 H         1 <0>         0.0657
     31 H11         4.7763    0.7297   -0.9313 H         1 <0>         0.0671
     32 H12         5.9057    2.9372   -0.9316 H         1 <0>         0.0836
     33 H13         5.9237    2.9282    0.8483 H         1 <0>         0.0726
     34 H14         7.2889    0.8584    0.8240 H         1 <0>         0.0774
     35 H15         7.2709    0.8673   -0.9558 H         1 <0>         0.0781
     36 H16        10.1934    4.8467   -1.1965 H         1 <0>         0.2087
     37 H17         9.5602    1.7642    1.6587 H         1 <0>         0.1764
     38 H18        11.1196    3.6805    0.8825 H         1 <0>         0.4217
@<TRIPOS>BOND
     1    1    6 ar
     2    1    2 ar
     3    1   21 1
     4    2    3 ar
     5    2   22 1
     6    3    4 ar
     7    3   12 1
     8    4    5 ar
     9    4   23 1
    10    5    6 ar
    11    5   24 1
    12    6    7 1
    13    7    8 2
    14    7    9 1
    15    9   11 1
    16    9   10 1
    17    9   25 1
    18   10   11 1
    19   10   26 1
    20   10   27 1
    21   11   28 1
    22   11   29 1
    23   12   13 1
    24   13   14 1
    25   13   30 1
    26   13   31 1
    27   14   15 1
    28   14   32 1
    29   14   33 1
    30   15   34 1
    31   15   35 1
    32   15   16 1
    33   16   17 1
    34   16   20 2
    35   17   18 2
    36   18   36 1
    37   18   19 1
    38   19   20 1
    39   19   38 1
    40   20   37 1
@<TRIPOS>MOLECULE
ZINC21981239
   65    68     0     0     0
SMALL
USER_CHARGES
4-[4-(4-chlorophenyl)-4-hydroxy-1-piperidyl]-N-methyl-2,2-diphenyl-butanamide
@<TRIPOS>ATOM
      1 C1         -0.0855   -1.6023   -3.7609 C.3       1 <0>         0.0833
      2 N1         -0.4220   -0.7797   -2.5964 N.am      1 <0>        -0.7395
      3 C2          0.3089   -0.8777   -1.4682 C.2       1 <0>         0.5134
      4 O1          1.2452   -1.6469   -1.4172 O.2       1 <0>        -0.5125
      5 C3         -0.0372   -0.0315   -0.2703 C.3       1 <0>         0.0266
      6 C4         -1.4630   -0.3499    0.1843 C.3       1 <0>        -0.1369
      7 C5         -1.5965   -1.8544    0.4285 C.3       1 <0>        -0.0220
      8 N2         -2.9985   -2.1804    0.7214 N.4       1 <0>        -0.3936
      9 C6         -3.4255   -1.5760    1.9898 C.3       1 <0>        -0.0052
     10 C7         -4.9241   -1.8129    2.1903 C.3       1 <0>        -0.1281
     11 C8         -5.2007   -3.3189    2.2024 C.3       1 <0>         0.1877
     12 C9         -4.7028   -3.9318    0.8905 C.3       1 <0>        -0.1746
     13 C10        -3.2107   -3.6335    0.7277 C.3       1 <0>         0.0007
     14 C11        -6.6820   -3.5591    2.3403 C.ar      1 <0>        -0.1328
     15 C12        -7.4757   -3.6465    1.2119 C.ar      1 <0>        -0.1020
     16 C13        -8.8335   -3.8725    1.3375 C.ar      1 <0>        -0.1086
     17 C14        -9.4000   -3.9998    2.5933 C.ar      1 <0>        -0.0236
     18 C15        -8.6060   -3.9066    3.7225 C.ar      1 <0>        -0.1072
     19 C16        -7.2474   -3.6862    3.5954 C.ar      1 <0>        -0.0829
     20 Cl1       -11.1063   -4.2771    2.7522 Cl        1 <0>        -0.0522
     21 O2         -4.5148   -3.9216    3.3017 O.3       1 <0>        -0.5800
     22 C17         0.0583    1.4262   -0.6404 C.ar      1 <0>        -0.0900
     23 C18        -1.0131    2.2692   -0.4112 C.ar      1 <0>        -0.1196
     24 C19        -0.9237    3.6073   -0.7463 C.ar      1 <0>        -0.1128
     25 C20         0.2333    4.1004   -1.3199 C.ar      1 <0>        -0.1057
     26 C21         1.3026    3.2563   -1.5543 C.ar      1 <0>        -0.1086
     27 C22         1.2152    1.9192   -1.2144 C.ar      1 <0>        -0.0990
     28 C23         0.9255   -0.3293    0.8502 C.ar      1 <0>        -0.0872
     29 C24         1.5324    0.7075    1.5340 C.ar      1 <0>        -0.0984
     30 C25         2.4118    0.4343    2.5650 C.ar      1 <0>        -0.1172
     31 C26         2.6920   -0.8758    2.9055 C.ar      1 <0>        -0.1048
     32 C27         2.0895   -1.9127    2.2180 C.ar      1 <0>        -0.1213
     33 C28         1.2061   -1.6394    1.1905 C.ar      1 <0>        -0.0966
     34 H1         -0.7882   -1.3849   -4.5788 H         1 <0>         0.0814
     35 H2         -0.1552   -2.6663   -3.4907 H         1 <0>         0.0607
     36 H3          0.9396   -1.3734   -4.0876 H         1 <0>         0.0644
     37 H4         -1.2712   -0.0820   -2.6427 H         1 <0>         0.4214
     38 H5         -1.6809    0.1935    1.1156 H         1 <0>         0.1092
     39 H6         -2.1743   -0.0405   -0.5957 H         1 <0>         0.0991
     40 H7         -1.2726   -2.4017   -0.4690 H         1 <0>         0.1294
     41 H8         -0.9665   -2.1446    1.2822 H         1 <0>         0.1429
     42 H9         -2.8680   -2.0339    2.8202 H         1 <0>         0.1374
     43 H10        -3.2256   -0.4946    1.9663 H         1 <0>         0.1323
     44 H11        -5.2401   -1.3726    3.1475 H         1 <0>         0.1208
     45 H12        -5.4830   -1.3423    1.3680 H         1 <0>         0.1024
     46 H13        -4.8608   -5.0202    0.9111 H         1 <0>         0.1182
     47 H14        -5.2597   -3.4963    0.0477 H         1 <0>         0.0994
     48 H15        -2.8533   -4.0603   -0.2210 H         1 <0>         0.1306
     49 H16        -2.6543   -4.0817    1.5641 H         1 <0>         0.1341
     50 H17        -7.0341   -3.5427    0.2318 H         1 <0>         0.1312
     51 H18        -9.4528   -3.9451    0.4557 H         1 <0>         0.1387
     52 H19        -9.0476   -4.0062    4.7030 H         1 <0>         0.1398
     53 H20        -6.6275   -3.6138    4.4767 H         1 <0>         0.1406
     54 H21        -4.5955   -5.0052    3.4730 H         1 <0>         0.4267
     55 H22        -1.9186    1.8831    0.0331 H         1 <0>         0.1234
     56 H23        -1.7593    4.2668   -0.5635 H         1 <0>         0.1284
     57 H24         0.3018    5.1451   -1.5851 H         1 <0>         0.1289
     58 H25         2.2065    3.6415   -2.0028 H         1 <0>         0.1289
     59 H26         2.0506    1.2597   -1.3976 H         1 <0>         0.1219
     60 H27         1.3165    1.7310    1.2653 H         1 <0>         0.1271
     61 H28         2.8828    1.2444    3.1019 H         1 <0>         0.1270
     62 H29         3.3820   -1.0892    3.7086 H         1 <0>         0.1266
     63 H30         2.3088   -2.9362    2.4838 H         1 <0>         0.1251
     64 H31         0.7354   -2.4495    0.6533 H         1 <0>         0.1194
     65 H32        -3.6206   -1.7541   -0.0794 H         1 <0>         0.4340
@<TRIPOS>BOND
     1    1    2 1
     2    1   34 1
     3    1   35 1
     4    1   36 1
     5    2    3 am
     6    2   37 1
     7    3    4 2
     8    3    5 1
     9    5    6 1
    10    5   22 1
    11    5   28 1
    12    6    7 1
    13    6   38 1
    14    6   39 1
    15    7    8 1
    16    7   40 1
    17    7   41 1
    18    8   13 1
    19    8    9 1
    20    8   65 1
    21    9   10 1
    22    9   42 1
    23    9   43 1
    24   10   11 1
    25   10   44 1
    26   10   45 1
    27   11   12 1
    28   11   14 1
    29   11   21 1
    30   12   13 1
    31   12   46 1
    32   12   47 1
    33   13   48 1
    34   13   49 1
    35   14   19 ar
    36   14   15 ar
    37   15   16 ar
    38   15   50 1
    39   16   17 ar
    40   16   51 1
    41   17   18 ar
    42   17   20 1
    43   18   19 ar
    44   18   52 1
    45   19   53 1
    46   21   54 1
    47   22   27 ar
    48   22   23 ar
    49   23   24 ar
    50   23   55 1
    51   24   25 ar
    52   24   56 1
    53   25   26 ar
    54   25   57 1
    55   26   27 ar
    56   26   58 1
    57   27   59 1
    58   28   33 ar
    59   28   29 ar
    60   29   30 ar
    61   29   60 1
    62   30   31 ar
    63   30   61 1
    64   31   32 ar
    65   31   62 1
    66   32   33 ar
    67   32   63 1
    68   33   64 1
@<TRIPOS>MOLECULE
ZINC00004351
   42    45     0     0     0
SMALL
USER_CHARGES

@<TRIPOS>ATOM
      1 C1         -0.0178    1.4648    0.0101 C.3       1 <0>        -0.0480
      2 N1          0.0021   -0.0041    0.0020 N.4       1 <0>        -0.3845
      3 C2          0.6740   -0.4746   -1.2151 C.3       1 <0>        -0.0030
      4 C3          0.5450   -1.9989   -1.3133 C.3       1 <0>        -0.1076
      5 C4          1.0748   -2.6020   -0.0289 C.2       1 <0>        -0.1507
      6 C5          1.9457   -3.6213   -0.0482 C.2       1 <0>         0.0325
      7 C6          2.4714   -4.2296    1.2045 C.ar      1 <0>        -0.0681
      8 C7          1.6308   -4.9026    2.0827 C.ar      1 <0>        -0.0982
      9 C8          2.1551   -5.4724    3.2269 C.ar      1 <0>        -0.1131
     10 C9          3.5089   -5.3754    3.4950 C.ar      1 <0>        -0.1011
     11 C10         4.3486   -4.6996    2.6262 C.ar      1 <0>        -0.1019
     12 C11         3.8347   -4.1191    1.4882 C.ar      1 <0>        -0.0681
     13 C12         4.7162   -3.3339    0.5488 C.3       1 <0>        -0.1115
     14 C13         4.8991   -4.1015   -0.7375 C.2       1 <0>         0.4326
     15 O1          6.0124   -4.4665   -1.0595 O.2       1 <0>        -0.4429
     16 C14         3.8196   -4.3991   -1.5624 C.2       1 <0>        -0.2884
     17 C15         2.4396   -4.2161   -1.3325 C.2       1 <0>        -0.0193
     18 C16         1.6254   -4.6279   -2.3801 C.2       1 <0>        -0.1807
     19 C17         2.1848   -5.1704   -3.4853 C.2       1 <0>        -0.2145
     20 S1          3.8482   -5.1428   -3.1740 S.3       1 <0>         0.2979
     21 C18         0.5864   -2.0126    1.2782 C.3       1 <0>        -0.1030
     22 C19         0.7124   -0.4873    1.1920 C.3       1 <0>        -0.0030
     23 H1          1.0047    1.8421    0.0024 H         1 <0>         0.1218
     24 H2         -0.5450    1.8259   -0.8730 H         1 <0>         0.1243
     25 H3         -0.5280    1.8163    0.9069 H         1 <0>         0.1247
     26 H4          0.2103   -0.0138   -2.0873 H         1 <0>         0.1343
     27 H5          1.7283   -0.2009   -1.1770 H         1 <0>         0.1292
     28 H6         -0.5023   -2.2718   -1.4432 H         1 <0>         0.1020
     29 H7          1.1283   -2.3636   -2.1588 H         1 <0>         0.1207
     30 H8          0.5743   -4.9796    1.8723 H         1 <0>         0.1273
     31 H9          1.5063   -5.9953    3.9139 H         1 <0>         0.1319
     32 H10         3.9131   -5.8293    4.3878 H         1 <0>         0.1325
     33 H11         5.4046   -4.6277    2.8407 H         1 <0>         0.1340
     34 H12         4.2511   -2.3718    0.3341 H         1 <0>         0.1024
     35 H13         5.6879   -3.1704    1.0149 H         1 <0>         0.1096
     36 H14         0.5533   -4.5159   -2.3122 H         1 <0>         0.1400
     37 H15         1.6823   -5.5336   -4.3695 H         1 <0>         0.1978
     38 H16        -0.4562   -2.2871    1.4386 H         1 <0>         0.1020
     39 H17         1.1963   -2.3861    2.1007 H         1 <0>         0.1211
     40 H18         1.7651   -0.2131    1.1231 H         1 <0>         0.1294
     41 H19         0.2770   -0.0359    2.0834 H         1 <0>         0.1347
     42 H20        -0.9452   -0.3513    0.0141 H         1 <0>         0.4245
@<TRIPOS>BOND
     1    1    2 1
     2    1   23 1
     3    1   24 1
     4    1   25 1
     5    2   22 1
     6    2    3 1
     7    2   42 1
     8    3    4 1
     9    3   26 1
    10    3   27 1
    11    4    5 1
    12    4   28 1
    13    4   29 1
    14    5    6 2
    15    5   21 1
    16    6   17 1
    17    6    7 1
    18    7   12 ar
    19    7    8 ar
    20    8    9 ar
    21    8   30 1
    22    9   10 ar
    23    9   31 1
    24   10   11 ar
    25   10   32 1
    26   11   12 ar
    27   11   33 1
    28   12   13 1
    29   13   14 1
    30   13   34 1
    31   13   35 1
    32   14   15 2
    33   14   16 1
    34   16   20 1
    35   16   17 2
    36   17   18 1
    37   18   19 2
    38   18   36 1
    39   19   20 1
    40   19   37 1
    41   21   22 1
    42   21   38 1
    43   21   39 1
    44   22   40 1
    45   22   41 1
@<TRIPOS>MOLECULE
ZINC03812892
   77    80     0     0     0
SMALL
USER_CHARGES

@<TRIPOS>ATOM
      1 C1         -5.6570   -1.8380   -5.8329 C.3       1 <0>        -0.1410
      2 C2         -5.2316   -3.3070   -5.7878 C.3       1 <0>        -0.0339
      3 C3         -5.1149   -3.7596   -4.3310 C.3       1 <0>        -0.1396
      4 C4         -6.2769   -4.1630   -6.5057 C.3       1 <0>        -0.1471
      5 C5         -3.8977   -3.4648   -6.4712 C.ar      1 <0>        -0.0573
      6 C6         -3.7802   -4.2876   -7.5758 C.ar      1 <0>        -0.1168
      7 C7         -2.5567   -4.4324   -8.2027 C.ar      1 <0>        -0.1067
      8 C8         -1.4508   -3.7541   -7.7253 C.ar      1 <0>        -0.1350
      9 C9         -1.5686   -2.9306   -6.6212 C.ar      1 <0>        -0.1088
     10 C10        -2.7930   -2.7825   -5.9969 C.ar      1 <0>        -0.1103
     11 C11        -0.1168   -3.9128   -8.4081 C.3       1 <0>         0.1533
     12 H1         -0.2727   -4.2002   -9.4478 H         1 <0>         0.1093
     13 C12         0.6951   -4.9963   -7.6956 C.3       1 <0>        -0.1445
     14 C13         1.9961   -5.2452   -8.4615 C.3       1 <0>        -0.1465
     15 C14         2.8080   -6.3287   -7.7490 C.3       1 <0>        -0.0105
     16 N1          4.0571   -6.5677   -8.4843 N.4       1 <0>        -0.3824
     17 C15         4.8871   -5.3578   -8.4420 C.3       1 <0>        -0.0079
     18 C16         6.1529   -5.5737   -9.2743 C.3       1 <0>        -0.1472
     19 C17         6.9399   -6.7549   -8.6994 C.3       1 <0>        -0.1198
     20 C18         6.0400   -7.9939   -8.6795 C.3       1 <0>        -0.1384
     21 C19         4.7784   -7.6883   -7.8693 C.3       1 <0>        -0.0058
     22 C20         8.1658   -7.0269   -9.5736 C.3       1 <0>         0.2364
     23 C21         9.0396   -5.7996   -9.6092 C.ar      1 <0>        -0.1208
     24 C22         9.4143   -5.1835   -8.4299 C.ar      1 <0>        -0.1129
     25 C23        10.2158   -4.0577   -8.4626 C.ar      1 <0>        -0.1158
     26 C24        10.6430   -3.5483   -9.6747 C.ar      1 <0>        -0.1101
     27 C25        10.2690   -4.1651  -10.8540 C.ar      1 <0>        -0.1131
     28 C26         9.4710   -5.2933  -10.8210 C.ar      1 <0>        -0.1068
     29 C27         8.9453   -8.1821   -9.0001 C.ar      1 <0>        -0.0827
     30 C28         9.3013   -8.1805   -7.6644 C.ar      1 <0>        -0.1158
     31 C29        10.0164   -9.2401   -7.1384 C.ar      1 <0>        -0.1179
     32 C30        10.3751  -10.3016   -7.9480 C.ar      1 <0>        -0.1104
     33 C31        10.0184  -10.3036   -9.2835 C.ar      1 <0>        -0.1181
     34 C32         9.2996   -9.2460   -9.8085 C.ar      1 <0>        -0.0910
     35 O1          7.7429   -7.3493  -10.8999 O.3       1 <0>        -0.5409
     36 O2          0.5943   -2.6743   -8.3578 O.3       1 <0>        -0.5537
     37 H2         -4.9123   -1.2282   -5.3215 H         1 <0>         0.0572
     38 H3         -5.7401   -1.5155   -6.8708 H         1 <0>         0.0574
     39 H4         -6.6218   -1.7238   -5.3387 H         1 <0>         0.0630
     40 H5         -6.0797   -3.6455   -3.8367 H         1 <0>         0.0629
     41 H6         -4.8118   -4.8062   -4.2989 H         1 <0>         0.0558
     42 H7         -4.3702   -3.1498   -3.8196 H         1 <0>         0.0568
     43 H8         -6.3600   -3.8405   -7.5436 H         1 <0>         0.0596
     44 H9         -5.9738   -5.2095   -6.4736 H         1 <0>         0.0586
     45 H10        -7.2417   -4.0488   -6.0114 H         1 <0>         0.0628
     46 H11        -4.6441   -4.8176   -7.9488 H         1 <0>         0.1307
     47 H12        -2.4646   -5.0758   -9.0653 H         1 <0>         0.1217
     48 H13        -0.7046   -2.4010   -6.2480 H         1 <0>         0.1176
     49 H14        -2.8859   -2.1362   -5.1366 H         1 <0>         0.1244
     50 H15         0.9270   -4.6692   -6.6821 H         1 <0>         0.0787
     51 H16         0.1148   -5.9182   -7.6560 H         1 <0>         0.0860
     52 H17         1.7641   -5.5723   -9.4750 H         1 <0>         0.0879
     53 H18         2.5764   -4.3234   -8.5011 H         1 <0>         0.0944
     54 H19         3.0399   -6.0016   -6.7355 H         1 <0>         0.1285
     55 H20         2.2277   -7.2506   -7.7094 H         1 <0>         0.1306
     56 H21         4.3245   -4.5174   -8.8485 H         1 <0>         0.1351
     57 H22         5.1637   -5.1434   -7.4097 H         1 <0>         0.1288
     58 H23         5.8774   -5.7879  -10.3069 H         1 <0>         0.0889
     59 H24         6.7686   -4.6749   -9.2401 H         1 <0>         0.1173
     60 H25         7.2596   -6.5203   -7.6841 H         1 <0>         0.1001
     61 H26         5.7622   -8.2584   -9.6998 H         1 <0>         0.0971
     62 H27         6.5751   -8.8251   -8.2202 H         1 <0>         0.1150
     63 H28         5.0574   -7.4243   -6.8492 H         1 <0>         0.1274
     64 H29         4.1356   -8.5685   -7.8530 H         1 <0>         0.1314
     65 H30         9.0806   -5.5814   -7.4830 H         1 <0>         0.1196
     66 H31        10.5080   -3.5759   -7.5413 H         1 <0>         0.1259
     67 H32        11.2686   -2.6684   -9.7003 H         1 <0>         0.1266
     68 H33        10.6025   -3.7669  -11.8009 H         1 <0>         0.1271
     69 H34         9.1819   -5.7773  -11.7422 H         1 <0>         0.1293
     70 H35         9.0210   -7.3512   -7.0319 H         1 <0>         0.1189
     71 H36        10.2951   -9.2385   -6.0950 H         1 <0>         0.1260
     72 H37        10.9345  -11.1291   -7.5372 H         1 <0>         0.1261
     73 H38        10.2990  -11.1328   -9.9161 H         1 <0>         0.1265
     74 H39         9.0176   -9.2493  -10.8511 H         1 <0>         0.1327
     75 H40         7.2342   -6.6493  -11.3316 H         1 <0>         0.3777
     76 H41         0.7687   -2.3570   -7.4611 H         1 <0>         0.3762
     77 H42         3.8432   -6.7930   -9.4443 H         1 <0>         0.4225
@<TRIPOS>BOND
     1    1    2 1
     2    1   37 1
     3    1   38 1
     4    1   39 1
     5    2    3 1
     6    2    4 1
     7    2    5 1
     8    3   40 1
     9    3   41 1
    10    3   42 1
    11    4   43 1
    12    4   44 1
    13    4   45 1
    14    5   10 ar
    15    5    6 ar
    16    6    7 ar
    17    6   46 1
    18    7    8 ar
    19    7   47 1
    20    8    9 ar
    21    8   11 1
    22    9   10 ar
    23    9   48 1
    24   10   49 1
    25   11   12 1
    26   11   13 1
    27   11   36 1
    28   13   14 1
    29   13   50 1
    30   13   51 1
    31   14   15 1
    32   14   52 1
    33   14   53 1
    34   15   16 1
    35   15   54 1
    36   15   55 1
    37   16   21 1
    38   16   17 1
    39   16   77 1
    40   17   18 1
    41   17   56 1
    42   17   57 1
    43   18   19 1
    44   18   58 1
    45   18   59 1
    46   19   20 1
    47   19   22 1
    48   19   60 1
    49   20   21 1
    50   20   61 1
    51   20   62 1
    52   21   63 1
    53   21   64 1
    54   22   23 1
    55   22   29 1
    56   22   35 1
    57   23   28 ar
    58   23   24 ar
    59   24   25 ar
    60   24   65 1
    61   25   26 ar
    62   25   66 1
    63   26   27 ar
    64   26   67 1
    65   27   28 ar
    66   27   68 1
    67   28   69 1
    68   29   34 ar
    69   29   30 ar
    70   30   31 ar
    71   30   70 1
    72   31   32 ar
    73   31   71 1
    74   32   33 ar
    75   32   72 1
    76   33   34 ar
    77   33   73 1
    78   34   74 1
    79   35   75 1
    80   36   76 1
@<TRIPOS>MOLECULE
ZINC03831511
   77    80     0     0     0
SMALL
USER_CHARGES

@<TRIPOS>ATOM
      1 C1          8.5157   -0.1133    0.5257 C.3       1 <0>        -0.1396
      2 C2          8.2329   -1.6122    0.4070 C.3       1 <0>        -0.0339
      3 C3          9.4003   -2.4003    1.0044 C.3       1 <0>        -0.1410
      4 C4          6.9480   -1.9504    1.1657 C.3       1 <0>        -0.1471
      5 C5          8.0700   -1.9792   -1.0455 C.ar      1 <0>        -0.0570
      6 C6          6.8812   -2.5261   -1.4911 C.ar      1 <0>        -0.1171
      7 C7          6.7318   -2.8628   -2.8235 C.ar      1 <0>        -0.1058
      8 C8          7.7711   -2.6522   -3.7103 C.ar      1 <0>        -0.1351
      9 C9          8.9595   -2.1045   -3.2649 C.ar      1 <0>        -0.1088
     10 C10         9.1074   -1.7638   -1.9334 C.ar      1 <0>        -0.1105
     11 C11         7.6085   -3.0201   -5.1627 C.3       1 <0>         0.1534
     12 H1          6.7941   -3.7370   -5.2669 H         1 <0>         0.1083
     13 C12         7.2888   -1.7633   -5.9745 C.3       1 <0>        -0.1447
     14 C13         7.0011   -2.1531   -7.4258 C.3       1 <0>        -0.1461
     15 C14         6.6814   -0.8963   -8.2376 C.3       1 <0>        -0.0105
     16 N1          6.4052   -1.2705   -9.6310 N.4       1 <0>        -0.3824
     17 C15         5.1925   -2.0957   -9.6833 C.3       1 <0>        -0.0077
     18 C16         4.9455   -2.5556  -11.1217 C.3       1 <0>        -0.1474
     19 C17         4.7691   -1.3287  -12.0210 C.3       1 <0>        -0.1197
     20 C18         6.0089   -0.4378  -11.9013 C.3       1 <0>        -0.1385
     21 C19         6.2165   -0.0564  -10.4340 C.3       1 <0>        -0.0057
     22 C20         4.6009   -1.7789  -13.4735 C.3       1 <0>         0.2363
     23 C21         3.3927   -2.6726  -13.5857 C.ar      1 <0>        -0.1208
     24 C22         2.1799   -2.2641  -13.0630 C.ar      1 <0>        -0.1130
     25 C23         1.0716   -3.0839  -13.1659 C.ar      1 <0>        -0.1159
     26 C24         1.1760   -4.3120  -13.7919 C.ar      1 <0>        -0.1102
     27 C25         2.3886   -4.7200  -14.3155 C.ar      1 <0>        -0.1131
     28 C26         3.4958   -3.8984  -14.2163 C.ar      1 <0>        -0.1068
     29 C27         4.4159   -0.5710  -14.3556 C.ar      1 <0>        -0.0827
     30 C28         3.4639    0.3789  -14.0360 C.ar      1 <0>        -0.1158
     31 C29         3.2942    1.4868  -14.8450 C.ar      1 <0>        -0.1179
     32 C30         4.0769    1.6450  -15.9735 C.ar      1 <0>        -0.1103
     33 C31         5.0295    0.6955  -16.2925 C.ar      1 <0>        -0.1181
     34 C32         5.2021   -0.4102  -15.4811 C.ar      1 <0>        -0.0909
     35 O1          5.7648   -2.4972  -13.8874 O.3       1 <0>        -0.5409
     36 O2          8.8208   -3.6031   -5.6449 O.3       1 <0>        -0.5535
     37 H2          9.4311    0.1277   -0.0148 H         1 <0>         0.0568
     38 H3          7.6840    0.4482    0.1001 H         1 <0>         0.0558
     39 H4          8.6335    0.1522    1.5763 H         1 <0>         0.0630
     40 H5          9.5181   -2.1349    2.0550 H         1 <0>         0.0630
     41 H6          9.1989   -3.4682    0.9199 H         1 <0>         0.0575
     42 H7         10.3157   -2.1594    0.4639 H         1 <0>         0.0572
     43 H8          6.1163   -1.3889    0.7401 H         1 <0>         0.0585
     44 H9          6.7465   -3.0183    1.0812 H         1 <0>         0.0596
     45 H10         7.0658   -1.6849    2.2163 H         1 <0>         0.0628
     46 H11         6.0693   -2.6907   -0.7982 H         1 <0>         0.1306
     47 H12         5.8033   -3.2907   -3.1715 H         1 <0>         0.1216
     48 H13         9.7716   -1.9402   -3.9577 H         1 <0>         0.1174
     49 H14        10.0346   -1.3325   -1.5861 H         1 <0>         0.1245
     50 H15         6.4142   -1.2698   -5.5507 H         1 <0>         0.0854
     51 H16         8.1405   -1.0838   -5.9427 H         1 <0>         0.0792
     52 H17         7.8757   -2.6466   -7.8496 H         1 <0>         0.0944
     53 H18         6.1495   -2.8326   -7.4575 H         1 <0>         0.0876
     54 H19         5.8068   -0.4027   -7.8138 H         1 <0>         0.1286
     55 H20         7.5331   -0.2168   -8.2059 H         1 <0>         0.1305
     56 H21         5.3183   -2.9669   -9.0404 H         1 <0>         0.1340
     57 H22         4.3402   -1.5105   -9.3380 H         1 <0>         0.1290
     58 H23         5.7972   -3.1412  -11.4679 H         1 <0>         0.0892
     59 H24         4.0437   -3.1667  -11.1587 H         1 <0>         0.1172
     60 H25         3.8873   -0.7703  -11.7068 H         1 <0>         0.1001
     61 H26         6.8827   -0.9794  -12.2637 H         1 <0>         0.0972
     62 H27         5.8672    0.4650  -12.4955 H         1 <0>         0.1151
     63 H28         5.3424    0.4854  -10.0727 H         1 <0>         0.1274
     64 H29         7.0983    0.5781  -10.3452 H         1 <0>         0.1315
     65 H30         2.0983   -1.3047  -12.5739 H         1 <0>         0.1196
     66 H31         0.1243   -2.7651  -12.7569 H         1 <0>         0.1258
     67 H32         0.3103   -4.9527  -13.8717 H         1 <0>         0.1266
     68 H33         2.4702   -5.6796  -14.8043 H         1 <0>         0.1272
     69 H34         4.4423   -4.2156  -14.6286 H         1 <0>         0.1294
     70 H35         2.8524    0.2553  -13.1544 H         1 <0>         0.1188
     71 H36         2.5499    2.2287  -14.5958 H         1 <0>         0.1260
     72 H37         3.9438    2.5103  -16.6060 H         1 <0>         0.1261
     73 H38         5.6408    0.8189  -17.1743 H         1 <0>         0.1265
     74 H39         5.9489   -1.1502  -15.7284 H         1 <0>         0.1327
     75 H40         5.9458   -3.2889  -13.3624 H         1 <0>         0.3777
     76 H41         9.5897   -3.0199   -5.5826 H         1 <0>         0.3768
     77 H42         7.1840   -1.7972   -9.9974 H         1 <0>         0.4229
@<TRIPOS>BOND
     1    1    2 1
     2    1   37 1
     3    1   38 1
     4    1   39 1
     5    2    3 1
     6    2    4 1
     7    2    5 1
     8    3   40 1
     9    3   41 1
    10    3   42 1
    11    4   43 1
    12    4   44 1
    13    4   45 1
    14    5   10 ar
    15    5    6 ar
    16    6    7 ar
    17    6   46 1
    18    7    8 ar
    19    7   47 1
    20    8    9 ar
    21    8   11 1
    22    9   10 ar
    23    9   48 1
    24   10   49 1
    25   11   12 1
    26   11   13 1
    27   11   36 1
    28   13   14 1
    29   13   50 1
    30   13   51 1
    31   14   15 1
    32   14   52 1
    33   14   53 1
    34   15   16 1
    35   15   54 1
    36   15   55 1
    37   16   21 1
    38   16   17 1
    39   16   77 1
    40   17   18 1
    41   17   56 1
    42   17   57 1
    43   18   19 1
    44   18   58 1
    45   18   59 1
    46   19   20 1
    47   19   22 1
    48   19   60 1
    49   20   21 1
    50   20   61 1
    51   20   62 1
    52   21   63 1
    53   21   64 1
    54   22   23 1
    55   22   29 1
    56   22   35 1
    57   23   28 ar
    58   23   24 ar
    59   24   25 ar
    60   24   65 1
    61   25   26 ar
    62   25   66 1
    63   26   27 ar
    64   26   67 1
    65   27   28 ar
    66   27   68 1
    67   28   69 1
    68   29   34 ar
    69   29   30 ar
    70   30   31 ar
    71   30   70 1
    72   31   32 ar
    73   31   71 1
    74   32   33 ar
    75   32   72 1
    76   33   34 ar
    77   33   73 1
    78   34   74 1
    79   35   75 1
    80   36   76 1
@<TRIPOS>MOLECULE
ZINC03961870
   57    60     0     0     0
SMALL
USER_CHARGES

@<TRIPOS>ATOM
      1 C1         -1.2666    0.4432    0.5823 C.3       1 <0>         0.1083
      2 N1          0.0021   -0.0041    0.0020 N.pl3     1 <0>        -0.6766
      3 C2          1.2692    0.3682    0.6361 C.3       1 <0>         0.1068
      4 C3          0.0035   -0.7752   -1.1405 C.ar      1 <0>         0.6033
      5 C4          0.0431   -0.1734   -2.4234 C.ar      1 <0>        -0.1837
      6 C5          0.0828    1.2149   -2.5907 C.ar      1 <0>        -0.0158
      7 C6          0.1203    1.7396   -3.8494 C.ar      1 <0>        -0.1225
      8 C7          0.1192    0.9124   -4.9687 C.ar      1 <0>        -0.0114
      9 C8          0.0806   -0.4443   -4.8394 C.ar      1 <0>        -0.1535
     10 C9          0.0425   -1.0168   -3.5607 C.ar      1 <0>         0.1913
     11 N2          0.0047   -2.3454   -3.3797 N.ar      1 <0>        -0.5649
     12 C10        -0.0317   -2.8528   -2.1625 C.ar      1 <0>         0.6628
     13 N3         -0.0266   -2.0975   -1.0674 N.ar      1 <0>        -0.5488
     14 N4         -0.0709   -4.2279   -2.0188 N.pl3     1 <0>        -0.6587
     15 C11        -0.0714   -5.0885   -3.2044 C.3       1 <0>         0.1192
     16 C12         1.3687   -5.3246   -3.6639 C.3       1 <0>        -0.1369
     17 C13         1.3681   -6.2234   -4.9021 C.3       1 <0>        -0.1270
     18 C14         0.7161   -7.5642   -4.5586 C.3       1 <0>         0.1419
     19 C15        -0.7241   -7.3282   -4.0990 C.3       1 <0>        -0.1296
     20 C16        -0.7234   -6.4293   -2.8609 C.3       1 <0>        -0.1228
     21 N5          0.7155   -8.4249   -5.7441 N.am      1 <0>        -0.7247
     22 C17         0.6773   -9.7648   -5.6041 C.2       1 <0>         0.5675
     23 O1          0.6433  -10.2593   -4.4940 O.2       1 <0>        -0.5209
     24 C18         0.6767  -10.6327   -6.7996 C.ar      1 <0>        -0.1256
     25 C19         0.7214  -10.0673   -8.0757 C.ar      1 <0>        -0.0674
     26 C20         0.7206  -10.8807   -9.1887 C.ar      1 <0>        -0.1311
     27 C21         0.6756  -12.2585   -9.0439 C.ar      1 <0>         0.1011
     28 C22         0.6305  -12.8270   -7.7781 C.ar      1 <0>         0.0668
     29 C23         0.6371  -12.0212   -6.6571 C.ar      1 <0>        -0.0647
     30 F1          0.5858  -14.1705   -7.6431 F         1 <0>        -0.1178
     31 F2          0.6750  -13.0508  -10.1382 F         1 <0>        -0.1167
     32 H1         -1.4995    1.4441    0.2188 H         1 <0>         0.0620
     33 H2         -2.0615   -0.2433    0.2908 H         1 <0>         0.0650
     34 H3         -1.1827    0.4616    1.6689 H         1 <0>         0.0832
     35 H4          1.5461   -0.3907    1.3678 H         1 <0>         0.0586
     36 H5          2.0476    0.4419   -0.1234 H         1 <0>         0.0644
     37 H6          1.1566    1.3305    1.1355 H         1 <0>         0.0887
     38 H7          0.0833    1.8666   -1.7295 H         1 <0>         0.1585
     39 H8          0.1509    2.8113   -3.9790 H         1 <0>         0.1545
     40 H9          0.1489    1.3520   -5.9548 H         1 <0>         0.1575
     41 H10         0.0799   -1.0739   -5.7168 H         1 <0>         0.1562
     42 H11        -0.0980   -4.6224   -1.1331 H         1 <0>         0.4436
     43 H12        -0.6334   -4.6055   -4.0038 H         1 <0>         0.0923
     44 H13         1.8332   -4.3693   -3.9087 H         1 <0>         0.0712
     45 H14         1.9306   -5.8076   -2.8646 H         1 <0>         0.0923
     46 H15         0.8061   -5.7404   -5.7015 H         1 <0>         0.0763
     47 H16         2.3940   -6.3916   -5.2295 H         1 <0>         0.0894
     48 H17         1.2780   -8.0473   -3.7592 H         1 <0>         0.0988
     49 H18        -1.2860   -6.8451   -4.8984 H         1 <0>         0.0736
     50 H19        -1.1886   -8.2834   -3.8543 H         1 <0>         0.0893
     51 H20        -0.1615   -6.9124   -2.0615 H         1 <0>         0.0888
     52 H21        -1.7494   -6.2612   -2.5335 H         1 <0>         0.0871
     53 H22         0.7426   -8.0304   -6.6298 H         1 <0>         0.4025
     54 H23         0.7562   -8.9940   -8.1906 H         1 <0>         0.1425
     55 H24         0.7549  -10.4435  -10.1756 H         1 <0>         0.1568
     56 H25         0.6073  -12.4635   -5.6724 H         1 <0>         0.1616
     57 H26         0.0037   -2.9368   -4.1486 H         1 <0>         0.4377
@<TRIPOS>BOND
     1    1    2 1
     2    1   32 1
     3    1   33 1
     4    1   34 1
     5    2    3 1
     6    2    4 1
     7    3   35 1
     8    3   36 1
     9    3   37 1
    10    4   13 ar
    11    4    5 ar
    12    5   10 ar
    13    5    6 ar
    14    6    7 ar
    15    6   38 1
    16    7    8 ar
    17    7   39 1
    18    8    9 ar
    19    8   40 1
    20    9   10 ar
    21    9   41 1
    22   10   11 ar
    23   11   12 ar
    24   11   57 1
    25   12   13 ar
    26   12   14 1
    27   14   15 1
    28   14   42 1
    29   15   20 1
    30   15   16 1
    31   15   43 1
    32   16   17 1
    33   16   44 1
    34   16   45 1
    35   17   18 1
    36   17   46 1
    37   17   47 1
    38   18   19 1
    39   18   21 1
    40   18   48 1
    41   19   20 1
    42   19   49 1
    43   19   50 1
    44   20   51 1
    45   20   52 1
    46   21   22 am
    47   21   53 1
    48   22   23 2
    49   22   24 1
    50   24   29 ar
    51   24   25 ar
    52   25   26 ar
    53   25   54 1
    54   26   27 ar
    55   26   55 1
    56   27   28 ar
    57   27   31 1
    58   28   29 ar
    59   28   30 1
    60   29   56 1
@<TRIPOS>MOLECULE
ZINC04097188
   68    72     0     0     0
SMALL
USER_CHARGES

@<TRIPOS>ATOM
      1 C1         -0.0187    1.5258    0.0104 C.3       1 <0>        -0.1896
      2 C2          0.0021   -0.0041    0.0020 C.3       1 <0>         0.0255
      3 H1         -1.0107   -0.3920    0.1113 H         1 <0>         0.1397
      4 C3          0.6266   -0.5176   -1.3119 C.3       1 <0>        -0.0884
      5 H2         -0.1119   -0.6752   -2.0979 H         1 <0>         0.1302
      6 C4          1.7513    0.4610   -1.7327 C.3       1 <0>        -0.1475
      7 C5          3.0882   -0.3174   -1.6037 C.3       1 <0>        -0.1270
      8 C6          2.6513   -1.7814   -1.7325 C.3       1 <0>        -0.0772
      9 H3          2.4325   -2.0219   -2.7729 H         1 <0>         0.0970
     10 C7          1.3395   -1.8095   -0.8929 C.3       1 <0>        -0.0735
     11 C8          0.6189   -3.1144   -1.1352 C.3       1 <0>        -0.1068
     12 C9          1.5255   -4.2387   -0.6081 C.3       1 <0>        -0.1247
     13 C10         2.9025   -4.2081   -1.2664 C.3       1 <0>        -0.0754
     14 H4          2.7799   -4.4153   -2.3295 H         1 <0>         0.0765
     15 C11         3.6083   -2.8046   -1.1440 C.3       1 <0>        -0.0714
     16 H5          3.8076   -2.5762   -0.0970 H         1 <0>         0.0770
     17 C12         4.9054   -2.8147   -1.9610 C.3       1 <0>        -0.0900
     18 C13         5.7800   -3.9386   -1.4875 C.2       1 <0>        -0.1193
     19 C14         5.3091   -5.0156   -0.9305 C.2       1 <0>        -0.1319
     20 C15         3.7793   -5.2940   -0.6651 C.3       1 <0>        -0.0080
     21 C16         3.3854   -6.6607   -1.2326 C.3       1 <0>        -0.1059
     22 C17         4.2846   -7.7398   -0.6263 C.3       1 <0>        -0.1415
     23 C18         5.7383   -7.4868   -1.0294 C.3       1 <0>         0.0191
     24 H6          5.8126   -7.4485   -2.1162 H         1 <0>         0.1323
     25 C19         6.2918   -6.0912   -0.4987 C.3       1 <0>        -0.0926
     26 N1          6.5843   -8.5737   -0.5188 N.4       1 <0>        -0.3856
     27 C20         6.1344   -9.8521   -1.0856 C.3       1 <0>        -0.0533
     28 C21         7.9804   -8.3307   -0.9059 C.3       1 <0>        -0.0523
     29 C22         3.5249   -5.3314    0.8432 C.3       1 <0>        -0.1541
     30 C23         1.6785   -1.6179    0.5905 C.3       1 <0>        -0.0109
     31 N2          0.8553   -0.5039    1.0939 N.4       1 <0>        -0.3835
     32 C24         1.7293    0.5772    1.5687 C.3       1 <0>        -0.0584
     33 H7          0.9999    1.9024    0.1036 H         1 <0>         0.0926
     34 H8         -0.4565    1.8883   -0.9196 H         1 <0>         0.1058
     35 H9         -0.6143    1.8764    0.8533 H         1 <0>         0.0849
     36 H10         1.6026    0.7791   -2.7646 H         1 <0>         0.0891
     37 H11         1.7586    1.3277   -1.0717 H         1 <0>         0.0873
     38 H12         3.7708   -0.0468   -2.4093 H         1 <0>         0.0867
     39 H13         3.5471   -0.1364   -0.6316 H         1 <0>         0.0660
     40 H14        -0.3296   -3.1199   -0.5982 H         1 <0>         0.0755
     41 H15         0.4432   -3.2488   -2.2025 H         1 <0>         0.0875
     42 H16         1.6440   -4.1243    0.4694 H         1 <0>         0.0702
     43 H17         1.0549   -5.2004   -0.8126 H         1 <0>         0.0787
     44 H18         4.6701   -2.9562   -3.0158 H         1 <0>         0.0865
     45 H19         5.4269   -1.8668   -1.8277 H         1 <0>         0.0825
     46 H20         6.8487   -3.8493   -1.6154 H         1 <0>         0.1148
     47 H21         2.3454   -6.8718   -0.9837 H         1 <0>         0.0889
     48 H22         3.5061   -6.6531   -2.3159 H         1 <0>         0.0766
     49 H23         4.1999   -7.7141    0.4601 H         1 <0>         0.0908
     50 H24         3.9725   -8.7186   -0.9905 H         1 <0>         0.0937
     51 H25         7.2866   -5.8521   -0.8747 H         1 <0>         0.1020
     52 H26         6.3149   -6.1520    0.5894 H         1 <0>         0.0859
     53 H27         6.2087   -9.8138   -2.1724 H         1 <0>         0.1230
     54 H28         6.7622  -10.6586   -0.7067 H         1 <0>         0.1276
     55 H29         5.0985  -10.0324   -0.7983 H         1 <0>         0.1250
     56 H30         8.3143   -7.3822   -0.4853 H         1 <0>         0.1232
     57 H31         8.6082   -9.1372   -0.5270 H         1 <0>         0.1273
     58 H32         8.0547   -8.2924   -1.9927 H         1 <0>         0.1229
     59 H33         2.4738   -5.5523    1.0290 H         1 <0>         0.0706
     60 H34         4.1445   -6.1048    1.2971 H         1 <0>         0.0559
     61 H35         3.7751   -4.3637    1.2779 H         1 <0>         0.0573
     62 H36         1.4462   -2.5280    1.1437 H         1 <0>         0.1322
     63 H37         2.7357   -1.3763    0.7002 H         1 <0>         0.1342
     64 H38         1.1195    1.4035    1.9341 H         1 <0>         0.1302
     65 H39         2.3601    0.2062    2.3765 H         1 <0>         0.1217
     66 H40         2.3568    0.9241    0.7477 H         1 <0>         0.1231
     67 H41         0.2758   -0.8278    1.8537 H         1 <0>         0.4270
     68 H42         6.5156   -8.6091    0.4873 H         1 <0>         0.4242
@<TRIPOS>BOND
     1    1    2 1
     2    1   33 1
     3    1   34 1
     4    1   35 1
     5    2    3 1
     6    2   31 1
     7    2    4 1
     8    4    5 1
     9    4   10 1
    10    4    6 1
    11    6    7 1
    12    6   36 1
    13    6   37 1
    14    7    8 1
    15    7   38 1
    16    7   39 1
    17    8    9 1
    18    8   15 1
    19    8   10 1
    20   10   11 1
    21   10   30 1
    22   11   12 1
    23   11   40 1
    24   11   41 1
    25   12   13 1
    26   12   42 1
    27   12   43 1
    28   13   14 1
    29   13   20 1
    30   13   15 1
    31   15   16 1
    32   15   17 1
    33   17   18 1
    34   17   44 1
    35   17   45 1
    36   18   19 2
    37   18   46 1
    38   19   25 1
    39   19   20 1
    40   20   21 1
    41   20   29 1
    42   21   22 1
    43   21   47 1
    44   21   48 1
    45   22   23 1
    46   22   49 1
    47   22   50 1
    48   23   24 1
    49   23   25 1
    50   23   26 1
    51   25   51 1
    52   25   52 1
    53   26   27 1
    54   26   28 1
    55   26   68 1
    56   27   53 1
    57   27   54 1
    58   27   55 1
    59   28   56 1
    60   28   57 1
    61   28   58 1
    62   29   59 1
    63   29   60 1
    64   29   61 1
    65   30   31 1
    66   30   62 1
    67   30   63 1
    68   31   32 1
    69   31   67 1
    70   32   64 1
    71   32   65 1
    72   32   66 1
@<TRIPOS>MOLECULE
ZINC03825965
   61    64     0     0     0
SMALL
USER_CHARGES
2-[4-[4-(7-methoxy-1-naphthyl)piperazin-1-yl]butyl]-4-methyl-1,2,4-triazine-3,5-dione
@<TRIPOS>ATOM
      1 C1         -2.0231    1.8137    0.6582 C.3       1 <0>         0.0742
      2 N1         -0.7874    2.5524    0.3867 N.am      1 <0>        -0.5564
      3 C2         -0.8326    3.8813    0.1583 C.2       1 <0>         0.5084
      4 O1         -1.8956    4.4738    0.1762 O.2       1 <0>        -0.4669
      5 C3          0.4140    4.6017   -0.1163 C.2       1 <0>         0.0634
      6 N2          1.5380    3.9407   -0.1287 N.2       1 <0>        -0.1777
      7 N3          1.5393    2.5628    0.1185 N.am      1 <0>        -0.4527
      8 C4          0.3932    1.9057    0.3704 C.2       1 <0>         0.6789
      9 O2          0.4233    0.7087    0.5818 O.2       1 <0>        -0.5327
     10 C5          2.8060    1.8269    0.1029 C.3       1 <0>         0.1443
     11 C6          3.0823    1.3171   -1.3129 C.3       1 <0>        -0.1367
     12 C7          4.4051    0.5485   -1.3292 C.3       1 <0>        -0.1456
     13 C8          4.6814    0.0387   -2.7450 C.3       1 <0>        -0.0029
     14 C9          7.0843    0.1963   -2.4877 C.3       1 <0>        -0.0008
     15 C10         8.3766   -0.6219   -2.4340 C.3       1 <0>         0.0217
     16 N4          8.5611   -1.3257   -3.7108 N.pl3     1 <0>        -0.4829
     17 C11         7.4284   -2.2213   -3.9837 C.3       1 <0>         0.0173
     18 C12         6.1361   -1.4030   -4.0374 C.3       1 <0>         0.0026
     19 C13         9.7664   -2.0260   -3.7256 C.ar      1 <0>         0.0812
     20 C14        10.4947   -2.1813   -2.5657 C.ar      1 <0>        -0.1408
     21 C15        11.6964   -2.8835   -2.5687 C.ar      1 <0>        -0.1158
     22 C16        12.1912   -3.4252   -3.7158 C.ar      1 <0>        -0.0881
     23 C17        11.4824   -3.2847   -4.9213 C.ar      1 <0>        -0.0708
     24 C18        10.2549   -2.5774   -4.9297 C.ar      1 <0>        -0.0049
     25 C19         9.5469   -2.4379   -6.1332 C.ar      1 <0>        -0.1649
     26 C20        10.0499   -2.9838   -7.2801 C.ar      1 <0>         0.1412
     27 C21        11.2610   -3.6818   -7.2702 C.ar      1 <0>        -0.1852
     28 C22        11.9704   -3.8345   -6.1198 C.ar      1 <0>        -0.0583
     29 O3          9.3633   -2.8476   -8.4452 O.3       1 <0>        -0.3171
     30 C23         9.9390   -3.4413   -9.6106 C.3       1 <0>         0.0231
     31 H1         -2.2167    1.8112    1.7308 H         1 <0>         0.0809
     32 H2         -2.8540    2.2926    0.1401 H         1 <0>         0.0986
     33 H3         -1.9180    0.7877    0.3055 H         1 <0>         0.0965
     34 H4          0.4017    5.6648   -0.3060 H         1 <0>         0.2278
     35 H5          3.6143    2.4882    0.4152 H         1 <0>         0.1043
     36 H6          2.7433    0.9812    0.7878 H         1 <0>         0.1061
     37 H7          2.2740    0.6558   -1.6252 H         1 <0>         0.0811
     38 H8          3.1449    2.1627   -1.9978 H         1 <0>         0.0840
     39 H9          5.2134    1.2098   -1.0169 H         1 <0>         0.0927
     40 H10         4.3425   -0.2971   -0.6443 H         1 <0>         0.0923
     41 H11         3.8731   -0.6226   -3.0573 H         1 <0>         0.1313
     42 H12         4.7441    0.8843   -3.4299 H         1 <0>         0.1342
     43 H13         7.1581    0.9411   -3.2801 H         1 <0>         0.1413
     44 H14         6.9304    0.6962   -1.5314 H         1 <0>         0.1384
     45 H15         8.3135   -1.3486   -1.6240 H         1 <0>         0.0709
     46 H16         9.2218    0.0441   -2.2604 H         1 <0>         0.1291
     47 H17         7.3545   -2.9661   -3.1914 H         1 <0>         0.0693
     48 H18         7.5822   -2.7212   -4.9400 H         1 <0>         0.1333
     49 H19         5.2909   -2.0691   -4.2110 H         1 <0>         0.1378
     50 H20         6.1987   -0.6764   -4.8475 H         1 <0>         0.1413
     51 H21        10.1265   -1.7571   -1.6432 H         1 <0>         0.1270
     52 H22        12.2479   -2.9965   -1.6471 H         1 <0>         0.1296
     53 H23        13.1276   -3.9630   -3.6992 H         1 <0>         0.1330
     54 H24         8.6099   -1.9012   -6.1528 H         1 <0>         0.1365
     55 H25        11.6388   -4.1055   -8.1890 H         1 <0>         0.1364
     56 H26        12.9046   -4.3763   -6.1269 H         1 <0>         0.1387
     57 H27         9.2919   -3.2592  -10.4686 H         1 <0>         0.1058
     58 H28        10.9195   -3.0024   -9.7954 H         1 <0>         0.0600
     59 H29        10.0448   -4.5152   -9.4568 H         1 <0>         0.0595
     60 N5          5.9513   -0.7185   -2.7404 N.4       1 <0>        -0.3980
     61 H30         5.9174   -1.4221   -1.9934 H         1 <0>         0.4253
@<TRIPOS>BOND
     1    1    2 1
     2    1   31 1
     3    1   32 1
     4    1   33 1
     5    2    8 am
     6    2    3 am
     7    3    4 2
     8    3    5 1
     9    5    6 2
    10    5   34 1
    11    6    7 1
    12    7    8 am
    13    7   10 1
    14    8    9 2
    15   10   11 1
    16   10   35 1
    17   10   36 1
    18   11   12 1
    19   11   37 1
    20   11   38 1
    21   12   13 1
    22   12   39 1
    23   12   40 1
    24   13   41 1
    25   13   42 1
    26   13   60 1
    27   14   15 1
    28   14   43 1
    29   14   44 1
    30   14   60 1
    31   15   16 1
    32   15   45 1
    33   15   46 1
    34   16   17 1
    35   16   19 1
    36   17   18 1
    37   17   47 1
    38   17   48 1
    39   18   49 1
    40   18   50 1
    41   18   60 1
    42   19   24 ar
    43   19   20 ar
    44   20   21 ar
    45   20   51 1
    46   21   22 ar
    47   21   52 1
    48   22   23 ar
    49   22   53 1
    50   23   28 ar
    51   23   24 ar
    52   24   25 ar
    53   25   26 ar
    54   25   54 1
    55   26   27 ar
    56   26   29 1
    57   27   28 ar
    58   27   55 1
    59   28   56 1
    60   29   30 1
    61   30   57 1
    62   30   58 1
    63   30   59 1
    64   60   61 1
@<TRIPOS>MOLECULE
ZINC28825320
   52    54     0     0     0
SMALL
USER_CHARGES
4-[[3-[4-(1-piperidyl)but-1-ynyl]phenyl]methyl]morpholine
@<TRIPOS>ATOM
      1 C1          1.1717    1.7833    0.0004 C.ar      1 <0>        -0.1156
      2 C2          1.1546    3.1668    0.0071 C.ar      1 <0>        -0.0925
      3 C3         -0.0483    3.8495    0.0218 C.ar      1 <0>        -0.0758
      4 C4         -1.2399    3.1537    0.0299 C.ar      1 <0>        -0.0662
      5 C5         -1.2296    1.7586    0.0174 C.ar      1 <0>        -0.0152
      6 C6         -0.0126    1.0758    0.0080 C.ar      1 <0>        -0.0863
      7 C7         -2.4627    1.0304    0.0198 C.1       1 <0>        -0.0621
      8 C8         -3.4735    0.4334    0.0217 C.1       1 <0>        -0.2146
      9 C9         -4.7410   -0.3151    0.0242 C.3       1 <0>        -0.0142
     10 C10        -5.9137    0.6676    0.0349 C.3       1 <0>        -0.0041
     11 N1         -7.1785   -0.0794    0.0374 N.4       1 <0>        -0.3978
     12 C11        -7.3519   -0.8248   -1.2159 C.3       1 <0>        -0.0113
     13 C12        -8.6024   -1.7019   -1.1205 C.3       1 <0>        -0.1465
     14 C13        -9.8231   -0.8153   -0.8591 C.3       1 <0>        -0.1415
     15 C14        -9.5962   -0.0140    0.4258 C.3       1 <0>        -0.1468
     16 C15        -8.3170    0.8143    0.2856 C.3       1 <0>        -0.0039
     17 C16        -0.0575    5.3565    0.0294 C.3       1 <0>         0.0883
     18 N2         -0.0734    5.8531   -1.3530 N.3       1 <0>        -0.5323
     19 C17         1.1797    5.5211   -2.0465 C.3       1 <0>         0.0106
     20 C18         1.0968    6.0030   -3.4973 C.3       1 <0>         0.0619
     21 O1          0.8247    7.4070   -3.5132 O.3       1 <0>        -0.3823
     22 C19        -0.3888    7.7658   -2.8470 C.3       1 <0>         0.0617
     23 C20        -0.3210    7.3018   -1.3896 C.3       1 <0>         0.0150
     24 H1          2.1142    1.2561   -0.0110 H         1 <0>         0.1341
     25 H2          2.0845    3.7160    0.0005 H         1 <0>         0.1281
     26 H3         -2.1785    3.6879    0.0417 H         1 <0>         0.1269
     27 H4          0.0021   -0.0041    0.0020 H         1 <0>         0.1280
     28 H5         -4.7975   -0.9435   -0.8768 H         1 <0>         0.1071
     29 H6         -4.7886   -0.9526    0.9194 H         1 <0>         0.1086
     30 H7         -5.8572    1.2960    0.9359 H         1 <0>         0.1358
     31 H8         -5.8661    1.3051   -0.8603 H         1 <0>         0.1314
     32 H9         -7.4636   -0.1174   -2.0508 H         1 <0>         0.1269
     33 H10        -6.4711   -1.4605   -1.3893 H         1 <0>         0.1319
     34 H11        -8.7397   -2.2486   -2.0651 H         1 <0>         0.1121
     35 H12        -8.4848   -2.4196   -0.2952 H         1 <0>         0.0889
     36 H13        -9.9633   -0.1258   -1.7047 H         1 <0>         0.0811
     37 H14       -10.7174   -1.4461   -0.7482 H         1 <0>         0.0945
     38 H15       -10.4520    0.6558    0.5961 H         1 <0>         0.1124
     39 H16        -9.4964   -0.7048    1.2760 H         1 <0>         0.0889
     40 H17        -8.1436    1.3801    1.2128 H         1 <0>         0.1312
     41 H18        -8.4242    1.5141   -0.5563 H         1 <0>         0.1262
     42 H19        -0.9530    5.7150    0.5581 H         1 <0>         0.0888
     43 H20         0.8432    5.7261    0.5414 H         1 <0>         0.0521
     44 H21         2.0212    6.0172   -1.5408 H         1 <0>         0.0468
     45 H22         1.3315    4.4318   -2.0280 H         1 <0>         0.0897
     46 H23         2.0534    5.8072   -4.0039 H         1 <0>         0.1015
     47 H24         0.2900    5.4653   -4.0168 H         1 <0>         0.0589
     48 H25        -0.5164    8.8579   -2.8806 H         1 <0>         0.1026
     49 H26        -1.2396    7.2816   -3.3488 H         1 <0>         0.0594
     50 H27        -1.2742    7.5237   -0.8874 H         1 <0>         0.0887
     51 H28         0.4963    7.8266   -0.8733 H         1 <0>         0.0479
     52 H29        -7.1401   -0.8096    0.8592 H         1 <0>         0.4407
@<TRIPOS>BOND
     1    1    6 ar
     2    1    2 ar
     3    1   24 1
     4    2    3 ar
     5    2   25 1
     6    3    4 ar
     7    3   17 1
     8    4    5 ar
     9    4   26 1
    10    5    6 ar
    11    5    7 1
    12    6   27 1
    13    7    8 3
    14    8    9 1
    15    9   10 1
    16    9   28 1
    17    9   29 1
    18   10   11 1
    19   10   30 1
    20   10   31 1
    21   11   16 1
    22   11   12 1
    23   11   52 1
    24   12   13 1
    25   12   32 1
    26   12   33 1
    27   13   14 1
    28   13   34 1
    29   13   35 1
    30   14   15 1
    31   14   36 1
    32   14   37 1
    33   15   16 1
    34   15   38 1
    35   15   39 1
    36   16   40 1
    37   16   41 1
    38   17   18 1
    39   17   42 1
    40   17   43 1
    41   18   23 1
    42   18   19 1
    43   19   20 1
    44   19   44 1
    45   19   45 1
    46   20   21 1
    47   20   46 1
    48   20   47 1
    49   21   22 1
    50   22   23 1
    51   22   48 1
    52   22   49 1
    53   23   50 1
    54   23   51 1
@<TRIPOS>MOLECULE
ZINC13108134
   45    47     0     0     0
SMALL
USER_CHARGES

@<TRIPOS>ATOM
      1 C1         -0.0199    1.3395    0.0024 C.2       1 <0>         0.0064
      2 C2          1.2554    1.7720   -0.0081 C.2       1 <0>         0.0672
      3 N1          2.0511    0.6584   -0.0267 N.pl3     1 <0>        -0.5106
      4 H1          3.0210    0.6441   -0.0376 H         1 <0>         0.4636
      5 C3          1.2338   -0.4166   -0.0268 C.cat     1 <0>         0.3070
      6 N2         -0.0033   -0.0016   -0.0094 N.pl3     1 <0>        -0.4716
      7 C4          1.7176    3.2064   -0.0013 C.3       1 <0>        -0.0300
      8 C5          1.9762    3.6655   -1.4382 C.3       1 <0>        -0.1277
      9 C6          2.4124    5.1340   -1.4300 C.3       1 <0>         0.1020
     10 N3          3.5670    5.2793   -0.5331 N.pl3     1 <0>        -0.5817
     11 C7          3.4561    4.7869    0.8468 C.3       1 <0>         0.0974
     12 C8          3.0081    3.3223    0.8131 C.3       1 <0>        -0.1362
     13 C9          4.7065    5.8530   -0.9679 C.2       1 <0>         0.5634
     14 S1          4.8665    6.2992   -2.6130 S.2       1 <0>        -0.6245
     15 N4          5.7199    6.0755   -0.1077 N.pl3     1 <0>        -0.6784
     16 C10         6.9143    6.7970   -0.5537 C.3       1 <0>         0.1390
     17 C11         6.6752    8.3033   -0.4326 C.3       1 <0>        -0.1253
     18 C12         7.9226    9.0568   -0.8984 C.3       1 <0>        -0.1161
     19 C13         9.1147    8.6579   -0.0263 C.3       1 <0>        -0.1249
     20 C14         9.3539    7.1516   -0.1474 C.3       1 <0>        -0.1154
     21 C15         8.1064    6.3981    0.3184 C.3       1 <0>        -0.1258
     22 H2         -0.9014    1.9632    0.0217 H         1 <0>         0.2255
     23 H3          1.5514   -1.4488   -0.0393 H         1 <0>         0.2669
     24 H4          0.9475    3.8339    0.4472 H         1 <0>         0.1243
     25 H5          2.7637    3.0545   -1.8792 H         1 <0>         0.0764
     26 H6          1.0627    3.5607   -2.0236 H         1 <0>         0.0957
     27 H7          2.6928    5.4375   -2.4387 H         1 <0>         0.1389
     28 H8          1.5921    5.7569   -1.0735 H         1 <0>         0.0852
     29 H9          4.4251    4.8614    1.3403 H         1 <0>         0.0880
     30 H10         2.7209    5.3815    1.3889 H         1 <0>         0.0928
     31 H11         2.8291    2.9732    1.8300 H         1 <0>         0.0932
     32 H12         3.7859    2.7145    0.3508 H         1 <0>         0.0723
     33 H13         5.6583    5.7578    0.8068 H         1 <0>         0.3933
     34 H14         7.1241    6.5448   -1.5932 H         1 <0>         0.1206
     35 H15         5.8259    8.5875   -1.0539 H         1 <0>         0.0770
     36 H16         6.4654    8.5554    0.6069 H         1 <0>         0.0591
     37 H17         8.1324    8.8047   -1.9379 H         1 <0>         0.0705
     38 H18         7.7522   10.1300   -0.8121 H         1 <0>         0.0692
     39 H19        10.0034    9.1947   -0.3581 H         1 <0>         0.0689
     40 H20         8.9050    8.9101    1.0132 H         1 <0>         0.0622
     41 H21         9.5637    6.8995   -1.1869 H         1 <0>         0.0699
     42 H22        10.2032    6.8674    0.4739 H         1 <0>         0.0708
     43 H23         7.8967    6.6502    1.3579 H         1 <0>         0.0660
     44 H24         8.2768    5.3249    0.2321 H         1 <0>         0.0672
     45 H25        -0.7872   -0.5729   -0.0051 H         1 <0>         0.4684
@<TRIPOS>BOND
     1    1    6 1
     2    1    2 2
     3    1   22 1
     4    2    3 1
     5    2    7 1
     6    3    4 1
     7    3    5 1
     8    5    6 2
     9    5   23 1
    10    6   45 1
    11    7   12 1
    12    7    8 1
    13    7   24 1
    14    8    9 1
    15    8   25 1
    16    8   26 1
    17    9   10 1
    18    9   27 1
    19    9   28 1
    20   10   11 1
    21   10   13 1
    22   11   12 1
    23   11   29 1
    24   11   30 1
    25   12   31 1
    26   12   32 1
    27   13   14 2
    28   13   15 1
    29   15   16 1
    30   15   33 1
    31   16   21 1
    32   16   17 1
    33   16   34 1
    34   17   18 1
    35   17   35 1
    36   17   36 1
    37   18   19 1
    38   18   37 1
    39   18   38 1
    40   19   20 1
    41   19   39 1
    42   19   40 1
    43   20   21 1
    44   20   41 1
    45   20   42 1
    46   21   43 1
    47   21   44 1
@<TRIPOS>MOLECULE
ZINC13108134
   45    47     0     0     0
SMALL
USER_CHARGES

@<TRIPOS>ATOM
      1 C1         -0.0111    1.3583    0.0120 C.2       1 <0>         0.0383
      2 C2          1.2720    1.7671    0.0013 C.2       1 <0>         0.0369
      3 N1          2.0544    0.6778   -0.0124 N.pl3     1 <0>        -0.4750
      4 C3          1.3050   -0.3905   -0.0106 C.cat     1 <0>         0.3075
      5 N2          0.0092   -0.0103    0.0045 N.pl3     1 <0>        -0.5077
      6 H1         -0.7629   -0.5975    0.0094 H         1 <0>         0.4689
      7 C4          1.7456    3.1978    0.0042 C.3       1 <0>        -0.0302
      8 C5          2.0381    3.6351    1.4413 C.3       1 <0>        -0.1285
      9 C6          2.4861    5.1000    1.4439 C.3       1 <0>         0.1035
     10 N3          3.6227    5.2486    0.5247 N.pl3     1 <0>        -0.5814
     11 C7          3.4787    4.7761   -0.8590 C.3       1 <0>         0.0976
     12 C8          3.0196    3.3147   -0.8357 C.3       1 <0>        -0.1373
     13 C9          4.7754    5.8081    0.9429 C.2       1 <0>         0.5626
     14 S1          4.8832    6.4711    2.5176 S.2       1 <0>        -0.6224
     15 N4          5.8431    5.8456    0.1213 N.pl3     1 <0>        -0.6791
     16 C10         7.1274    6.3518    0.6118 C.3       1 <0>         0.1383
     17 C11         7.8881    5.2222    1.3092 C.3       1 <0>        -0.1224
     18 C12         9.2293    5.7510    1.8215 C.3       1 <0>        -0.1165
     19 C13        10.0558    6.2713    0.6438 C.3       1 <0>        -0.1242
     20 C14         9.2951    7.4009   -0.0536 C.3       1 <0>        -0.1161
     21 C15         7.9539    6.8722   -0.5659 C.3       1 <0>        -0.1265
     22 H2         -0.8877    1.9890    0.0282 H         1 <0>         0.2279
     23 H3          1.6618   -1.4098   -0.0202 H         1 <0>         0.2669
     24 H4          0.9714    3.8375   -0.4194 H         1 <0>         0.1239
     25 H5          1.1364    3.5294    2.0444 H         1 <0>         0.0962
     26 H6          2.8297    3.0118    1.8573 H         1 <0>         0.0744
     27 H7          1.6635    5.7343    1.1133 H         1 <0>         0.0859
     28 H8          2.7901    5.3874    2.4504 H         1 <0>         0.1371
     29 H9          2.7371    5.3839   -1.3773 H         1 <0>         0.0936
     30 H10         4.4376    4.8497   -1.3719 H         1 <0>         0.0879
     31 H11         3.8019    2.6945   -0.3983 H         1 <0>         0.0712
     32 H12         2.8164    2.9810   -1.8533 H         1 <0>         0.0934
     33 H13         5.7612    5.5374   -0.7948 H         1 <0>         0.3930
     34 H14         6.9521    7.1625    1.3191 H         1 <0>         0.1214
     35 H15         7.2992    4.8515    2.1482 H         1 <0>         0.0749
     36 H16         8.0633    4.4115    0.6020 H         1 <0>         0.0564
     37 H17         9.0540    6.5617    2.5287 H         1 <0>         0.0714
     38 H18         9.7712    4.9462    2.3183 H         1 <0>         0.0679
     39 H19        11.0113    6.6480    1.0087 H         1 <0>         0.0690
     40 H20        10.2310    5.4606   -0.0635 H         1 <0>         0.0612
     41 H21         9.1199    8.2116    0.6536 H         1 <0>         0.0709
     42 H22         9.8839    7.7716   -0.8926 H         1 <0>         0.0714
     43 H23         8.1291    6.0615   -1.2731 H         1 <0>         0.0649
     44 H24         7.4119    7.6769   -1.0627 H         1 <0>         0.0700
     45 H25         3.0244    0.6833   -0.0225 H         1 <0>         0.4628
@<TRIPOS>BOND
     1    1    5 1
     2    1    2 2
     3    1   22 1
     4    2    3 1
     5    2    7 1
     6    3    4 2
     7    3   45 1
     8    4    5 1
     9    4   23 1
    10    5    6 1
    11    7   12 1
    12    7    8 1
    13    7   24 1
    14    8    9 1
    15    8   25 1
    16    8   26 1
    17    9   10 1
    18    9   27 1
    19    9   28 1
    20   10   11 1
    21   10   13 1
    22   11   12 1
    23   11   29 1
    24   11   30 1
    25   12   31 1
    26   12   32 1
    27   13   14 2
    28   13   15 1
    29   15   16 1
    30   15   33 1
    31   16   21 1
    32   16   17 1
    33   16   34 1
    34   17   18 1
    35   17   35 1
    36   17   36 1
    37   18   19 1
    38   18   37 1
    39   18   38 1
    40   19   20 1
    41   19   39 1
    42   19   40 1
    43   20   21 1
    44   20   41 1
    45   20   42 1
    46   21   43 1
    47   21   44 1
@<TRIPOS>MOLECULE
ZINC13108134
   44    46     0     0     0
SMALL
USER_CHARGES

@<TRIPOS>ATOM
      1 C1         -0.0228    1.3648    0.0142 C.2       1 <0>        -0.0496
      2 C2          1.2612    1.7707    0.0029 C.2       1 <0>         0.0065
      3 N1          2.0412    0.6796   -0.0102 N.2       1 <0>        -0.4899
      4 C3          1.2893   -0.3870   -0.0075 C.2       1 <0>         0.1866
      5 N2         -0.0055   -0.0039    0.0076 N.pl3     1 <0>        -0.5696
      6 H1         -0.7790   -0.5893    0.0131 H         1 <0>         0.4218
      7 C4          1.7382    3.2002    0.0047 C.3       1 <0>        -0.0028
      8 C5          0.7707    4.0615   -0.8104 C.3       1 <0>        -0.1243
      9 C6          1.2771    5.5071   -0.8353 C.3       1 <0>         0.1037
     10 N3          1.4729    5.9634    0.5475 N.pl3     1 <0>        -0.5686
     11 C7          2.3131    5.1586    1.4448 C.3       1 <0>         0.0956
     12 C8          1.7950    3.7169    1.4441 C.3       1 <0>        -0.1204
     13 C9          0.8931    7.0990    0.9844 C.2       1 <0>         0.5693
     14 S1          0.0257    8.0922   -0.1074 S.2       1 <0>        -0.6496
     15 N4          0.9963    7.4526    2.2809 N.pl3     1 <0>        -0.6848
     16 C10         0.2746    8.6259    2.7797 C.3       1 <0>         0.1416
     17 C11        -1.1535    8.2249    3.1547 C.3       1 <0>        -0.1252
     18 C12        -1.9071    9.4502    3.6757 C.3       1 <0>        -0.1150
     19 C13        -1.1916   10.0022    4.9103 C.3       1 <0>        -0.1234
     20 C14         0.2365   10.4032    4.5354 C.3       1 <0>        -0.1144
     21 C15         0.9902    9.1778    4.0144 C.3       1 <0>        -0.1272
     22 H2         -0.8979    1.9976    0.0302 H         1 <0>         0.1742
     23 H3          1.6439   -1.4071   -0.0165 H         1 <0>         0.2086
     24 H4          2.7323    3.2519   -0.4392 H         1 <0>         0.0883
     25 H5          0.7129    3.6787   -1.8294 H         1 <0>         0.0864
     26 H6         -0.2181    4.0302   -0.3529 H         1 <0>         0.0707
     27 H7          2.2242    5.5533   -1.3729 H         1 <0>         0.0798
     28 H8          0.5427    6.1431   -1.3295 H         1 <0>         0.1295
     29 H9          3.3446    5.1764    1.0931 H         1 <0>         0.0876
     30 H10         2.2621    5.5647    2.4550 H         1 <0>         0.0788
     31 H11         0.7966    3.6889    1.8804 H         1 <0>         0.0695
     32 H12         2.4663    3.0889    2.0298 H         1 <0>         0.0845
     33 H13         1.5484    6.9303    2.8836 H         1 <0>         0.3942
     34 H14         0.2454    9.3913    2.0043 H         1 <0>         0.1192
     35 H15        -1.6632    7.8317    2.2751 H         1 <0>         0.0770
     36 H16        -1.1242    7.4595    3.9302 H         1 <0>         0.0572
     37 H17        -1.9364   10.2156    2.9002 H         1 <0>         0.0698
     38 H18        -2.9246    9.1645    3.9428 H         1 <0>         0.0659
     39 H19        -1.7285   10.8751    5.2815 H         1 <0>         0.0658
     40 H20        -1.1624    9.2368    5.6858 H         1 <0>         0.0609
     41 H21         0.2072   11.1686    3.7599 H         1 <0>         0.0693
     42 H22         0.7463   10.7964    5.4149 H         1 <0>         0.0685
     43 H23         1.0194    8.4124    4.7898 H         1 <0>         0.0650
     44 H24         2.0076    9.4635    3.7473 H         1 <0>         0.0690
@<TRIPOS>BOND
     1    1    5 1
     2    1    2 2
     3    1   22 1
     4    2    3 1
     5    2    7 1
     6    3    4 2
     7    4    5 1
     8    4   23 1
     9    5    6 1
    10    7   12 1
    11    7    8 1
    12    7   24 1
    13    8    9 1
    14    8   25 1
    15    8   26 1
    16    9   10 1
    17    9   27 1
    18    9   28 1
    19   10   11 1
    20   10   13 1
    21   11   12 1
    22   11   29 1
    23   11   30 1
    24   12   31 1
    25   12   32 1
    26   13   14 2
    27   13   15 1
    28   15   16 1
    29   15   33 1
    30   16   21 1
    31   16   17 1
    32   16   34 1
    33   17   18 1
    34   17   35 1
    35   17   36 1
    36   18   19 1
    37   18   37 1
    38   18   38 1
    39   19   20 1
    40   19   39 1
    41   19   40 1
    42   20   21 1
    43   20   41 1
    44   20   42 1
    45   21   43 1
    46   21   44 1
@<TRIPOS>MOLECULE
ZINC13108134
   44    46     0     0     0
SMALL
USER_CHARGES

@<TRIPOS>ATOM
      1 C1         -0.0123    1.3344    0.0219 C.2       1 <0>        -0.0175
      2 C2          1.2619    1.7699    0.0072 C.2       1 <0>        -0.0222
      3 N1          2.0603    0.6581   -0.0070 N.pl3     1 <0>        -0.5669
      4 H1          3.0301    0.6461   -0.0194 H         1 <0>         0.4194
      5 C3          1.2456   -0.4188   -0.0005 C.2       1 <0>         0.1870
      6 N2          0.0075   -0.0067    0.0168 N.2       1 <0>        -0.4926
      7 C4          1.7207    3.2054    0.0062 C.3       1 <0>        -0.0100
      8 C5          1.7765    3.7238    1.4450 C.3       1 <0>        -0.1233
      9 C6          2.2762    5.1720    1.4427 C.3       1 <0>         0.1024
     10 N3          1.4225    5.9654    0.5481 N.pl3     1 <0>        -0.5710
     11 C7          1.2272    5.5055   -0.8337 C.3       1 <0>         0.0963
     12 C8          0.7393    4.0537   -0.8058 C.3       1 <0>        -0.1223
     13 C9          0.8294    7.0934    0.9867 C.2       1 <0>         0.5692
     14 S1          0.9576    7.5432    2.6335 S.2       1 <0>        -0.6448
     15 N4          0.1353    7.8672    0.1288 N.pl3     1 <0>        -0.6833
     16 C10        -0.4165    9.1473    0.5793 C.3       1 <0>         0.1411
     17 C11         0.6546   10.2336    0.4630 C.3       1 <0>        -0.1255
     18 C12         0.0782   11.5706    0.9334 C.3       1 <0>        -0.1151
     19 C13        -1.1227   11.9432    0.0618 C.3       1 <0>        -0.1235
     20 C14        -2.1939   10.8569    0.1780 C.3       1 <0>        -0.1145
     21 C15        -1.6175    9.5199   -0.2924 C.3       1 <0>        -0.1270
     22 H2         -0.8953    1.9560    0.0395 H         1 <0>         0.1658
     23 H3          1.5656   -1.4503   -0.0084 H         1 <0>         0.2090
     24 H4          2.7125    3.2693   -0.4414 H         1 <0>         0.0804
     25 H5          0.7802    3.6835    1.8852 H         1 <0>         0.0788
     26 H6          2.4579    3.1048    2.0286 H         1 <0>         0.0820
     27 H7          2.2241    5.5781    2.4528 H         1 <0>         0.1325
     28 H8          3.3062    5.2026    1.0871 H         1 <0>         0.0770
     29 H9          0.4829    6.1318   -1.3255 H         1 <0>         0.0822
     30 H10         2.1716    5.5633   -1.3749 H         1 <0>         0.0854
     31 H11         0.6824    3.6694   -1.8242 H         1 <0>         0.0876
     32 H12        -0.2473    4.0102   -0.3444 H         1 <0>         0.0791
     33 H13         0.0012    7.5765   -0.7868 H         1 <0>         0.3942
     34 H14        -0.7346    9.0604    1.6182 H         1 <0>         0.1194
     35 H15         1.5102    9.9682    1.0840 H         1 <0>         0.0770
     36 H16         0.9727   10.3205   -0.5759 H         1 <0>         0.0577
     37 H17        -0.2399   11.4837    1.9723 H         1 <0>         0.0698
     38 H18         0.8413   12.3445    0.8506 H         1 <0>         0.0664
     39 H19        -1.5333   12.8957    0.3969 H         1 <0>         0.0661
     40 H20        -0.8046   12.0301   -0.9771 H         1 <0>         0.0612
     41 H21        -2.5120   10.7700    1.2170 H         1 <0>         0.0693
     42 H22        -3.0495   11.1223   -0.4429 H         1 <0>         0.0688
     43 H23        -1.2994    9.6068   -1.3313 H         1 <0>         0.0653
     44 H24        -2.3806    8.7460   -0.2096 H         1 <0>         0.0691
@<TRIPOS>BOND
     1    1    6 1
     2    1    2 2
     3    1   22 1
     4    2    3 1
     5    2    7 1
     6    3    4 1
     7    3    5 1
     8    5    6 2
     9    5   23 1
    10    7   12 1
    11    7    8 1
    12    7   24 1
    13    8    9 1
    14    8   25 1
    15    8   26 1
    16    9   10 1
    17    9   27 1
    18    9   28 1
    19   10   11 1
    20   10   13 1
    21   11   12 1
    22   11   29 1
    23   11   30 1
    24   12   31 1
    25   12   32 1
    26   13   14 2
    27   13   15 1
    28   15   16 1
    29   15   33 1
    30   16   21 1
    31   16   17 1
    32   16   34 1
    33   17   18 1
    34   17   35 1
    35   17   36 1
    36   18   19 1
    37   18   37 1
    38   18   38 1
    39   19   20 1
    40   19   39 1
    41   19   40 1
    42   20   21 1
    43   20   41 1
    44   20   42 1
    45   21   43 1
    46   21   44 1
@<TRIPOS>MOLECULE
ZINC71754993
   49    52     0     0     0
SMALL
USER_CHARGES

@<TRIPOS>ATOM
      1 C1          2.6170   -2.6358   -1.1889 C.3       1 <0>        -0.1671
      2 C2          2.2134   -1.1611   -1.2456 C.3       1 <0>         0.1069
      3 N1          0.7528   -1.0529   -1.2130 N.am      1 <0>        -0.6114
      4 C3          0.0461   -1.0616    0.0703 C.3       1 <0>         0.0994
      5 C4         -0.0614    0.3687    0.6029 C.3       1 <0>        -0.1765
      6 C5          0.0592   -0.9454   -2.3636 C.2       1 <0>         0.5267
      7 O1          0.6474   -0.8703   -3.4215 O.2       1 <0>        -0.5333
      8 C6         -1.4473   -0.9186   -2.3355 C.3       1 <0>        -0.0725
      9 H1         -1.8080   -1.4645   -1.4638 H         1 <0>         0.1146
     10 C7         -1.9990   -1.5624   -3.6126 C.3       1 <0>         0.0770
     11 N2         -3.4593   -1.4331   -3.6037 N.3       1 <0>        -0.5484
     12 C8         -3.9081   -0.0485   -3.6742 C.3       1 <0>         0.1385
     13 H2         -3.8294    0.2578   -4.7173 H         1 <0>         0.0457
     14 C9         -5.3934    0.0321   -3.2953 C.3       1 <0>        -0.0232
     15 C10        -5.8207    1.4760   -3.2538 C.2       1 <0>        -0.1681
     16 C11        -6.9734    2.1212   -3.3973 C.2       1 <0>         0.0572
     17 N3         -6.7828    3.4861   -3.2468 N.pl3     1 <0>        -0.5952
     18 H3         -7.4843    4.1531   -3.3095 H         1 <0>         0.4163
     19 C12        -5.4715    3.7584   -2.9981 C.ar      1 <0>         0.1107
     20 C13        -4.8308    2.5163   -3.0000 C.ar      1 <0>        -0.1310
     21 C14        -3.4506    2.3050   -2.7990 C.ar      1 <0>        -0.0034
     22 C15        -2.7031    3.4367   -2.5663 C.ar      1 <0>        -0.1283
     23 C16        -3.3241    4.6838   -2.5516 C.ar      1 <0>        -0.0962
     24 C17        -4.6837    4.8842   -2.7614 C.ar      1 <0>        -0.1216
     25 C18        -3.0445    0.8889   -2.8726 C.2       1 <0>        -0.0548
     26 C19        -1.9279    0.5065   -2.2758 C.2       1 <0>        -0.1279
     27 C20        -4.0657   -2.2382   -4.6723 C.3       1 <0>         0.0274
     28 H4          2.2786   -3.0692   -0.2477 H         1 <0>         0.0559
     29 H5          2.1583   -3.1703   -2.0208 H         1 <0>         0.0579
     30 H6          3.7017   -2.7185   -1.2577 H         1 <0>         0.0673
     31 H7          2.6359   -0.6355   -0.3892 H         1 <0>         0.0755
     32 H8          2.5902   -0.7164   -2.1667 H         1 <0>         0.0872
     33 H9         -0.9534   -1.4738   -0.0682 H         1 <0>         0.0851
     34 H10         0.5964   -1.6747    0.7839 H         1 <0>         0.0811
     35 H11        -0.5106    0.3537    1.5960 H         1 <0>         0.0701
     36 H12         0.9333    0.8106    0.6607 H         1 <0>         0.0594
     37 H13        -0.6835    0.9606   -0.0684 H         1 <0>         0.0612
     38 H14        -1.5914   -1.0526   -4.4855 H         1 <0>         0.0533
     39 H15        -1.7248   -2.6170   -3.6391 H         1 <0>         0.0845
     40 H16        -5.9874   -0.5018   -4.0371 H         1 <0>         0.0765
     41 H17        -5.5435   -0.4200   -2.3149 H         1 <0>         0.0843
     42 H18        -7.9232    1.6497   -3.6022 H         1 <0>         0.1695
     43 H19        -1.6396    3.3585   -2.3953 H         1 <0>         0.1220
     44 H20        -2.7091    5.5517   -2.3648 H         1 <0>         0.1224
     45 H21        -5.1135    5.8748   -2.7421 H         1 <0>         0.1285
     46 H22        -1.3518    1.2331   -1.7222 H         1 <0>         0.1200
     47 H23        -3.7498   -3.2763   -4.5689 H         1 <0>         0.0734
     48 H24        -5.1517   -2.1799   -4.5994 H         1 <0>         0.0744
     49 H25        -3.7455   -1.8558   -5.6415 H         1 <0>         0.0291
@<TRIPOS>BOND
     1    1    2 1
     2    1   28 1
     3    1   29 1
     4    1   30 1
     5    2    3 1
     6    2   31 1
     7    2   32 1
     8    3    4 1
     9    3    6 am
    10    4    5 1
    11    4   33 1
    12    4   34 1
    13    5   35 1
    14    5   36 1
    15    5   37 1
    16    6    7 2
    17    6    8 1
    18    8    9 1
    19    8   26 1
    20    8   10 1
    21   10   11 1
    22   10   38 1
    23   10   39 1
    24   11   12 1
    25   11   27 1
    26   12   13 1
    27   12   25 1
    28   12   14 1
    29   14   15 1
    30   14   40 1
    31   14   41 1
    32   15   20 1
    33   15   16 2
    34   16   17 1
    35   16   42 1
    36   17   18 1
    37   17   19 1
    38   19   24 ar
    39   19   20 ar
    40   20   21 ar
    41   21   22 ar
    42   21   25 1
    43   22   23 ar
    44   22   43 1
    45   23   24 ar
    46   23   44 1
    47   24   45 1
    48   25   26 2
    49   26   46 1
    50   27   47 1
    51   27   48 1
    52   27   49 1
@<TRIPOS>MOLECULE
ZINC71754993
   50    53     0     0     0
SMALL
USER_CHARGES

@<TRIPOS>ATOM
      1 C1         -4.4131    1.6542    2.7709 C.3       1 <0>        -0.1692
      2 C2         -3.1002    1.6745    1.9857 C.3       1 <0>         0.1077
      3 N1         -3.2120    0.7884    0.8243 N.am      1 <0>        -0.6044
      4 C3         -3.6997    1.3136   -0.4534 C.3       1 <0>         0.0980
      5 C4         -2.5178    1.8262   -1.2787 C.3       1 <0>        -0.1810
      6 C5         -2.8661   -0.5098    0.9314 C.2       1 <0>         0.5240
      7 O1         -2.5501   -0.9662    2.0097 O.2       1 <0>        -0.5069
      8 C6         -2.8722   -1.3943   -0.2887 C.3       1 <0>        -0.1042
      9 H1         -2.7358   -0.7873   -1.1837 H         1 <0>         0.1306
     10 C7         -4.2036   -2.1497   -0.3737 C.3       1 <0>         0.0021
     11 N2         -4.1503   -3.0574   -1.5221 N.4       1 <0>        -0.3772
     12 C8         -3.1649   -4.1132   -1.3324 C.3       1 <0>         0.0727
     13 H2         -3.6138   -4.8485   -0.6647 H         1 <0>         0.1401
     14 C9         -2.9105   -4.8224   -2.6700 C.3       1 <0>        -0.0390
     15 C10        -1.8064   -5.8325   -2.5003 C.2       1 <0>        -0.2014
     16 C11        -1.4541   -6.9552   -3.1179 C.2       1 <0>         0.0960
     17 N3         -0.3151   -7.4883   -2.5346 N.pl3     1 <0>        -0.5871
     18 H3          0.1234   -8.3046   -2.8215 H         1 <0>         0.4245
     19 C12         0.1019   -6.7038   -1.5020 C.ar      1 <0>         0.1104
     20 C13        -0.8165   -5.6518   -1.4449 C.ar      1 <0>        -0.1254
     21 C14        -0.7954   -4.5939   -0.5123 C.ar      1 <0>        -0.0281
     22 C15         0.2416   -4.6193    0.3924 C.ar      1 <0>        -0.0998
     23 C16         1.1732   -5.6542    0.3464 C.ar      1 <0>        -0.0987
     24 C17         1.1382   -6.6995   -0.5693 C.ar      1 <0>        -0.0978
     25 C18        -1.9016   -3.6317   -0.6709 C.2       1 <0>        -0.0695
     26 C19        -1.7626   -2.4072   -0.1876 C.2       1 <0>        -0.1111
     27 C20        -5.4735   -3.6664   -1.7125 C.3       1 <0>        -0.0520
     28 H4         -4.3299    2.3134    3.6350 H         1 <0>         0.0742
     29 H5         -5.2253    1.9965    2.1296 H         1 <0>         0.0570
     30 H6         -4.6195    0.6382    3.1076 H         1 <0>         0.0594
     31 H7         -2.8938    2.6904    1.6490 H         1 <0>         0.0854
     32 H8         -2.2879    1.3322    2.6269 H         1 <0>         0.0886
     33 H9         -4.2089    0.5208   -1.0014 H         1 <0>         0.0700
     34 H10        -4.3955    2.1319   -0.2680 H         1 <0>         0.0939
     35 H11        -2.8686    2.1332   -2.2639 H         1 <0>         0.0759
     36 H12        -2.0638    2.6783   -0.7728 H         1 <0>         0.0695
     37 H13        -1.7789    1.0322   -1.3872 H         1 <0>         0.0580
     38 H14        -4.3580   -2.7236    0.5400 H         1 <0>         0.1434
     39 H15        -5.0199   -1.4395   -0.5058 H         1 <0>         0.1437
     40 H16        -3.8204   -5.3293   -2.9914 H         1 <0>         0.0997
     41 H17        -2.6190   -4.0881   -3.4210 H         1 <0>         0.0934
     42 H18        -1.9802   -7.3903   -3.9547 H         1 <0>         0.1758
     43 H19         0.3329   -3.8400    1.1346 H         1 <0>         0.1302
     44 H20         1.9754   -5.6435    1.0695 H         1 <0>         0.1317
     45 H21         1.8852   -7.4794   -0.5582 H         1 <0>         0.1373
     46 H22        -0.8304   -2.1256    0.2794 H         1 <0>         0.1476
     47 H23        -6.2103   -2.8845   -1.8961 H         1 <0>         0.1309
     48 H24        -5.4422   -4.3438   -2.5658 H         1 <0>         0.1309
     49 H25        -5.7497   -4.2228   -0.8168 H         1 <0>         0.1266
     50 H26        -3.9112   -2.5291   -2.3478 H         1 <0>         0.4234
@<TRIPOS>BOND
     1    1    2 1
     2    1   28 1
     3    1   29 1
     4    1   30 1
     5    2    3 1
     6    2   31 1
     7    2   32 1
     8    3    4 1
     9    3    6 am
    10    4    5 1
    11    4   33 1
    12    4   34 1
    13    5   35 1
    14    5   36 1
    15    5   37 1
    16    6    7 2
    17    6    8 1
    18    8    9 1
    19    8   26 1
    20    8   10 1
    21   10   11 1
    22   10   38 1
    23   10   39 1
    24   11   12 1
    25   11   27 1
    26   11   50 1
    27   12   13 1
    28   12   25 1
    29   12   14 1
    30   14   15 1
    31   14   40 1
    32   14   41 1
    33   15   20 1
    34   15   16 2
    35   16   17 1
    36   16   42 1
    37   17   18 1
    38   17   19 1
    39   19   24 ar
    40   19   20 ar
    41   20   21 ar
    42   21   22 ar
    43   21   25 1
    44   22   23 ar
    45   22   43 1
    46   23   24 ar
    47   23   44 1
    48   24   45 1
    49   25   26 2
    50   26   46 1
    51   27   47 1
    52   27   48 1
    53   27   49 1
@<TRIPOS>MOLECULE
ZINC00538314
   60    64     0     0     0
SMALL
USER_CHARGES

@<TRIPOS>ATOM
      1 C1         -0.0184    1.5028    0.0103 C.3       1 <0>        -0.1174
      2 C2          0.0021   -0.0041    0.0020 C.2       1 <0>         0.2445
      3 C3         -1.1751   -0.7216    0.0036 C.2       1 <0>        -0.3147
      4 C4         -1.1361   -2.1161   -0.0047 C.2       1 <0>         0.5359
      5 O1         -2.1756   -2.7567   -0.0037 O.2       1 <0>        -0.5241
      6 N1          0.0668   -2.7644   -0.0143 N.am      1 <0>        -0.4737
      7 C5          0.2679   -4.1238   -0.0236 C.2       1 <0>         0.0266
      8 C6          1.4978   -4.6373   -0.0325 C.2       1 <0>        -0.1636
      9 S1          2.5089   -3.1651   -0.0288 S.3       1 <0>         0.1803
     10 C7          1.1857   -1.9749   -0.0151 C.2       1 <0>         0.3350
     11 N2          1.1565   -0.6654   -0.0126 N.2       1 <0>        -0.4984
     12 C8         -2.4993   -0.0022    0.0147 C.3       1 <0>        -0.0635
     13 C9         -3.0147    0.1395   -1.4188 C.3       1 <0>        -0.0075
     14 N3         -4.3055    0.8408   -1.4080 N.4       1 <0>        -0.3819
     15 C10        -4.1121    2.2079   -0.9103 C.3       1 <0>        -0.0097
     16 C11        -5.4758    2.8853   -0.7337 C.3       1 <0>        -0.1045
     17 C12        -6.2228    2.7941   -2.0481 C.2       1 <0>        -0.1537
     18 C13        -6.8154    3.8677   -2.5843 C.2       1 <0>         0.0201
     19 C14        -7.5400    3.7487   -3.8726 C.ar      1 <0>        -0.0793
     20 C15        -6.8454    3.4297   -5.0384 C.ar      1 <0>        -0.0814
     21 C16        -7.5238    3.3196   -6.2346 C.ar      1 <0>        -0.1518
     22 C17        -8.8933    3.5256   -6.2784 C.ar      1 <0>         0.1146
     23 C18        -9.5877    3.8433   -5.1223 C.ar      1 <0>        -0.1473
     24 C19        -8.9186    3.9499   -3.9205 C.ar      1 <0>        -0.0659
     25 F1         -9.5535    3.4167   -7.4521 F         1 <0>        -0.1311
     26 C20        -6.7474    5.1762   -1.8900 C.ar      1 <0>        -0.0818
     27 C21        -7.3566    5.3406   -0.6469 C.ar      1 <0>        -0.0760
     28 C22        -7.2903    6.5596   -0.0045 C.ar      1 <0>        -0.1515
     29 C23        -6.6196    7.6197   -0.5929 C.ar      1 <0>         0.1154
     30 C24        -6.0130    7.4611   -1.8286 C.ar      1 <0>        -0.1500
     31 C25        -6.0692    6.2440   -2.4758 C.ar      1 <0>        -0.0670
     32 F2         -6.5572    8.8117    0.0399 F         1 <0>        -0.1311
     33 C26        -6.2752    1.4449   -2.7346 C.3       1 <0>        -0.1083
     34 C27        -4.8545    0.8700   -2.7688 C.3       1 <0>        -0.0019
     35 H1          1.0042    1.8801    0.0026 H         1 <0>         0.0964
     36 H2         -0.5455    1.8639   -0.8728 H         1 <0>         0.0880
     37 H3         -0.5286    1.8543    0.9071 H         1 <0>         0.0967
     38 H4         -0.5845   -4.7869   -0.0233 H         1 <0>         0.1919
     39 H5          1.8032   -5.6732   -0.0394 H         1 <0>         0.2293
     40 H6         -3.2174   -0.5721    0.6044 H         1 <0>         0.1000
     41 H7         -2.3717    0.9869    0.4545 H         1 <0>         0.0983
     42 H8         -2.2966    0.7094   -2.0085 H         1 <0>         0.1284
     43 H9         -3.1423   -0.8496   -1.8586 H         1 <0>         0.1316
     44 H10        -3.5955    2.1756    0.0490 H         1 <0>         0.1348
     45 H11        -3.5151    2.7739   -1.6255 H         1 <0>         0.1309
     46 H12        -6.0411    2.3760    0.0468 H         1 <0>         0.1010
     47 H13        -5.3343    3.9317   -0.4629 H         1 <0>         0.1205
     48 H14        -5.7779    3.2693   -5.0053 H         1 <0>         0.1324
     49 H15        -6.9865    3.0728   -7.1384 H         1 <0>         0.1419
     50 H16       -10.6551    4.0034   -5.1612 H         1 <0>         0.1431
     51 H17        -9.4614    4.1929   -3.0190 H         1 <0>         0.1358
     52 H18        -7.8799    4.5149   -0.1877 H         1 <0>         0.1352
     53 H19        -7.7622    6.6880    0.9585 H         1 <0>         0.1425
     54 H20        -5.4916    8.2902   -2.2837 H         1 <0>         0.1424
     55 H21        -5.5921    6.1199   -3.4367 H         1 <0>         0.1346
     56 H22        -6.9300    0.7743   -2.1783 H         1 <0>         0.1009
     57 H23        -6.6483    1.5640   -3.7518 H         1 <0>         0.1217
     58 H24        -4.2246    1.4954   -3.4014 H         1 <0>         0.1291
     59 H25        -4.8820   -0.1426   -3.1713 H         1 <0>         0.1328
     60 H26        -4.9458    0.3531   -0.7995 H         1 <0>         0.4242
@<TRIPOS>BOND
     1    1    2 1
     2    1   35 1
     3    1   36 1
     4    1   37 1
     5    2   11 1
     6    2    3 2
     7    3    4 1
     8    3   12 1
     9    4    5 2
    10    4    6 am
    11    6   10 1
    12    6    7 1
    13    7    8 2
    14    7   38 1
    15    8    9 1
    16    8   39 1
    17    9   10 1
    18   10   11 2
    19   12   13 1
    20   12   40 1
    21   12   41 1
    22   13   14 1
    23   13   42 1
    24   13   43 1
    25   14   34 1
    26   14   15 1
    27   14   60 1
    28   15   16 1
    29   15   44 1
    30   15   45 1
    31   16   17 1
    32   16   46 1
    33   16   47 1
    34   17   18 2
    35   17   33 1
    36   18   19 1
    37   18   26 1
    38   19   24 ar
    39   19   20 ar
    40   20   21 ar
    41   20   48 1
    42   21   22 ar
    43   21   49 1
    44   22   23 ar
    45   22   25 1
    46   23   24 ar
    47   23   50 1
    48   24   51 1
    49   26   31 ar
    50   26   27 ar
    51   27   28 ar
    52   27   52 1
    53   28   29 ar
    54   28   53 1
    55   29   30 ar
    56   29   32 1
    57   30   31 ar
    58   30   54 1
    59   31   55 1
    60   33   34 1
    61   33   56 1
    62   33   57 1
    63   34   58 1
    64   34   59 1
@<TRIPOS>MOLECULE
ZINC00002264
   41    43     0     0     0
SMALL
USER_CHARGES

@<TRIPOS>ATOM
      1 C1          0.7658   -0.3473   -1.0644 C.3       1 <0>        -0.0548
      2 N1         -0.0036   -0.0037    0.1389 N.4       1 <0>        -0.3894
      3 C2         -0.0391    1.4563    0.2971 C.3       1 <0>        -0.0477
      4 C3         -1.3742   -0.5153    0.0064 C.3       1 <0>        -0.0001
      5 C4         -1.3490   -2.0451   -0.0023 C.3       1 <0>         0.0179
      6 O1         -0.8829   -2.5210    1.2620 O.3       1 <0>        -0.3363
      7 C5         -0.7999   -3.8710    1.4222 C.2       1 <0>         0.1610
      8 C6         -1.2488   -4.5696    0.4577 C.2       1 <0>        -0.2032
      9 C7         -1.3500   -6.0155    0.2935 C.ar      1 <0>         0.0017
     10 C8         -2.6274   -6.5666   -0.2185 C.ar      1 <0>        -0.1185
     11 C9         -2.7810   -7.8584   -0.3863 C.ar      1 <0>        -0.0929
     12 C10        -1.6766   -8.7788   -0.0646 C.ar      1 <0>        -0.1110
     13 C11        -0.5421   -8.2947    0.3883 C.ar      1 <0>        -0.0866
     14 C12        -0.3707   -6.8406    0.5754 C.ar      1 <0>        -0.1119
     15 S1          1.1725   -6.2399    1.1799 S.3       1 <0>        -0.0138
     16 C13         0.7483   -5.4433    2.6927 C.ar      1 <0>        -0.1087
     17 C14        -0.2021   -4.3246    2.6760 C.ar      1 <0>        -0.0314
     18 C15        -0.5174   -3.7279    3.8095 C.ar      1 <0>        -0.0633
     19 C16         0.0841   -4.1790    5.0751 C.ar      1 <0>        -0.0299
     20 C17         0.9386   -5.1798    5.0804 C.ar      1 <0>        -0.0906
     21 C18         1.2819   -5.8475    3.8244 C.ar      1 <0>        -0.0433
     22 Cl1        -0.3342   -3.3890    6.5632 Cl        1 <0>        -0.0465
     23 H1          1.7828    0.0323   -0.9661 H         1 <0>         0.1280
     24 H2          0.7921   -1.4307   -1.1818 H         1 <0>         0.1221
     25 H3          0.2933    0.1014   -1.9382 H         1 <0>         0.1252
     26 H4         -0.6816    1.7151    1.1386 H         1 <0>         0.1247
     27 H5          0.9693    1.8263    0.4826 H         1 <0>         0.1262
     28 H6         -0.4312    1.9109   -0.6127 H         1 <0>         0.1236
     29 H7         -1.9750   -0.1666    0.8464 H         1 <0>         0.1430
     30 H8         -1.8085   -0.1538   -0.9257 H         1 <0>         0.1509
     31 H9         -2.3545   -2.4240   -0.1849 H         1 <0>         0.1127
     32 H10        -0.6810   -2.3930   -0.7902 H         1 <0>         0.0922
     33 H11        -1.6169   -3.9955   -0.3797 H         1 <0>         0.1306
     34 H12        -3.4409   -5.8970   -0.4556 H         1 <0>         0.1273
     35 H13        -3.7168   -8.2472   -0.7598 H         1 <0>         0.1349
     36 H14        -1.7987   -9.8433   -0.1996 H         1 <0>         0.1374
     37 H15         0.2703   -8.9655    0.6259 H         1 <0>         0.1368
     38 H16        -1.2182   -2.9062    3.8090 H         1 <0>         0.1431
     39 H17         1.3801   -5.5099    6.0091 H         1 <0>         0.1521
     40 H18         1.9826   -6.6694    3.8283 H         1 <0>         0.1546
     41 H19         0.4337   -0.4191    0.9477 H         1 <0>         0.4341
@<TRIPOS>BOND
     1    1    2 1
     2    1   23 1
     3    1   24 1
     4    1   25 1
     5    2    3 1
     6    2    4 1
     7    2   41 1
     8    3   26 1
     9    3   27 1
    10    3   28 1
    11    4    5 1
    12    4   29 1
    13    4   30 1
    14    5    6 1
    15    5   31 1
    16    5   32 1
    17    6    7 1
    18    7   17 1
    19    7    8 2
    20    8    9 1
    21    8   33 1
    22    9   14 ar
    23    9   10 ar
    24   10   11 ar
    25   10   34 1
    26   11   12 ar
    27   11   35 1
    28   12   13 ar
    29   12   36 1
    30   13   14 ar
    31   13   37 1
    32   14   15 1
    33   15   16 1
    34   16   21 ar
    35   16   17 ar
    36   17   18 ar
    37   18   19 ar
    38   18   38 1
    39   19   20 ar
    40   19   22 1
    41   20   21 ar
    42   20   39 1
    43   21   40 1
@<TRIPOS>MOLECULE
ZINC13455805
   50    52     0     0     0
SMALL
USER_CHARGES
2-[(11Z)-11-(3-dimethylaminopropylidene)-6H-benzo[c][1]benzoxepin-2-yl]ethanol
@<TRIPOS>ATOM
      1 C1          5.3319    7.9193   -0.5966 C.3       1 <0>        -0.0579
      2 C2          4.0625    9.6873    0.4642 C.3       1 <0>        -0.0433
      3 C3          3.2365    7.4116    0.5052 C.3       1 <0>        -0.0036
      4 C4          3.6413    5.9668    0.8040 C.3       1 <0>        -0.1248
      5 C5          2.4155    5.0901    0.7981 C.2       1 <0>        -0.1596
      6 C6          2.3672    4.0125    0.0055 C.2       1 <0>         0.0019
      7 C7          1.1569    3.1579    0.0081 C.ar      1 <0>        -0.0504
      8 C8         -0.0781    3.8238    0.0214 C.ar      1 <0>        -0.1067
      9 C9         -1.2581    3.1167    0.0288 C.ar      1 <0>        -0.1147
     10 C10        -1.2218    1.7335    0.0173 C.ar      1 <0>        -0.1022
     11 C11        -0.0126    1.0758    0.0080 C.ar      1 <0>        -0.1173
     12 C12         1.1949    1.7757    0.0002 C.ar      1 <0>        -0.1008
     13 C13         2.4306    0.9154   -0.0183 C.3       1 <0>         0.1163
     14 O1          3.6316    1.5988    0.2345 O.3       1 <0>        -0.3238
     15 C14         4.1378    2.4622   -0.6686 C.ar      1 <0>         0.1216
     16 C15         3.5240    3.6915   -0.8614 C.ar      1 <0>        -0.0894
     17 C16         4.0020    4.5874   -1.8085 C.ar      1 <0>        -0.0944
     18 C17         5.1192    4.2497   -2.5514 C.ar      1 <0>        -0.0922
     19 C18         5.7466    3.0334   -2.3482 C.ar      1 <0>        -0.0881
     20 C19         5.2630    2.1367   -1.4128 C.ar      1 <0>        -0.1211
     21 C20         5.6541    5.2087   -3.5834 C.3       1 <0>        -0.0857
     22 C21         6.6822    6.1366   -2.9331 C.3       1 <0>         0.0764
     23 O2          7.1894    7.0460   -3.9118 O.3       1 <0>        -0.5687
     24 H1          4.8107    8.0537   -1.5445 H         1 <0>         0.1271
     25 H2          6.2082    8.5670   -0.5689 H         1 <0>         0.1258
     26 H3          5.6451    6.8799   -0.4984 H         1 <0>         0.1239
     27 H4          3.4528    9.9332    1.3336 H         1 <0>         0.1227
     28 H5          4.9656   10.2975    0.4695 H         1 <0>         0.1232
     29 H6          3.4952    9.8857   -0.4452 H         1 <0>         0.1234
     30 H7          2.7597    7.4603   -0.4738 H         1 <0>         0.1313
     31 H8          2.5382    7.7583    1.2670 H         1 <0>         0.1330
     32 H9          4.1181    5.9181    1.7830 H         1 <0>         0.0967
     33 H10         4.3396    5.6201    0.0422 H         1 <0>         0.0992
     34 H11         1.5761    5.3313    1.4335 H         1 <0>         0.1325
     35 H12        -0.1025    4.9035    0.0256 H         1 <0>         0.1236
     36 H13        -2.2046    3.6367    0.0393 H         1 <0>         0.1312
     37 H14        -2.1429    1.1695    0.0198 H         1 <0>         0.1316
     38 H15         0.0021   -0.0041    0.0020 H         1 <0>         0.1298
     39 H16         2.3159    0.1326    0.7315 H         1 <0>         0.1236
     40 H17         2.5061    0.4430   -0.9977 H         1 <0>         0.0704
     41 H18         3.5084    5.5355   -1.9629 H         1 <0>         0.1255
     42 H19         6.6234    2.7815   -2.9264 H         1 <0>         0.1353
     43 H20         5.7585    1.1890   -1.2619 H         1 <0>         0.1405
     44 H21         6.1287    4.6482   -4.3888 H         1 <0>         0.0898
     45 H22         4.8339    5.8019   -3.9879 H         1 <0>         0.0825
     46 H23         6.2075    6.6971   -2.1277 H         1 <0>         0.0352
     47 H24         7.5024    5.5435   -2.5287 H         1 <0>         0.0530
     48 H25         7.8477    7.6658   -3.5689 H         1 <0>         0.3841
     49 N1          4.4455    8.2615    0.5355 N.4       1 <0>        -0.3978
     50 H26         4.9483    8.0949    1.4150 H         1 <0>         0.4314
@<TRIPOS>BOND
     1    1   24 1
     2    1   25 1
     3    1   26 1
     4    1   49 1
     5    2   27 1
     6    2   28 1
     7    2   29 1
     8    2   49 1
     9    3    4 1
    10    3   30 1
    11    3   31 1
    12    3   49 1
    13    4    5 1
    14    4   32 1
    15    4   33 1
    16    5    6 2
    17    5   34 1
    18    6   16 1
    19    6    7 1
    20    7   12 ar
    21    7    8 ar
    22    8    9 ar
    23    8   35 1
    24    9   10 ar
    25    9   36 1
    26   10   11 ar
    27   10   37 1
    28   11   12 ar
    29   11   38 1
    30   12   13 1
    31   13   14 1
    32   13   39 1
    33   13   40 1
    34   14   15 1
    35   15   20 ar
    36   15   16 ar
    37   16   17 ar
    38   17   18 ar
    39   17   41 1
    40   18   19 ar
    41   18   21 1
    42   19   20 ar
    43   19   42 1
    44   20   43 1
    45   21   22 1
    46   21   44 1
    47   21   45 1
    48   22   23 1
    49   22   46 1
    50   22   47 1
    51   23   48 1
    52   49   50 1
@<TRIPOS>MOLECULE
ZINC00601274
   66    70     0     0     0
SMALL
USER_CHARGES

@<TRIPOS>ATOM
      1 C1         -0.0173    1.4248    0.0099 C.3       1 <0>         0.0235
      2 O1          0.0021   -0.0041    0.0020 O.3       1 <0>        -0.3122
      3 C2          0.6058   -0.6071   -1.0557 C.ar      1 <0>         0.1470
      4 C3          1.1730    0.1607   -2.0624 C.ar      1 <0>        -0.2069
      5 C4          1.7865   -0.4547   -3.1363 C.ar      1 <0>        -0.0659
      6 C5          1.8352   -1.8346   -3.2086 C.ar      1 <0>        -0.1508
      7 C6          1.2702   -2.6021   -2.2068 C.ar      1 <0>        -0.0670
      8 C7          0.6609   -1.9915   -1.1277 C.ar      1 <0>        -0.1494
      9 C8          2.5046   -2.5033   -4.3815 C.3       1 <0>        -0.0928
     10 C9          3.9857   -2.7227   -4.0663 C.3       1 <0>        -0.0078
     11 N1          4.6383   -3.3746   -5.2096 N.4       1 <0>        -0.3851
     12 C10         4.0698   -4.7148   -5.3968 C.3       1 <0>        -0.0055
     13 C11         4.6882   -5.3670   -6.6352 C.3       1 <0>        -0.1571
     14 C12         6.2039   -5.4757   -6.4451 C.3       1 <0>         0.1653
     15 C13         6.7761   -4.0808   -6.1767 C.3       1 <0>        -0.1624
     16 C14         6.0803   -3.4763   -4.9553 C.3       1 <0>        -0.0018
     17 N2          6.8113   -6.0294   -7.6578 N.pl3     1 <0>        -0.7086
     18 C15         8.0180   -6.6927   -7.5834 C.2       1 <0>         0.5366
     19 N3          8.7020   -6.8894   -6.4840 N.2       1 <0>        -0.5407
     20 C16         9.8394   -7.5757   -6.7708 C.ar      1 <0>         0.0759
     21 C17        10.9029   -8.0392   -5.9923 C.ar      1 <0>        -0.0787
     22 C18        11.9400   -8.7213   -6.5881 C.ar      1 <0>        -0.1163
     23 C19        11.9371   -8.9520   -7.9558 C.ar      1 <0>        -0.1062
     24 C20        10.8945   -8.5005   -8.7384 C.ar      1 <0>        -0.1057
     25 C21         9.8416   -7.8121   -8.1552 C.ar      1 <0>         0.0482
     26 N4          8.6748   -7.2475   -8.6442 N.pl3     1 <0>        -0.5047
     27 C22         8.2299   -7.2439  -10.0400 C.3       1 <0>         0.1559
     28 C23         8.7638   -6.0175  -10.7343 C.ar      1 <0>        -0.1332
     29 C24         8.0277   -4.8473  -10.7325 C.ar      1 <0>        -0.0736
     30 C25         8.5165   -3.7219  -11.3684 C.ar      1 <0>        -0.1551
     31 C26         9.7440   -3.7666  -12.0075 C.ar      1 <0>         0.1157
     32 C27        10.4803   -4.9392  -12.0086 C.ar      1 <0>        -0.1485
     33 C28         9.9919   -6.0618  -11.3675 C.ar      1 <0>        -0.0624
     34 F1         10.2226   -2.6672  -12.6298 F         1 <0>        -0.1319
     35 H1          1.0053    1.8021    0.0021 H         1 <0>         0.0593
     36 H2         -0.5445    1.7859   -0.8732 H         1 <0>         0.0598
     37 H3         -0.5275    1.7763    0.9067 H         1 <0>         0.1079
     38 H4          1.1347    1.2385   -2.0068 H         1 <0>         0.1346
     39 H5          2.2283    0.1425   -3.9203 H         1 <0>         0.1266
     40 H6          1.3092   -3.6798   -2.2657 H         1 <0>         0.1311
     41 H7          0.2237   -2.5913   -0.3432 H         1 <0>         0.1377
     42 H8          2.0276   -3.4646   -4.5726 H         1 <0>         0.0937
     43 H9          2.4108   -1.8695   -5.2632 H         1 <0>         0.0926
     44 H10         4.4627   -1.7615   -3.8752 H         1 <0>         0.1324
     45 H11         4.0795   -3.3566   -3.1846 H         1 <0>         0.1326
     46 H12         4.2840   -5.3256   -4.5198 H         1 <0>         0.1348
     47 H13         2.9906   -4.6361   -5.5288 H         1 <0>         0.1381
     48 H14         4.2661   -6.3627   -6.7714 H         1 <0>         0.1200
     49 H15         4.4743   -4.7571   -7.5129 H         1 <0>         0.0930
     50 H16         6.4192   -6.1271   -5.5981 H         1 <0>         0.1098
     51 H17         7.8464   -4.1571   -5.9852 H         1 <0>         0.1198
     52 H18         6.6055   -3.4442   -7.0449 H         1 <0>         0.0875
     53 H19         6.4855   -2.4832   -4.7614 H         1 <0>         0.1334
     54 H20         6.2517   -4.1135   -4.0877 H         1 <0>         0.1336
     55 H21         6.3646   -5.9295   -8.5130 H         1 <0>         0.4084
     56 H22        10.9118   -7.8627   -4.9269 H         1 <0>         0.1280
     57 H23        12.7621   -9.0790   -5.9860 H         1 <0>         0.1315
     58 H24        12.7565   -9.4883   -8.4111 H         1 <0>         0.1319
     59 H25        10.8985   -8.6827   -9.8029 H         1 <0>         0.1194
     60 H26         8.6021   -8.1367  -10.5423 H         1 <0>         0.1066
     61 H27         7.1405   -7.2353  -10.0741 H         1 <0>         0.0963
     62 H28         7.0701   -4.8127  -10.2343 H         1 <0>         0.1230
     63 H29         7.9411   -2.8079  -11.3672 H         1 <0>         0.1384
     64 H30        11.4378   -4.9753  -12.5070 H         1 <0>         0.1433
     65 H31        10.5681   -6.9753  -11.3644 H         1 <0>         0.1356
     66 H32         4.4825   -2.8261   -6.0421 H         1 <0>         0.4217
@<TRIPOS>BOND
     1    1    2 1
     2    1   35 1
     3    1   36 1
     4    1   37 1
     5    2    3 1
     6    3    8 ar
     7    3    4 ar
     8    4    5 ar
     9    4   38 1
    10    5    6 ar
    11    5   39 1
    12    6    7 ar
    13    6    9 1
    14    7    8 ar
    15    7   40 1
    16    8   41 1
    17    9   10 1
    18    9   42 1
    19    9   43 1
    20   10   11 1
    21   10   44 1
    22   10   45 1
    23   11   16 1
    24   11   12 1
    25   11   66 1
    26   12   13 1
    27   12   46 1
    28   12   47 1
    29   13   14 1
    30   13   48 1
    31   13   49 1
    32   14   15 1
    33   14   17 1
    34   14   50 1
    35   15   16 1
    36   15   51 1
    37   15   52 1
    38   16   53 1
    39   16   54 1
    40   17   18 1
    41   17   55 1
    42   18   26 1
    43   18   19 2
    44   19   20 1
    45   20   25 ar
    46   20   21 ar
    47   21   22 ar
    48   21   56 1
    49   22   23 ar
    50   22   57 1
    51   23   24 ar
    52   23   58 1
    53   24   25 ar
    54   24   59 1
    55   25   26 1
    56   26   27 1
    57   27   28 1
    58   27   60 1
    59   27   61 1
    60   28   33 ar
    61   28   29 ar
    62   29   30 ar
    63   29   62 1
    64   30   31 ar
    65   30   63 1
    66   31   32 ar
    67   31   34 1
    68   32   33 ar
    69   32   64 1
    70   33   65 1
@<TRIPOS>MOLECULE
ZINC00601274
   67    71     0     0     0
SMALL
USER_CHARGES

@<TRIPOS>ATOM
      1 C1         -0.0173    1.4248    0.0099 C.3       1 <0>         0.0224
      2 O1          0.0021   -0.0041    0.0020 O.3       1 <0>        -0.3102
      3 C2          0.6058   -0.6071   -1.0557 C.ar      1 <0>         0.1527
      4 C3          1.1730    0.1607   -2.0624 C.ar      1 <0>        -0.2067
      5 C4          1.7865   -0.4547   -3.1363 C.ar      1 <0>        -0.0644
      6 C5          1.8352   -1.8346   -3.2086 C.ar      1 <0>        -0.1592
      7 C6          1.2702   -2.6021   -2.2068 C.ar      1 <0>        -0.0668
      8 C7          0.6609   -1.9915   -1.1277 C.ar      1 <0>        -0.1497
      9 C8          2.5046   -2.5033   -4.3815 C.3       1 <0>        -0.0905
     10 C9          3.9857   -2.7227   -4.0663 C.3       1 <0>        -0.0094
     11 N1          4.6383   -3.3746   -5.2096 N.4       1 <0>        -0.3874
     12 C10         4.0698   -4.7148   -5.3968 C.3       1 <0>        -0.0091
     13 C11         4.6882   -5.3670   -6.6352 C.3       1 <0>        -0.1548
     14 C12         6.2039   -5.4757   -6.4451 C.3       1 <0>         0.1296
     15 C13         6.7761   -4.0808   -6.1767 C.3       1 <0>        -0.1730
     16 C14         6.0803   -3.4763   -4.9553 C.3       1 <0>        -0.0038
     17 N2          6.8113   -6.0294   -7.6578 N.pl3     1 <0>        -0.6860
     18 C15         8.0180   -6.6927   -7.5834 C.cat     1 <0>         0.6345
     19 N3          8.7020   -6.8894   -6.4840 N.pl3     1 <0>        -0.5322
     20 C16         9.8394   -7.5757   -6.7708 C.ar      1 <0>         0.0552
     21 C17        10.9029   -8.0392   -5.9923 C.ar      1 <0>        -0.0776
     22 C18        11.9400   -8.7213   -6.5881 C.ar      1 <0>        -0.0769
     23 C19        11.9371   -8.9520   -7.9558 C.ar      1 <0>        -0.0650
     24 C20        10.8945   -8.5005   -8.7384 C.ar      1 <0>        -0.0869
     25 C21         9.8416   -7.8121   -8.1552 C.ar      1 <0>         0.0882
     26 N4          8.6748   -7.2475   -8.6442 N.pl3     1 <0>        -0.4526
     27 C22         8.2299   -7.2439  -10.0400 C.3       1 <0>         0.1501
     28 C23         8.7638   -6.0175  -10.7343 C.ar      1 <0>        -0.1610
     29 C24         8.0277   -4.8473  -10.7325 C.ar      1 <0>        -0.0724
     30 C25         8.5165   -3.7219  -11.3684 C.ar      1 <0>        -0.1535
     31 C26         9.7440   -3.7666  -12.0075 C.ar      1 <0>         0.1357
     32 C27        10.4803   -4.9392  -12.0086 C.ar      1 <0>        -0.1459
     33 C28         9.9919   -6.0618  -11.3675 C.ar      1 <0>        -0.0549
     34 F1         10.2226   -2.6672  -12.6298 F         1 <0>        -0.1219
     35 H1          1.0053    1.8021    0.0021 H         1 <0>         0.0601
     36 H2         -0.5445    1.7859   -0.8732 H         1 <0>         0.0614
     37 H3         -0.5275    1.7763    0.9067 H         1 <0>         0.1105
     38 H4          1.1347    1.2385   -2.0068 H         1 <0>         0.1365
     39 H5          2.2283    0.1425   -3.9203 H         1 <0>         0.1263
     40 H6          1.3092   -3.6798   -2.2657 H         1 <0>         0.1297
     41 H7          0.2237   -2.5913   -0.3432 H         1 <0>         0.1391
     42 H8          2.0276   -3.4646   -4.5726 H         1 <0>         0.0931
     43 H9          2.4108   -1.8695   -5.2632 H         1 <0>         0.0939
     44 H10         4.4627   -1.7615   -3.8752 H         1 <0>         0.1369
     45 H11         4.0795   -3.3566   -3.1846 H         1 <0>         0.1350
     46 H12         4.2840   -5.3256   -4.5198 H         1 <0>         0.1385
     47 H13         2.9906   -4.6361   -5.5288 H         1 <0>         0.1499
     48 H14         4.2661   -6.3627   -6.7714 H         1 <0>         0.1306
     49 H15         4.4743   -4.7571   -7.5129 H         1 <0>         0.1071
     50 H16         6.4192   -6.1271   -5.5981 H         1 <0>         0.1090
     51 H17         7.8464   -4.1571   -5.9852 H         1 <0>         0.1147
     52 H18         6.6055   -3.4442   -7.0449 H         1 <0>         0.1086
     53 H19         6.4855   -2.4832   -4.7614 H         1 <0>         0.1451
     54 H20         6.2517   -4.1135   -4.0877 H         1 <0>         0.1361
     55 H21         6.3646   -5.9295   -8.5130 H         1 <0>         0.4377
     56 H22        10.9118   -7.8627   -4.9269 H         1 <0>         0.1509
     57 H23        12.7621   -9.0790   -5.9860 H         1 <0>         0.1582
     58 H24        12.7565   -9.4883   -8.4111 H         1 <0>         0.1585
     59 H25        10.8985   -8.6827   -9.8029 H         1 <0>         0.1493
     60 H26         8.6021   -8.1367  -10.5423 H         1 <0>         0.1352
     61 H27         7.1405   -7.2353  -10.0741 H         1 <0>         0.1167
     62 H28         7.0701   -4.8127  -10.2343 H         1 <0>         0.1232
     63 H29         7.9411   -2.8079  -11.3672 H         1 <0>         0.1451
     64 H30        11.4378   -4.9753  -12.5070 H         1 <0>         0.1509
     65 H31        10.5681   -6.9753  -11.3644 H         1 <0>         0.1400
     66 H32         4.4825   -2.8261   -6.0421 H         1 <0>         0.4261
     67 H33         8.4373   -6.5905   -5.6000 H         1 <0>         0.4497
@<TRIPOS>BOND
     1    1    2 1
     2    1   35 1
     3    1   36 1
     4    1   37 1
     5    2    3 1
     6    3    8 ar
     7    3    4 ar
     8    4    5 ar
     9    4   38 1
    10    5    6 ar
    11    5   39 1
    12    6    7 ar
    13    6    9 1
    14    7    8 ar
    15    7   40 1
    16    8   41 1
    17    9   10 1
    18    9   42 1
    19    9   43 1
    20   10   11 1
    21   10   44 1
    22   10   45 1
    23   11   16 1
    24   11   12 1
    25   11   66 1
    26   12   13 1
    27   12   46 1
    28   12   47 1
    29   13   14 1
    30   13   48 1
    31   13   49 1
    32   14   15 1
    33   14   17 1
    34   14   50 1
    35   15   16 1
    36   15   51 1
    37   15   52 1
    38   16   53 1
    39   16   54 1
    40   17   18 1
    41   17   55 1
    42   18   26 1
    43   18   19 2
    44   19   20 1
    45   19   67 1
    46   20   25 ar
    47   20   21 ar
    48   21   22 ar
    49   21   56 1
    50   22   23 ar
    51   22   57 1
    52   23   24 ar
    53   23   58 1
    54   24   25 ar
    55   24   59 1
    56   25   26 1
    57   26   27 1
    58   27   28 1
    59   27   60 1
    60   27   61 1
    61   28   33 ar
    62   28   29 ar
    63   29   30 ar
    64   29   62 1
    65   30   31 ar
    66   30   63 1
    67   31   32 ar
    68   31   34 1
    69   32   33 ar
    70   32   64 1
    71   33   65 1
@<TRIPOS>MOLECULE
ZINC19368911
   45    48     0     0     0
SMALL
USER_CHARGES

@<TRIPOS>ATOM
      1 C1          2.0551    1.5662    0.7968 C.3       1 <0>        -0.0458
      2 N1          2.1710    0.1021    0.8252 N.4       1 <0>        -0.3883
      3 C2          0.8956   -0.4814    1.2616 C.3       1 <0>        -0.0020
      4 C3          1.0217   -2.0057    1.3094 C.3       1 <0>         0.0173
      5 N2          1.3783   -2.5070   -0.0254 N.3       1 <0>        -0.5297
      6 C4          2.6408   -1.9123   -0.4862 C.3       1 <0>         0.0183
      7 C5          2.5014   -0.3887   -0.5192 C.3       1 <0>        -0.0012
      8 C6          1.4533   -3.9741   -0.0341 C.3       1 <0>         0.1436
      9 H1          1.8462   -4.2834   -1.0026 H         1 <0>         0.1046
     10 C7          2.4301   -4.3934    1.0165 C.3       1 <0>        -0.1244
     11 C8          2.8489   -5.8204    0.8787 C.ar      1 <0>        -0.0555
     12 C9          4.0898   -6.1157    0.3266 C.ar      1 <0>        -0.1195
     13 C10         4.4697   -7.4348    0.1641 C.ar      1 <0>        -0.0914
     14 C11         3.6229   -8.4613    0.5419 C.ar      1 <0>        -0.1144
     15 C12         2.3938   -8.1675    1.1031 C.ar      1 <0>        -0.0625
     16 C13         2.0322   -6.8363    1.2796 C.ar      1 <0>        -0.1284
     17 S1          0.5199   -6.4218    2.0741 S.3       1 <0>        -0.0012
     18 C14        -0.4216   -5.5163    0.9001 C.ar      1 <0>        -0.0960
     19 C15         0.0557   -4.5121    0.0944 C.ar      1 <0>        -0.0557
     20 C16        -0.8473   -3.8641   -0.7618 C.ar      1 <0>        -0.0920
     21 C17        -2.1732   -4.2168   -0.8314 C.ar      1 <0>        -0.0283
     22 C18        -2.6457   -5.2466   -0.0358 C.ar      1 <0>        -0.0945
     23 C19        -1.7774   -5.8802    0.8150 C.ar      1 <0>        -0.0768
     24 Cl1        -3.2470   -3.3781   -1.9071 Cl        1 <0>        -0.0552
     25 H2          1.2675    1.8549    0.1008 H         1 <0>         0.1234
     26 H3          1.8099    1.9307    1.7944 H         1 <0>         0.1246
     27 H4          3.0019    1.9995    0.4743 H         1 <0>         0.1245
     28 H5          0.6451   -0.1063    2.2539 H         1 <0>         0.1370
     29 H6          0.1098   -0.2037    0.5591 H         1 <0>         0.1384
     30 H7          1.7981   -2.2843    2.0219 H         1 <0>         0.0683
     31 H8          0.0709   -2.4397    1.6188 H         1 <0>         0.1252
     32 H9          3.4439   -2.1893    0.1967 H         1 <0>         0.0669
     33 H10         2.8714   -2.2781   -1.4868 H         1 <0>         0.1261
     34 H11         1.7074   -0.1115   -1.2125 H         1 <0>         0.1388
     35 H12         3.4414    0.0551   -0.8472 H         1 <0>         0.1373
     36 H13         3.3139   -3.7592    0.9484 H         1 <0>         0.0843
     37 H14         1.9741   -4.2537    1.9967 H         1 <0>         0.0953
     38 H15         4.7536   -5.3187    0.0257 H         1 <0>         0.1263
     39 H16         5.4351   -7.6657   -0.2615 H         1 <0>         0.1315
     40 H17         3.9209   -9.4894    0.3986 H         1 <0>         0.1361
     41 H18         1.7238   -8.9608    1.4000 H         1 <0>         0.1402
     42 H19        -0.4879   -3.0604   -1.3873 H         1 <0>         0.1430
     43 H20        -3.6820   -5.5466   -0.0853 H         1 <0>         0.1455
     44 H21        -2.1458   -6.6811    1.4390 H         1 <0>         0.1435
     45 H22         2.9004   -0.1649    1.4692 H         1 <0>         0.4225
@<TRIPOS>BOND
     1    1    2 1
     2    1   25 1
     3    1   26 1
     4    1   27 1
     5    2    7 1
     6    2    3 1
     7    2   45 1
     8    3    4 1
     9    3   28 1
    10    3   29 1
    11    4    5 1
    12    4   30 1
    13    4   31 1
    14    5    6 1
    15    5    8 1
    16    6    7 1
    17    6   32 1
    18    6   33 1
    19    7   34 1
    20    7   35 1
    21    8    9 1
    22    8   19 1
    23    8   10 1
    24   10   11 1
    25   10   36 1
    26   10   37 1
    27   11   16 ar
    28   11   12 ar
    29   12   13 ar
    30   12   38 1
    31   13   14 ar
    32   13   39 1
    33   14   15 ar
    34   14   40 1
    35   15   16 ar
    36   15   41 1
    37   16   17 1
    38   17   18 1
    39   18   23 ar
    40   18   19 ar
    41   19   20 ar
    42   20   21 ar
    43   20   42 1
    44   21   22 ar
    45   21   24 1
    46   22   23 ar
    47   22   43 1
    48   23   44 1
@<TRIPOS>MOLECULE
ZINC19368911
   45    48     0     0     0
SMALL
USER_CHARGES

@<TRIPOS>ATOM
      1 C1          1.8451    1.4255   -1.3654 C.3       1 <0>         0.0195
      2 N1          1.7915   -0.0418   -1.3192 N.3       1 <0>        -0.5416
      3 C2          2.6963   -0.5697   -0.2883 C.3       1 <0>         0.0276
      4 C3          2.6557   -2.0992   -0.3129 C.3       1 <0>        -0.0110
      5 N2          1.2823   -2.5567   -0.0641 N.4       1 <0>        -0.3883
      6 C4          0.3949   -2.0419   -1.1153 C.3       1 <0>        -0.0135
      7 C5          0.4167   -0.5119   -1.0974 C.3       1 <0>         0.0268
      8 C6          1.2470   -4.0253   -0.0699 C.3       1 <0>         0.0990
      9 H1          0.2105   -4.3357    0.0618 H         1 <0>         0.1437
     10 C7          1.7029   -4.4936   -1.4139 C.3       1 <0>        -0.1200
     11 C8          1.3893   -5.9329   -1.6608 C.ar      1 <0>        -0.0629
     12 C9          0.3114   -6.2656   -2.4727 C.ar      1 <0>        -0.1120
     13 C10        -0.0058   -7.5952   -2.6777 C.ar      1 <0>        -0.0869
     14 C11         0.7376   -8.5953   -2.0773 C.ar      1 <0>        -0.1050
     15 C12         1.8178   -8.2648   -1.2798 C.ar      1 <0>        -0.0597
     16 C13         2.1385   -6.9238   -1.0981 C.ar      1 <0>        -0.1311
     17 S1          3.5586   -6.4654   -0.1688 S.3       1 <0>         0.0267
     18 C14         2.9746   -5.5110    1.1849 C.ar      1 <0>        -0.0737
     19 C15         2.0331   -4.5141    1.1144 C.ar      1 <0>        -0.0987
     20 C16         1.7111   -3.8226    2.2919 C.ar      1 <0>        -0.1357
     21 C17         2.2878   -4.1261    3.5012 C.ar      1 <0>        -0.0093
     22 C18         3.2184   -5.1486    3.5733 C.ar      1 <0>        -0.0773
     23 C19         3.5523   -5.8244    2.4283 C.ar      1 <0>        -0.0627
     24 Cl1         1.8541   -3.2348    4.9265 Cl        1 <0>        -0.0338
     25 H2          1.4849    1.8322   -0.4205 H         1 <0>         0.0397
     26 H3          2.8736    1.7465   -1.5305 H         1 <0>         0.0846
     27 H4          1.2167    1.7866   -2.1795 H         1 <0>         0.0849
     28 H5          3.7126   -0.2296   -0.4877 H         1 <0>         0.1259
     29 H6          2.3788   -0.2132    0.6915 H         1 <0>         0.0604
     30 H7          2.9863   -2.4558   -1.2884 H         1 <0>         0.1426
     31 H8          3.3154   -2.4927    0.4604 H         1 <0>         0.1353
     32 H9          0.7371   -2.3987   -2.0867 H         1 <0>         0.1446
     33 H10        -0.6216   -2.3928   -0.9368 H         1 <0>         0.1385
     34 H11         0.0616   -0.1544   -0.1308 H         1 <0>         0.0610
     35 H12        -0.2302   -0.1296   -1.8870 H         1 <0>         0.1268
     36 H13         1.2157   -3.8909   -2.1804 H         1 <0>         0.1119
     37 H14         2.7809   -4.3505   -1.4894 H         1 <0>         0.1140
     38 H15        -0.2754   -5.4891   -2.9409 H         1 <0>         0.1335
     39 H16        -0.8409   -7.8552   -3.3113 H         1 <0>         0.1367
     40 H17         0.4749   -9.6316   -2.2306 H         1 <0>         0.1404
     41 H18         2.4041   -9.0372   -0.8044 H         1 <0>         0.1440
     42 H19         0.9853   -3.0241    2.2460 H         1 <0>         0.1247
     43 H20         3.6736   -5.4102    4.5171 H         1 <0>         0.1573
     44 H21         4.2810   -6.6197    2.4827 H         1 <0>         0.1555
     45 H22         0.9722   -2.2168    0.8338 H         1 <0>         0.4179
@<TRIPOS>BOND
     1    1    2 1
     2    1   25 1
     3    1   26 1
     4    1   27 1
     5    2    7 1
     6    2    3 1
     7    3    4 1
     8    3   28 1
     9    3   29 1
    10    4    5 1
    11    4   30 1
    12    4   31 1
    13    5    6 1
    14    5    8 1
    15    5   45 1
    16    6    7 1
    17    6   32 1
    18    6   33 1
    19    7   34 1
    20    7   35 1
    21    8    9 1
    22    8   19 1
    23    8   10 1
    24   10   11 1
    25   10   36 1
    26   10   37 1
    27   11   16 ar
    28   11   12 ar
    29   12   13 ar
    30   12   38 1
    31   13   14 ar
    32   13   39 1
    33   14   15 ar
    34   14   40 1
    35   15   16 ar
    36   15   41 1
    37   16   17 1
    38   17   18 1
    39   18   23 ar
    40   18   19 ar
    41   19   20 ar
    42   20   21 ar
    43   20   42 1
    44   21   22 ar
    45   21   24 1
    46   22   23 ar
    47   22   43 1
    48   23   44 1
@<TRIPOS>MOLECULE
ZINC19368911
   44    47     0     0     0
SMALL
USER_CHARGES

@<TRIPOS>ATOM
      1 C1          2.0989    1.4895    0.7356 C.3       1 <0>         0.0247
      2 N1          2.1188    0.0206    0.7275 N.3       1 <0>        -0.5452
      3 C2          0.8507   -0.5260    1.2301 C.3       1 <0>         0.0570
      4 C3          0.9408   -2.0530    1.2806 C.3       1 <0>         0.0525
      5 N2          1.2373   -2.5683   -0.0634 N.3       1 <0>        -0.5288
      6 C4          2.5054   -2.0217   -0.5660 C.3       1 <0>         0.0516
      7 C5          2.4152   -0.4946   -0.6165 C.3       1 <0>         0.0571
      8 C6          1.2572   -4.0372   -0.0715 C.3       1 <0>         0.1371
      9 H1          1.6072   -4.3617   -1.0514 H         1 <0>         0.0931
     10 C7          2.2505   -4.4919    0.9484 C.3       1 <0>        -0.1274
     11 C8          2.6112   -5.9337    0.8002 C.ar      1 <0>        -0.0439
     12 C9          3.8219   -6.2756    0.2095 C.ar      1 <0>        -0.1188
     13 C10         4.1470   -7.6080    0.0376 C.ar      1 <0>        -0.0953
     14 C11         3.2749   -8.6019    0.4442 C.ar      1 <0>        -0.1230
     15 C12         2.0761   -8.2619    1.0437 C.ar      1 <0>        -0.0661
     16 C13         1.7703   -6.9180    1.2289 C.ar      1 <0>        -0.1283
     17 S1          0.3005   -6.4465    2.0702 S.3       1 <0>        -0.0085
     18 C14        -0.6434   -5.5075    0.9249 C.ar      1 <0>        -0.0998
     19 C15        -0.1547   -4.5225    0.1025 C.ar      1 <0>        -0.0379
     20 C16        -1.0598   -3.8419   -0.7259 C.ar      1 <0>        -0.0855
     21 C17        -2.3995   -4.1448   -0.7526 C.ar      1 <0>        -0.0290
     22 C18        -2.8845   -5.1556    0.0596 C.ar      1 <0>        -0.1026
     23 C19        -2.0139   -5.8205    0.8837 C.ar      1 <0>        -0.0807
     24 Cl1        -3.4749   -3.2674   -1.7954 Cl        1 <0>        -0.0640
     25 H2          1.3324    1.8463    0.0476 H         1 <0>         0.0271
     26 H3          1.8772    1.8443    1.7421 H         1 <0>         0.0692
     27 H4          3.0722    1.8678    0.4231 H         1 <0>         0.0693
     28 H5          0.6595   -0.1397    2.2313 H         1 <0>         0.0806
     29 H6          0.0387   -0.2314    0.5652 H         1 <0>         0.0434
     30 H7          1.7350   -2.3480    1.9665 H         1 <0>         0.0509
     31 H8         -0.0087   -2.4622    1.6257 H         1 <0>         0.0810
     32 H9          3.3173   -2.3162    0.0989 H         1 <0>         0.0504
     33 H10         2.6965   -2.4079   -1.5672 H         1 <0>         0.0822
     34 H11         1.6211   -0.1997   -1.3023 H         1 <0>         0.0440
     35 H12         3.3647   -0.0855   -0.9615 H         1 <0>         0.0813
     36 H13         3.1548   -3.8912    0.8509 H         1 <0>         0.0902
     37 H14         1.8315   -4.3344    1.9422 H         1 <0>         0.0943
     38 H15         4.5051   -5.5042   -0.1139 H         1 <0>         0.1278
     39 H16         5.0890   -7.8753   -0.4180 H         1 <0>         0.1278
     40 H17         3.5296   -9.6406    0.2936 H         1 <0>         0.1311
     41 H18         1.3867   -9.0294    1.3632 H         1 <0>         0.1363
     42 H19        -0.6907   -3.0526   -1.3641 H         1 <0>         0.1451
     43 H20        -3.9323   -5.4166    0.0437 H         1 <0>         0.1408
     44 H21        -2.3918   -6.6065    1.5207 H         1 <0>         0.1391
@<TRIPOS>BOND
     1    1    2 1
     2    1   25 1
     3    1   26 1
     4    1   27 1
     5    2    7 1
     6    2    3 1
     7    3    4 1
     8    3   28 1
     9    3   29 1
    10    4    5 1
    11    4   30 1
    12    4   31 1
    13    5    6 1
    14    5    8 1
    15    6    7 1
    16    6   32 1
    17    6   33 1
    18    7   34 1
    19    7   35 1
    20    8    9 1
    21    8   19 1
    22    8   10 1
    23   10   11 1
    24   10   36 1
    25   10   37 1
    26   11   16 ar
    27   11   12 ar
    28   12   13 ar
    29   12   38 1
    30   13   14 ar
    31   13   39 1
    32   14   15 ar
    33   14   40 1
    34   15   16 ar
    35   15   41 1
    36   16   17 1
    37   17   18 1
    38   18   23 ar
    39   18   19 ar
    40   19   20 ar
    41   20   21 ar
    42   20   42 1
    43   21   22 ar
    44   21   24 1
    45   22   23 ar
    46   22   43 1
    47   23   44 1
@<TRIPOS>MOLECULE
ZINC03781952
   75    78     0     0     0
SMALL
USER_CHARGES

@<TRIPOS>ATOM
      1 C1         -0.0187    1.5258    0.0104 C.3       1 <0>        -0.1407
      2 C2          0.0021   -0.0041    0.0020 C.3       1 <0>        -0.0385
      3 C3          0.7421   -0.5109    1.2415 C.3       1 <0>        -0.1408
      4 C4         -1.4333   -0.5336    0.0129 C.3       1 <0>        -0.1494
      5 C5          0.7074   -0.4901   -1.2379 C.ar      1 <0>        -0.0242
      6 C6          0.0318   -1.2851   -2.1472 C.ar      1 <0>        -0.1330
      7 C7          0.6704   -1.7342   -3.2838 C.ar      1 <0>        -0.0521
      8 C8          2.0042   -1.3838   -3.5167 C.ar      1 <0>        -0.1900
      9 C9          2.6798   -0.5797   -2.5932 C.ar      1 <0>        -0.0705
     10 C10         2.0257   -0.1343   -1.4640 C.ar      1 <0>        -0.1293
     11 C11         2.6933   -1.8592   -4.7271 C.2       1 <0>         0.4019
     12 O1          2.1046   -2.5566   -5.5255 O.2       1 <0>        -0.4523
     13 C12         4.1305   -1.4793   -4.9741 C.3       1 <0>        -0.1645
     14 C13         4.6026   -2.0988   -6.2911 C.3       1 <0>        -0.1428
     15 C14         6.0618   -1.7131   -6.5419 C.3       1 <0>        -0.0098
     16 N1          6.5150   -2.3078   -7.8064 N.4       1 <0>        -0.3848
     17 C15         5.7542   -1.7268   -8.9191 C.3       1 <0>        -0.0081
     18 C16         6.1653   -2.4008  -10.2299 C.3       1 <0>        -0.1447
     19 C17         7.6627   -2.1804  -10.4632 C.3       1 <0>         0.0798
     20 C18         8.4419   -2.7237   -9.2620 C.3       1 <0>        -0.1729
     21 C19         7.9464   -2.0378   -7.9870 C.3       1 <0>        -0.0020
     22 O2          8.0684   -2.8698  -11.6473 O.3       1 <0>        -0.3517
     23 C20         9.1590   -2.2528  -12.3343 C.3       1 <0>         0.1820
     24 C21         9.9653   -3.3078  -13.0469 C.ar      1 <0>        -0.0932
     25 C22         9.3246   -4.3510  -13.6889 C.ar      1 <0>        -0.0892
     26 C23        10.0641   -5.3188  -14.3426 C.ar      1 <0>        -0.1204
     27 C24        11.4443   -5.2432  -14.3547 C.ar      1 <0>        -0.1095
     28 C25        12.0850   -4.1995  -13.7134 C.ar      1 <0>        -0.1178
     29 C26        11.3453   -3.2294  -13.0634 C.ar      1 <0>        -0.1086
     30 C27         8.6252   -1.2645  -13.3391 C.ar      1 <0>        -0.1192
     31 C28         7.4409   -1.5250  -14.0028 C.ar      1 <0>        -0.0948
     32 C29         6.9513   -0.6186  -14.9244 C.ar      1 <0>        -0.1204
     33 C30         7.6457    0.5486  -15.1820 C.ar      1 <0>        -0.1107
     34 C31         8.8295    0.8095  -14.5177 C.ar      1 <0>        -0.1173
     35 C32         9.3169   -0.0949  -13.5929 C.ar      1 <0>        -0.1097
     36 H1          1.0039    1.9031    0.0027 H         1 <0>         0.0582
     37 H2         -0.5459    1.8868   -0.8726 H         1 <0>         0.0580
     38 H3         -0.5289    1.8773    0.9072 H         1 <0>         0.0652
     39 H4          0.2319   -0.1594    2.1383 H         1 <0>         0.0652
     40 H5          0.7568   -1.6008    1.2356 H         1 <0>         0.0581
     41 H6          1.7647   -0.1336    1.2338 H         1 <0>         0.0583
     42 H7         -1.9605   -0.1726   -0.8702 H         1 <0>         0.0608
     43 H8         -1.4185   -1.6235    0.0069 H         1 <0>         0.0608
     44 H9         -1.9435   -0.1821    0.9097 H         1 <0>         0.0648
     45 H10        -0.9981   -1.5548   -1.9660 H         1 <0>         0.1374
     46 H11         0.1421   -2.3551   -3.9922 H         1 <0>         0.1339
     47 H12         3.7100   -0.3052   -2.7660 H         1 <0>         0.1290
     48 H13         2.5448    0.4903   -0.7521 H         1 <0>         0.1310
     49 H14         4.2147   -0.3941   -5.0323 H         1 <0>         0.1108
     50 H15         4.7496   -1.8484   -4.1565 H         1 <0>         0.1112
     51 H16         4.5185   -3.1840   -6.2329 H         1 <0>         0.0947
     52 H17         3.9835   -1.7296   -7.1087 H         1 <0>         0.0945
     53 H18         6.1459   -0.6279   -6.6001 H         1 <0>         0.1318
     54 H19         6.6809   -2.0822   -5.7243 H         1 <0>         0.1338
     55 H20         4.6886   -1.8817   -8.7500 H         1 <0>         0.1392
     56 H21         5.9600   -0.6582   -8.9805 H         1 <0>         0.1309
     57 H22         5.9598   -3.4696  -10.1697 H         1 <0>         0.0986
     58 H23         5.6006   -1.9668  -11.0551 H         1 <0>         0.1191
     59 H24         7.8612   -1.1144  -10.5745 H         1 <0>         0.0798
     60 H25         8.2836   -3.7992   -9.1817 H         1 <0>         0.0990
     61 H26         9.5044   -2.5205   -9.3953 H         1 <0>         0.1130
     62 H27         8.1054   -0.9625   -8.0683 H         1 <0>         0.1296
     63 H28         8.4993   -2.4221   -7.1299 H         1 <0>         0.1347
     64 H29         9.7938   -1.7338  -11.6162 H         1 <0>         0.0781
     65 H30         8.2462   -4.4101  -13.6795 H         1 <0>         0.1238
     66 H31         9.5636   -6.1342  -14.8436 H         1 <0>         0.1255
     67 H32        12.0222   -5.9997  -14.8648 H         1 <0>         0.1260
     68 H33        13.1634   -4.1406  -13.7226 H         1 <0>         0.1268
     69 H34        11.8457   -2.4119  -12.5656 H         1 <0>         0.1207
     70 H35         6.8984   -2.4369  -13.8015 H         1 <0>         0.1247
     71 H36         6.0264   -0.8224  -15.4435 H         1 <0>         0.1249
     72 H37         7.2635    1.2565  -15.9026 H         1 <0>         0.1255
     73 H38         9.3722    1.7213  -14.7192 H         1 <0>         0.1260
     74 H39        10.2399    0.1106  -13.0711 H         1 <0>         0.1206
     75 H40         6.3624   -3.3049   -7.7817 H         1 <0>         0.4252
@<TRIPOS>BOND
     1    1    2 1
     2    1   36 1
     3    1   37 1
     4    1   38 1
     5    2    3 1
     6    2    4 1
     7    2    5 1
     8    3   39 1
     9    3   40 1
    10    3   41 1
    11    4   42 1
    12    4   43 1
    13    4   44 1
    14    5   10 ar
    15    5    6 ar
    16    6    7 ar
    17    6   45 1
    18    7    8 ar
    19    7   46 1
    20    8    9 ar
    21    8   11 1
    22    9   10 ar
    23    9   47 1
    24   10   48 1
    25   11   12 2
    26   11   13 1
    27   13   14 1
    28   13   49 1
    29   13   50 1
    30   14   15 1
    31   14   51 1
    32   14   52 1
    33   15   16 1
    34   15   53 1
    35   15   54 1
    36   16   21 1
    37   16   17 1
    38   16   75 1
    39   17   18 1
    40   17   55 1
    41   17   56 1
    42   18   19 1
    43   18   57 1
    44   18   58 1
    45   19   20 1
    46   19   22 1
    47   19   59 1
    48   20   21 1
    49   20   60 1
    50   20   61 1
    51   21   62 1
    52   21   63 1
    53   22   23 1
    54   23   24 1
    55   23   30 1
    56   23   64 1
    57   24   29 ar
    58   24   25 ar
    59   25   26 ar
    60   25   65 1
    61   26   27 ar
    62   26   66 1
    63   27   28 ar
    64   27   67 1
    65   28   29 ar
    66   28   68 1
    67   29   69 1
    68   30   35 ar
    69   30   31 ar
    70   31   32 ar
    71   31   70 1
    72   32   33 ar
    73   32   71 1
    74   33   34 ar
    75   33   72 1
    76   34   35 ar
    77   34   73 1
    78   35   74 1
@<TRIPOS>MOLECULE
ZINC19796155
   42    45     0     0     0
SMALL
USER_CHARGES

@<TRIPOS>ATOM
      1 C1         -0.0670    1.4396   -0.3852 C.3       1 <0>         0.0243
      2 N1         -0.0229   -0.0169   -0.1987 N.3       1 <0>        -0.5428
      3 C2          0.3808   -0.6943   -1.4380 C.3       1 <0>         0.0399
      4 C3          0.2401   -2.2095   -1.2572 C.3       1 <0>         0.1263
      5 N2          0.9912   -2.6085   -0.0572 N.pl3     1 <0>        -0.5953
      6 C4          0.7394   -1.8803    1.1955 C.3       1 <0>         0.1122
      7 C5          0.8604   -0.3781    0.9181 C.3       1 <0>         0.0393
      8 C6          1.9051   -3.6365   -0.1053 C.2       1 <0>         0.5098
      9 N3          2.1670   -4.1290   -1.2643 N.2       1 <0>        -0.6041
     10 C7          3.0130   -5.1503   -1.5719 C.ar      1 <0>         0.1655
     11 C8          2.6280   -6.0848   -2.5372 C.ar      1 <0>        -0.1058
     12 C9          3.4872   -7.1047   -2.8991 C.ar      1 <0>        -0.0230
     13 C10         4.7348   -7.2069   -2.3106 C.ar      1 <0>        -0.1209
     14 C11         5.1212   -6.2977   -1.3402 C.ar      1 <0>        -0.1017
     15 C12         4.2618   -5.2835   -0.9546 C.ar      1 <0>         0.1117
     16 N4          4.6314   -4.4326    0.1003 N.pl3     1 <0>        -0.7261
     17 C13         3.8434   -4.4184    1.2519 C.ar      1 <0>         0.2140
     18 C14         2.4943   -4.0640    1.1729 C.ar      1 <0>        -0.1453
     19 C15         1.7072   -4.1133    2.3240 C.ar      1 <0>        -0.0723
     20 C16         2.2727   -4.4729    3.5311 C.ar      1 <0>        -0.1389
     21 C17         3.6189   -4.7825    3.6069 C.ar      1 <0>        -0.0765
     22 C18         4.3974   -4.7629    2.4751 C.ar      1 <0>        -0.1433
     23 Cl1         2.9987   -8.2627   -4.0966 Cl        1 <0>        -0.0679
     24 H1          0.9359    1.8090   -0.5992 H         1 <0>         0.0255
     25 H2         -0.7279    1.6794   -1.2181 H         1 <0>         0.0711
     26 H3         -0.4416    1.9111    0.5233 H         1 <0>         0.0709
     27 H4         -0.2581   -0.3649   -2.2574 H         1 <0>         0.0878
     28 H5          1.4186   -0.4499   -1.6647 H         1 <0>         0.0378
     29 H6         -0.8117   -2.4673   -1.1334 H         1 <0>         0.0720
     30 H7          0.6453   -2.7216   -2.1299 H         1 <0>         0.1060
     31 H8         -0.2645   -2.1065    1.5551 H         1 <0>         0.0792
     32 H9          1.4746   -2.1748    1.9444 H         1 <0>         0.0984
     33 H10         1.8915   -0.1381    0.6586 H         1 <0>         0.0379
     34 H11         0.5693    0.1807    1.8075 H         1 <0>         0.0892
     35 H12         1.6558   -6.0097   -3.0016 H         1 <0>         0.1375
     36 H13         5.4083   -7.9971   -2.6081 H         1 <0>         0.1357
     37 H14         6.0961   -6.3802   -0.8829 H         1 <0>         0.1326
     38 H15         5.4169   -3.8679    0.0299 H         1 <0>         0.4097
     39 H16         0.6563   -3.8699    2.2709 H         1 <0>         0.1344
     40 H17         1.6613   -4.5124    4.4205 H         1 <0>         0.1323
     41 H18         4.0571   -5.0467    4.5580 H         1 <0>         0.1317
     42 H19         5.4473   -5.0071    2.5424 H         1 <0>         0.1313
@<TRIPOS>BOND
     1    1    2 1
     2    1   24 1
     3    1   25 1
     4    1   26 1
     5    2    7 1
     6    2    3 1
     7    3    4 1
     8    3   27 1
     9    3   28 1
    10    4    5 1
    11    4   29 1
    12    4   30 1
    13    5    6 1
    14    5    8 1
    15    6    7 1
    16    6   31 1
    17    6   32 1
    18    7   33 1
    19    7   34 1
    20    8   18 1
    21    8    9 2
    22    9   10 1
    23   10   15 ar
    24   10   11 ar
    25   11   12 ar
    26   11   35 1
    27   12   13 ar
    28   12   23 1
    29   13   14 ar
    30   13   36 1
    31   14   15 ar
    32   14   37 1
    33   15   16 1
    34   16   17 1
    35   16   38 1
    36   17   22 ar
    37   17   18 ar
    38   18   19 ar
    39   19   20 ar
    40   19   39 1
    41   20   21 ar
    42   20   40 1
    43   21   22 ar
    44   21   41 1
    45   22   42 1
@<TRIPOS>MOLECULE
ZINC19796155
   44    47     0     0     0
SMALL
USER_CHARGES

@<TRIPOS>ATOM
      1 C1         -1.5703   -0.0018   -1.9302 C.3       1 <0>        -0.0497
      2 N1         -0.7527   -0.7171   -0.9414 N.4       1 <0>        -0.3854
      3 C2         -1.0498   -2.1535   -1.0104 C.3       1 <0>        -0.0252
      4 C3         -0.2839   -2.8861    0.0962 C.3       1 <0>         0.1048
      5 N2          1.1441   -2.5548   -0.0269 N.pl3     1 <0>        -0.7052
      6 C4          1.5202   -1.1363   -0.1296 C.3       1 <0>         0.1049
      7 C5          0.6692   -0.4862   -1.2256 C.3       1 <0>        -0.0251
      8 C6          2.0831   -3.5253   -0.0448 C.2       1 <0>         0.6309
      9 C7          2.6112   -3.9094    1.2074 C.ar      1 <0>        -0.2438
     10 C8          2.0495   -3.1929    2.2728 C.ar      1 <0>         0.0055
     11 C9          2.4602   -3.4528    3.5483 C.ar      1 <0>        -0.1817
     12 C10         3.4265   -4.4148    3.8208 C.ar      1 <0>         0.0489
     13 C11         4.0101   -5.1439    2.8276 C.ar      1 <0>        -0.2233
     14 C12         3.6302   -4.9235    1.4921 C.ar      1 <0>         0.3343
     15 N3          4.2865   -5.7106    0.6358 N.pl3     1 <0>        -0.6131
     16 C13         4.1767   -5.7728   -0.7271 C.ar      1 <0>         0.1589
     17 C14         5.0408   -6.7320   -1.2562 C.ar      1 <0>        -0.1157
     18 C15         5.0795   -6.9478   -2.6222 C.ar      1 <0>        -0.0495
     19 C16         4.2642   -6.2154   -3.4643 C.ar      1 <0>        -0.0338
     20 C17         3.4016   -5.2585   -2.9468 C.ar      1 <0>        -0.0846
     21 C18         3.3520   -5.0321   -1.5848 C.ar      1 <0>         0.0769
     22 N4          2.4115   -4.0290   -1.2719 N.pl3     1 <0>        -0.5773
     23 Cl1         4.3195   -6.4929   -5.1771 Cl        1 <0>        -0.0159
     24 H1         -1.3348   -0.3678   -2.9295 H         1 <0>         0.1246
     25 H2         -2.6262   -0.1724   -1.7203 H         1 <0>         0.1321
     26 H3         -1.3566    1.0656   -1.8745 H         1 <0>         0.1321
     27 H4         -2.1201   -2.3101   -0.8766 H         1 <0>         0.1569
     28 H5         -0.7442   -2.5415   -1.9820 H         1 <0>         0.1344
     29 H6         -0.6518   -2.5648    1.0707 H         1 <0>         0.1155
     30 H7         -0.4211   -3.9618   -0.0138 H         1 <0>         0.1302
     31 H8          1.3345   -0.6383    0.8220 H         1 <0>         0.1155
     32 H9          2.5758   -1.0551   -0.3891 H         1 <0>         0.1302
     33 H10         0.9228   -0.9247   -2.1907 H         1 <0>         0.1344
     34 H11         0.8655    0.5856   -1.2504 H         1 <0>         0.1569
     35 H12         1.2975   -2.4405    2.0860 H         1 <0>         0.1502
     36 H13         2.0243   -2.8976    4.3657 H         1 <0>         0.1496
     37 H14         3.7223   -4.5886    4.8448 H         1 <0>         0.1558
     38 H15         4.7590   -5.8851    3.0650 H         1 <0>         0.1623
     39 H16         5.6790   -7.3052   -0.6001 H         1 <0>         0.1677
     40 H17         5.7487   -7.6901   -3.0316 H         1 <0>         0.1653
     41 H18         2.7675   -4.6896   -3.6107 H         1 <0>         0.1565
     42 H19         1.9393   -3.6432   -2.0263 H         1 <0>         0.4255
     43 H20         4.9278   -6.3202    1.0333 H         1 <0>         0.4372
     44 H21        -0.9695   -0.3754   -0.0171 H         1 <0>         0.4310
@<TRIPOS>BOND
     1    1    2 1
     2    1   24 1
     3    1   25 1
     4    1   26 1
     5    2    7 1
     6    2    3 1
     7    2   44 1
     8    3    4 1
     9    3   27 1
    10    3   28 1
    11    4    5 1
    12    4   29 1
    13    4   30 1
    14    5    6 1
    15    5    8 1
    16    6    7 1
    17    6   31 1
    18    6   32 1
    19    7   33 1
    20    7   34 1
    21    8   22 1
    22    8    9 2
    23    9   14 ar
    24    9   10 ar
    25   10   11 ar
    26   10   35 1
    27   11   12 ar
    28   11   36 1
    29   12   13 ar
    30   12   37 1
    31   13   14 ar
    32   13   38 1
    33   14   15 2
    34   15   16 1
    35   15   43 1
    36   16   21 ar
    37   16   17 ar
    38   17   18 ar
    39   17   39 1
    40   18   19 ar
    41   18   40 1
    42   19   20 ar
    43   19   23 1
    44   20   21 ar
    45   20   41 1
    46   21   22 1
    47   22   42 1
@<TRIPOS>MOLECULE
ZINC19796155
   43    46     0     0     0
SMALL
USER_CHARGES

@<TRIPOS>ATOM
      1 C1         -0.0523    1.4387   -0.3863 C.3       1 <0>        -0.0469
      2 N1         -0.0147   -0.0168   -0.1908 N.4       1 <0>        -0.3852
      3 C2          0.4863   -0.6601   -1.4120 C.3       1 <0>        -0.0213
      4 C3          0.4181   -2.1823   -1.2510 C.3       1 <0>         0.1002
      5 N2          1.1441   -2.5548   -0.0269 N.pl3     1 <0>        -0.6180
      6 C4          0.8178   -1.8405    1.2170 C.3       1 <0>         0.0860
      7 C5          0.8671   -0.3344    0.9395 C.3       1 <0>        -0.0221
      8 C6          2.1017   -3.5432   -0.0451 C.2       1 <0>         0.5019
      9 N3          2.4234   -4.0210   -1.1951 N.2       1 <0>        -0.5760
     10 C7          3.3217   -5.0050   -1.4750 C.ar      1 <0>         0.1390
     11 C8          3.0096   -5.9522   -2.4541 C.ar      1 <0>        -0.0932
     12 C9          3.9229   -6.9340   -2.7877 C.ar      1 <0>        -0.0267
     13 C10         5.1529   -6.9852   -2.1572 C.ar      1 <0>        -0.1032
     14 C11         5.4673   -6.0631   -1.1730 C.ar      1 <0>        -0.1031
     15 C12         4.5533   -5.0871   -0.8155 C.ar      1 <0>         0.1235
     16 N4          4.8505   -4.2243    0.2524 N.pl3     1 <0>        -0.7273
     17 C13         4.0239   -4.2464    1.3765 C.ar      1 <0>         0.2173
     18 C14         2.6645   -3.9489    1.2520 C.ar      1 <0>        -0.1537
     19 C15         1.8414   -4.0345    2.3754 C.ar      1 <0>        -0.0841
     20 C16         2.3802   -4.3733    3.6007 C.ar      1 <0>        -0.1334
     21 C17         3.7349   -4.6261    3.7220 C.ar      1 <0>        -0.0692
     22 C18         4.5500   -4.5705    2.6174 C.ar      1 <0>        -0.1369
     23 Cl1         3.5248   -8.1083   -4.0027 Cl        1 <0>        -0.0551
     24 H1          0.9534    1.8033   -0.5956 H         1 <0>         0.1211
     25 H2         -0.7066    1.6758   -1.2253 H         1 <0>         0.1256
     26 H3         -0.4316    1.9169    0.5167 H         1 <0>         0.1252
     27 H4         -0.1269   -0.3565   -2.2605 H         1 <0>         0.1425
     28 H5          1.5196   -0.3587   -1.5839 H         1 <0>         0.1315
     29 H6         -0.6226   -2.4957   -1.1694 H         1 <0>         0.0898
     30 H7          0.8819   -2.6629   -2.1125 H         1 <0>         0.1431
     31 H8         -0.1827   -2.1194    1.5479 H         1 <0>         0.0960
     32 H9          1.5457   -2.0950    1.9873 H         1 <0>         0.1385
     33 H10         1.8889   -0.0428    0.6965 H         1 <0>         0.1320
     34 H11         0.5345    0.2092    1.8238 H         1 <0>         0.1439
     35 H12         2.0515   -5.9169   -2.9512 H         1 <0>         0.1396
     36 H13         5.8689   -7.7454   -2.4325 H         1 <0>         0.1422
     37 H14         6.4287   -6.1057   -0.6827 H         1 <0>         0.1382
     38 H15         5.6134   -3.6267    0.2096 H         1 <0>         0.4129
     39 H16         0.7836   -3.8354    2.2868 H         1 <0>         0.1314
     40 H17         1.7411   -4.4409    4.4686 H         1 <0>         0.1357
     41 H18         4.1512   -4.8742    4.6872 H         1 <0>         0.1370
     42 H19         5.6063   -4.7705    2.7202 H         1 <0>         0.1363
     43 H20        -0.9456   -0.3526    0.0057 H         1 <0>         0.4250
@<TRIPOS>BOND
     1    1    2 1
     2    1   24 1
     3    1   25 1
     4    1   26 1
     5    2    7 1
     6    2    3 1
     7    2   43 1
     8    3    4 1
     9    3   27 1
    10    3   28 1
    11    4    5 1
    12    4   29 1
    13    4   30 1
    14    5    6 1
    15    5    8 1
    16    6    7 1
    17    6   31 1
    18    6   32 1
    19    7   33 1
    20    7   34 1
    21    8   18 1
    22    8    9 2
    23    9   10 1
    24   10   15 ar
    25   10   11 ar
    26   11   12 ar
    27   11   35 1
    28   12   13 ar
    29   12   23 1
    30   13   14 ar
    31   13   36 1
    32   14   15 ar
    33   14   37 1
    34   15   16 1
    35   16   17 1
    36   16   38 1
    37   17   22 ar
    38   17   18 ar
    39   18   19 ar
    40   19   20 ar
    41   19   39 1
    42   20   21 ar
    43   20   40 1
    44   21   22 ar
    45   21   41 1
    46   22   42 1
@<TRIPOS>MOLECULE
ZINC01542113
   61    65     0     0     0
SMALL
USER_CHARGES
5-[4-[4-(5-cyano-1H-indol-3-yl)butyl]piperazin-1-yl]benzofuran-2-carboxamide
@<TRIPOS>ATOM
      1 C1         -0.6908   -1.8418   -9.9564 C.ar      1 <0>        -0.0533
      2 C2          0.2910   -0.9109  -10.1276 C.ar      1 <0>        -0.1223
      3 C3          0.4306    0.1367   -9.2201 C.ar      1 <0>         0.1217
      4 C4         -0.4445    0.2270   -8.1198 C.ar      1 <0>        -0.1088
      5 C5         -1.4499   -0.7217   -7.9498 C.ar      1 <0>        -0.0176
      6 C6         -1.5715   -1.7604   -8.8687 C.ar      1 <0>        -0.0509
      7 C7         -2.5971   -2.7459   -8.7030 C.1       1 <0>         0.2516
      8 N1         -3.4107   -3.5277   -8.5716 N.1       1 <0>        -0.4148
      9 C8         -0.0376    1.4225   -7.3759 C.2       1 <0>        -0.1737
     10 C9          1.0082    1.9522   -8.0291 C.2       1 <0>         0.0644
     11 N2          1.3011    1.1974   -9.1324 N.pl3     1 <0>        -0.5878
     12 H1          2.0171    1.3832   -9.7598 H         1 <0>         0.4230
     13 C10        -0.6691    1.9522   -6.1143 C.3       1 <0>        -0.0421
     14 C11        -0.0683    1.2355   -4.9034 C.3       1 <0>        -0.1132
     15 C12        -0.7095    1.7734   -3.6226 C.3       1 <0>        -0.1528
     16 C13        -0.1087    1.0567   -2.4117 C.3       1 <0>        -0.0044
     17 C14        -0.0127    1.0858    0.0080 C.3       1 <0>         0.0031
     18 C15        -0.7300    1.5798    1.2666 C.3       1 <0>         0.0230
     19 N3         -0.7832    3.0484    1.2523 N.pl3     1 <0>        -0.4826
     20 C16        -1.4948    3.5356    0.0624 C.3       1 <0>         0.0189
     21 C17        -0.7771    3.0416   -1.1959 C.3       1 <0>        -0.0039
     22 C18        -1.3696    3.5402    2.4236 C.ar      1 <0>         0.0698
     23 C19        -2.4823    4.3771    2.3463 C.ar      1 <0>        -0.1261
     24 C20        -3.0715    4.8698    3.4890 C.ar      1 <0>        -0.0768
     25 C21        -2.5589    4.5359    4.7374 C.ar      1 <0>         0.0632
     26 C22        -1.4363    3.6918    4.8192 C.ar      1 <0>        -0.1171
     27 C23        -0.8480    3.1911    3.6550 C.ar      1 <0>        -0.0686
     28 C24        -1.1565    3.5406    6.2468 C.2       1 <0>        -0.1139
     29 C25        -2.0959    4.2771    6.8946 C.2       1 <0>        -0.0141
     30 O1         -2.9174    4.8595    5.9964 O.3       1 <0>        -0.1814
     31 C26        -2.2018    4.4184    8.3536 C.2       1 <0>         0.6027
     32 O2         -1.4080    3.8496    9.0791 O.2       1 <0>        -0.5088
     33 N4         -3.1784    5.1782    8.8880 N.am      1 <0>        -0.8362
     34 H2         -0.7910   -2.6497  -10.6661 H         1 <0>         0.1384
     35 H3          0.9625   -0.9859  -10.9702 H         1 <0>         0.1339
     36 H4         -2.1260   -0.6548   -7.1103 H         1 <0>         0.1300
     37 H5          1.5403    2.8426   -7.7283 H         1 <0>         0.1729
     38 H6         -1.7443    1.7758   -6.1444 H         1 <0>         0.0747
     39 H7         -0.4787    3.0225   -6.0344 H         1 <0>         0.0746
     40 H8          1.0069    1.4120   -4.8733 H         1 <0>         0.0747
     41 H9         -0.2587    0.1653   -4.9833 H         1 <0>         0.0754
     42 H10        -1.7847    1.5969   -3.6527 H         1 <0>         0.0872
     43 H11        -0.5191    2.8436   -3.5426 H         1 <0>         0.0900
     44 H12         0.9665    1.2331   -2.3816 H         1 <0>         0.1321
     45 H13        -0.2991   -0.0136   -2.4916 H         1 <0>         0.1300
     46 H14         0.0021   -0.0041    0.0020 H         1 <0>         0.1381
     47 H15         1.0098    1.4634    0.0003 H         1 <0>         0.1410
     48 H16        -1.7436    1.1797    1.2882 H         1 <0>         0.0704
     49 H17        -0.1871    1.2439    2.1500 H         1 <0>         0.1282
     50 H18        -1.5096    4.6255    0.0684 H         1 <0>         0.1303
     51 H19        -2.5172    3.1577    0.0699 H         1 <0>         0.0721
     52 H20         0.2366    3.4417   -1.2171 H         1 <0>         0.1411
     53 H21        -1.3193    3.3776   -2.0798 H         1 <0>         0.1421
     54 H22        -2.8860    4.6416    1.3801 H         1 <0>         0.1422
     55 H23        -3.9329    5.5171    3.4154 H         1 <0>         0.1438
     56 H24         0.0111    2.5395    3.7168 H         1 <0>         0.1379
     57 H25        -0.3635    2.9604    6.6952 H         1 <0>         0.1760
     58 H26        -3.8114    5.6317    8.3096 H         1 <0>         0.4096
     59 H27        -3.2483    5.2714    9.8509 H         1 <0>         0.4159
     60 N5         -0.7506    1.5637   -1.1801 N.4       1 <0>        -0.3985
     61 H28        -1.7146    1.2130   -1.1376 H         1 <0>         0.4256
@<TRIPOS>BOND
     1    1    6 ar
     2    1    2 ar
     3    1   34 1
     4    2    3 ar
     5    2   35 1
     6    3   11 1
     7    3    4 ar
     8    4    5 ar
     9    4    9 1
    10    5    6 ar
    11    5   36 1
    12    6    7 1
    13    7    8 3
    14    9   10 2
    15    9   13 1
    16   10   11 1
    17   10   37 1
    18   11   12 1
    19   13   14 1
    20   13   38 1
    21   13   39 1
    22   14   15 1
    23   14   40 1
    24   14   41 1
    25   15   16 1
    26   15   42 1
    27   15   43 1
    28   16   44 1
    29   16   45 1
    30   16   60 1
    31   17   18 1
    32   17   46 1
    33   17   47 1
    34   17   60 1
    35   18   19 1
    36   18   48 1
    37   18   49 1
    38   19   20 1
    39   19   22 1
    40   20   21 1
    41   20   50 1
    42   20   51 1
    43   21   52 1
    44   21   53 1
    45   21   60 1
    46   22   27 ar
    47   22   23 ar
    48   23   24 ar
    49   23   54 1
    50   24   25 ar
    51   24   55 1
    52   25   30 1
    53   25   26 ar
    54   26   27 ar
    55   26   28 1
    56   27   56 1
    57   28   29 2
    58   28   57 1
    59   29   30 1
    60   29   31 1
    61   31   32 2
    62   31   33 am
    63   33   58 1
    64   33   59 1
    65   60   61 1
@<TRIPOS>MOLECULE
ZINC21981285
   43    46     0     0     0
SMALL
USER_CHARGES
2-methyl-4-(4-methyl-4-oxido-piperazin-4-ium-1-yl)-10H-thieno[2,3-b][1,5]benzodiazepine
@<TRIPOS>ATOM
      1 C1          2.9038    6.4918    5.1713 C.3       1 <0>        -0.0743
      2 C2          2.5841    5.9872    3.7877 C.2       1 <0>        -0.1570
      3 C3          1.6203    6.4061    2.9476 C.2       1 <0>        -0.1226
      4 C4          1.5187    5.7561    1.6557 C.2       1 <0>        -0.2098
      5 C5          2.4401    4.7329    1.4382 C.2       1 <0>         0.1289
      6 S1          3.3908    4.6901    2.8686 S.3       1 <0>         0.0930
      7 N1          2.5080    3.9286    0.3147 N.pl3     1 <0>        -0.6777
      8 C6          1.3315    3.2142   -0.0160 C.ar      1 <0>         0.1031
      9 C7          1.3808    1.8362   -0.0928 C.ar      1 <0>        -0.1116
     10 C8          0.2284    1.1107   -0.3528 C.ar      1 <0>        -0.1294
     11 C9         -0.9707    1.7703   -0.5405 C.ar      1 <0>        -0.1061
     12 C10        -1.0299    3.1476   -0.4724 C.ar      1 <0>        -0.1148
     13 C11         0.1267    3.8974   -0.2224 C.ar      1 <0>         0.1662
     14 N2          0.0187    5.2530   -0.2091 N.2       1 <0>        -0.6188
     15 C12         0.5397    6.1123    0.6013 C.2       1 <0>         0.5357
     16 N3          0.1661    7.4315    0.4793 N.pl3     1 <0>        -0.5959
     17 C13        -0.9003    7.8326   -0.4514 C.3       1 <0>         0.1204
     18 C14        -0.3898    8.9864   -1.3135 C.3       1 <0>         0.0049
     19 N4          0.0980   10.0673   -0.4475 N.4       1 <0>        -0.1193
     20 O1         -0.9664   10.4715    0.4712 O.3       1 <0>        -0.6424
     21 C15         1.2586    9.6048    0.3239 C.3       1 <0>         0.0037
     22 C16         0.8259    8.4809    1.2713 C.3       1 <0>         0.1099
     23 C17         0.4891   11.2153   -1.2764 C.3       1 <0>        -0.0176
     24 H1          2.2086    7.3022    5.4358 H         1 <0>         0.0841
     25 H2          3.9357    6.8721    5.1935 H         1 <0>         0.0783
     26 H3          2.8005    5.6694    5.8945 H         1 <0>         0.0780
     27 H4          0.9445    7.2010    3.2265 H         1 <0>         0.1434
     28 H5          3.4409    3.8717   -0.2654 H         1 <0>         0.4409
     29 H6          2.3200    1.3223    0.0498 H         1 <0>         0.1236
     30 H7          0.2689    0.0331   -0.4128 H         1 <0>         0.1263
     31 H8         -1.8690    1.2041   -0.7380 H         1 <0>         0.1261
     32 H9         -1.9741    3.6513   -0.6176 H         1 <0>         0.1273
     33 H10        -1.1691    6.9789   -1.0909 H         1 <0>         0.1157
     34 H11        -1.7833    8.1552    0.1198 H         1 <0>         0.0911
     35 H12         0.4314    8.6307   -1.9532 H         1 <0>         0.0895
     36 H13        -1.2087    9.3634   -1.9438 H         1 <0>         0.1146
     37 H14         2.0298    9.2283   -0.3642 H         1 <0>         0.0899
     38 H15         1.6668   10.4417    0.9095 H         1 <0>         0.1156
     39 H16         0.1220    8.8717    2.0209 H         1 <0>         0.0971
     40 H17         1.7054    8.0585    1.7793 H         1 <0>         0.1104
     41 H18         0.8550   12.0266   -0.6299 H         1 <0>         0.0993
     42 H19        -0.3814   11.5673   -1.8494 H         1 <0>         0.1000
     43 H20         1.2866   10.9116   -1.9705 H         1 <0>         0.0805
@<TRIPOS>BOND
     1    1    2 1
     2    1   24 1
     3    1   25 1
     4    1   26 1
     5    2    6 1
     6    2    3 2
     7    3    4 1
     8    3   27 1
     9    4   15 1
    10    4    5 2
    11    5    6 1
    12    5    7 1
    13    7    8 1
    14    7   28 1
    15    8   13 ar
    16    8    9 ar
    17    9   10 ar
    18    9   29 1
    19   10   11 ar
    20   10   30 1
    21   11   12 ar
    22   11   31 1
    23   12   13 ar
    24   12   32 1
    25   13   14 1
    26   14   15 2
    27   15   16 1
    28   16   22 1
    29   16   17 1
    30   17   18 1
    31   17   33 1
    32   17   34 1
    33   18   19 1
    34   18   35 1
    35   18   36 1
    36   19   20 1
    37   19   21 1
    38   19   23 1
    39   21   22 1
    40   21   37 1
    41   21   38 1
    42   22   39 1
    43   22   40 1
    44   23   41 1
    45   23   42 1
    46   23   43 1
@<TRIPOS>MOLECULE
ZINC38428237
   45    46     0     0     0
SMALL
USER_CHARGES

@<TRIPOS>ATOM
      1 C1         -0.0173    1.4248    0.0099 C.3       1 <0>         0.0273
      2 O1          0.0021   -0.0041    0.0020 O.3       1 <0>        -0.3174
      3 C2          0.6258   -0.6184    1.0415 C.ar      1 <0>         0.1315
      4 C3          1.2023    0.1385    2.0514 C.ar      1 <0>        -0.2088
      5 C4          1.8353   -0.4882    3.1070 C.ar      1 <0>        -0.0798
      6 C5          1.8947   -1.8689    3.1579 C.ar      1 <0>        -0.1571
      7 C6          1.3214   -2.6252    2.1527 C.ar      1 <0>        -0.0636
      8 C7          0.6822   -2.0032    1.0975 C.ar      1 <0>        -0.1144
      9 C8          0.0521   -2.8284    0.0053 C.3       1 <0>         0.1091
     10 N1          0.9527   -2.8756   -1.1542 N.3       1 <0>        -0.6832
     11 C9          0.3700   -3.6735   -2.2413 C.3       1 <0>         0.0676
     12 C10         1.3346   -3.6994   -3.4286 C.3       1 <0>        -0.0719
     13 C11         0.7368   -4.5179   -4.5438 C.ar      1 <0>        -0.0523
     14 C12         1.0599   -5.8555   -4.6687 C.ar      1 <0>        -0.1623
     15 C13         0.5101   -6.6088   -5.6947 C.ar      1 <0>         0.1283
     16 C14        -0.3649   -6.0193   -6.5962 C.ar      1 <0>        -0.1035
     17 C15        -0.6878   -4.6818   -6.4712 C.ar      1 <0>        -0.1349
     18 C16        -0.1419   -3.9299   -5.4412 C.ar      1 <0>         0.0984
     19 O2         -0.4643   -2.6150   -5.3145 O.3       1 <0>        -0.3084
     20 C17        -1.3754   -2.0751   -6.2739 C.3       1 <0>         0.0241
     21 I1         -1.1953   -7.1571   -8.1469 I         1 <0>        -0.0220
     22 O3          0.8285   -7.9252   -5.8177 O.3       1 <0>        -0.3049
     23 C18         1.7356   -8.4660   -4.8551 C.3       1 <0>         0.0250
     24 H1          1.0053    1.8021    0.0021 H         1 <0>         0.0564
     25 H2         -0.5445    1.7859   -0.8732 H         1 <0>         0.1001
     26 H3         -0.5275    1.7763    0.9067 H         1 <0>         0.0553
     27 H4          1.1565    1.2168    2.0119 H         1 <0>         0.1274
     28 H5          2.2845    0.1005    3.8932 H         1 <0>         0.1244
     29 H6          2.3900   -2.3570    3.9842 H         1 <0>         0.1246
     30 H7          1.3695   -3.7034    2.1946 H         1 <0>         0.1296
     31 H8         -0.1239   -3.8404    0.3701 H         1 <0>         0.0787
     32 H9         -0.8960   -2.3784   -0.2891 H         1 <0>         0.0426
     33 H10         1.1828   -1.9458   -1.4714 H         1 <0>         0.3450
     34 H11         0.1962   -4.6913   -1.8921 H         1 <0>         0.0713
     35 H12        -0.5759   -3.2293   -2.5513 H         1 <0>         0.0354
     36 H13         1.5084   -2.6816   -3.7778 H         1 <0>         0.0803
     37 H14         2.2805   -4.1436   -3.1186 H         1 <0>         0.0828
     38 H15         1.7411   -6.3142   -3.9673 H         1 <0>         0.1441
     39 H16        -1.3687   -4.2228   -7.1726 H         1 <0>         0.1406
     40 H17        -0.9536   -2.1782   -7.2737 H         1 <0>         0.0563
     41 H18        -2.3209   -2.6149   -6.2210 H         1 <0>         0.0559
     42 H19        -1.5468   -1.0204   -6.0588 H         1 <0>         0.1026
     43 H20         1.9039   -9.5218   -5.0674 H         1 <0>         0.1040
     44 H21         2.6830   -7.9294   -4.9070 H         1 <0>         0.0579
     45 H22         1.3118   -8.3593   -3.8565 H         1 <0>         0.0577
@<TRIPOS>BOND
     1    1    2 1
     2    1   24 1
     3    1   25 1
     4    1   26 1
     5    2    3 1
     6    3    8 ar
     7    3    4 ar
     8    4    5 ar
     9    4   27 1
    10    5    6 ar
    11    5   28 1
    12    6    7 ar
    13    6   29 1
    14    7    8 ar
    15    7   30 1
    16    8    9 1
    17    9   10 1
    18    9   31 1
    19    9   32 1
    20   10   11 1
    21   10   33 1
    22   11   12 1
    23   11   34 1
    24   11   35 1
    25   12   13 1
    26   12   36 1
    27   12   37 1
    28   13   18 ar
    29   13   14 ar
    30   14   15 ar
    31   14   38 1
    32   15   16 ar
    33   15   22 1
    34   16   17 ar
    35   16   21 1
    36   17   18 ar
    37   17   39 1
    38   18   19 1
    39   19   20 1
    40   20   40 1
    41   20   41 1
    42   20   42 1
    43   22   23 1
    44   23   43 1
    45   23   44 1
    46   23   45 1
@<TRIPOS>MOLECULE
ZINC38428237
   46    47     0     0     0
SMALL
USER_CHARGES

@<TRIPOS>ATOM
      1 C1         -0.0173    1.4248    0.0099 C.3       1 <0>         0.0229
      2 O1          0.0021   -0.0041    0.0020 O.3       1 <0>        -0.3275
      3 C2          0.6258   -0.6184    1.0415 C.ar      1 <0>         0.1508
      4 C3          1.2023    0.1385    2.0514 C.ar      1 <0>        -0.2039
      5 C4          1.8353   -0.4882    3.1070 C.ar      1 <0>        -0.0428
      6 C5          1.8947   -1.8689    3.1579 C.ar      1 <0>        -0.1507
      7 C6          1.3214   -2.6252    2.1527 C.ar      1 <0>        -0.0523
      8 C7          0.6822   -2.0032    1.0975 C.ar      1 <0>        -0.2001
      9 C8          0.0521   -2.8284    0.0053 C.3       1 <0>         0.0577
     10 N1          0.9527   -2.8756   -1.1542 N.4       1 <0>        -0.5072
     11 C9          0.3385   -3.6801   -2.2189 C.3       1 <0>        -0.0050
     12 C10         1.2765   -3.7292   -3.4267 C.3       1 <0>        -0.0937
     13 C11         0.6464   -4.5544   -4.5189 C.ar      1 <0>        -0.0800
     14 C12         0.9536   -5.8965   -4.6351 C.ar      1 <0>        -0.1598
     15 C13         0.3740   -6.6560   -5.6400 C.ar      1 <0>         0.1331
     16 C14        -0.5147   -6.0681   -6.5290 C.ar      1 <0>        -0.0916
     17 C15        -0.8218   -4.7262   -6.4126 C.ar      1 <0>        -0.1294
     18 C16        -0.2460   -3.9680   -5.4036 C.ar      1 <0>         0.1045
     19 O2         -0.5528   -2.6485   -5.2853 O.3       1 <0>        -0.3175
     20 C17        -1.4794   -2.1106   -6.2308 C.3       1 <0>         0.0213
     21 I1         -1.3901   -7.2153   -8.0478 I         1 <0>        -0.0008
     22 O3          0.6768   -7.9768   -5.7546 O.3       1 <0>        -0.2994
     23 C18         1.5995   -8.5156   -4.8057 C.3       1 <0>         0.0241
     24 H1          1.0053    1.8021    0.0021 H         1 <0>         0.0648
     25 H2         -0.5445    1.7859   -0.8732 H         1 <0>         0.1112
     26 H3         -0.5275    1.7763    0.9067 H         1 <0>         0.0661
     27 H4          1.1565    1.2168    2.0119 H         1 <0>         0.1408
     28 H5          2.2845    0.1005    3.8932 H         1 <0>         0.1388
     29 H6          2.3900   -2.3570    3.9842 H         1 <0>         0.1385
     30 H7          1.3695   -3.7034    2.1946 H         1 <0>         0.1399
     31 H8         -0.1239   -3.8404    0.3701 H         1 <0>         0.1370
     32 H9         -0.8960   -2.3784   -0.2891 H         1 <0>         0.1383
     33 H10         1.1156   -1.9389   -1.4919 H         1 <0>         0.4293
     34 H11         0.1625   -4.6920   -1.8541 H         1 <0>         0.1323
     35 H12        -0.6096   -3.2300   -2.5134 H         1 <0>         0.1357
     36 H13         1.4525   -2.7172   -3.7914 H         1 <0>         0.1033
     37 H14         2.2246   -4.1793   -3.1322 H         1 <0>         0.0965
     38 H15         1.6456   -6.3539   -3.9435 H         1 <0>         0.1457
     39 H16        -1.5134   -4.2684   -7.1043 H         1 <0>         0.1470
     40 H17        -1.6357   -1.0518   -6.0243 H         1 <0>         0.1078
     41 H18        -1.0807   -2.2294   -7.2383 H         1 <0>         0.0622
     42 H19        -2.4287   -2.6403   -6.1509 H         1 <0>         0.0611
     43 H20         2.5507   -7.9892   -4.8846 H         1 <0>         0.0590
     44 H21         1.1989   -8.3932   -3.7995 H         1 <0>         0.0570
     45 H22         1.7528   -9.5754   -5.0094 H         1 <0>         0.1097
     46 H23         1.8303   -3.2922   -0.8817 H         1 <0>         0.4249
@<TRIPOS>BOND
     1    1    2 1
     2    1   24 1
     3    1   25 1
     4    1   26 1
     5    2    3 1
     6    3    8 ar
     7    3    4 ar
     8    4    5 ar
     9    4   27 1
    10    5    6 ar
    11    5   28 1
    12    6    7 ar
    13    6   29 1
    14    7    8 ar
    15    7   30 1
    16    8    9 1
    17    9   10 1
    18    9   31 1
    19    9   32 1
    20   10   11 1
    21   10   33 1
    22   10   46 1
    23   11   12 1
    24   11   34 1
    25   11   35 1
    26   12   13 1
    27   12   36 1
    28   12   37 1
    29   13   18 ar
    30   13   14 ar
    31   14   15 ar
    32   14   38 1
    33   15   16 ar
    34   15   22 1
    35   16   17 ar
    36   16   21 1
    37   17   18 ar
    38   17   39 1
    39   18   19 1
    40   19   20 1
    41   20   40 1
    42   20   41 1
    43   20   42 1
    44   22   23 1
    45   23   43 1
    46   23   44 1
    47   23   45 1
@<TRIPOS>MOLECULE
ZINC34866289
   53    54     0     0     0
SMALL
USER_CHARGES

@<TRIPOS>ATOM
      1 C1         -0.0187    1.5258    0.0104 C.3       1 <0>        -0.1544
      2 C2          0.0021   -0.0041    0.0020 C.3       1 <0>        -0.0602
      3 C3          0.7421   -0.5109    1.2415 C.3       1 <0>        -0.1554
      4 C4         -1.4333   -0.5336    0.0129 C.3       1 <0>        -0.1487
      5 C5          0.7182   -0.4975   -1.2568 C.3       1 <0>        -0.1395
      6 C6          2.1536    0.0321   -1.2676 C.3       1 <0>        -0.0175
      7 N1          2.8412   -0.4417   -2.4763 N.4       1 <0>        -0.3843
      8 C7          2.1965    0.1353   -3.6620 C.3       1 <0>        -0.0127
      9 C8          2.8571   -0.4182   -4.9265 C.3       1 <0>        -0.1412
     10 C9          4.3437   -0.0506   -4.9220 C.3       1 <0>        -0.1394
     11 H1          4.4511    1.0337   -4.9522 H         1 <0>         0.1175
     12 C10         4.9899   -0.5938   -3.6443 C.3       1 <0>         0.0742
     13 H2          6.0356   -0.2883   -3.6071 H         1 <0>         0.1276
     14 C11         4.2503   -0.0338   -2.4274 C.3       1 <0>        -0.0326
     15 F1          4.9107   -1.9905   -3.6381 F         1 <0>        -0.1879
     16 C12         5.0268   -0.6667   -6.1446 C.3       1 <0>         0.1220
     17 N2          6.4198   -0.2169   -6.2040 N.am      1 <0>        -0.7343
     18 C13         7.2209   -0.6353   -7.2039 C.2       1 <0>         0.5691
     19 O1          6.7876   -1.3857   -8.0563 O.2       1 <0>        -0.5113
     20 C14         8.6267   -0.1814   -7.2639 C.ar      1 <0>        -0.1162
     21 C15         9.1286    0.6756   -6.2834 C.ar      1 <0>        -0.0781
     22 C16        10.4425    1.0962   -6.3448 C.ar      1 <0>        -0.0314
     23 C17        11.2614    0.6693   -7.3763 C.ar      1 <0>        -0.0721
     24 C18        10.7690   -0.1805   -8.3521 C.ar      1 <0>        -0.0288
     25 C19         9.4587   -0.6128   -8.2980 C.ar      1 <0>        -0.0444
     26 Cl1        11.8031   -0.7095   -9.6423 Cl        1 <0>        -0.0331
     27 Cl2        11.0685    2.1627   -5.1265 Cl        1 <0>        -0.0416
     28 H3          1.0039    1.9031    0.0027 H         1 <0>         0.0539
     29 H4         -0.5459    1.8868   -0.8726 H         1 <0>         0.0619
     30 H5         -0.5289    1.8773    0.9072 H         1 <0>         0.0697
     31 H6          0.2319   -0.1594    2.1383 H         1 <0>         0.0697
     32 H7          0.7568   -1.6008    1.2356 H         1 <0>         0.0626
     33 H8          1.7647   -0.1336    1.2338 H         1 <0>         0.0542
     34 H9         -1.9605   -0.1726   -0.8702 H         1 <0>         0.0606
     35 H10        -1.4185   -1.6235    0.0069 H         1 <0>         0.0611
     36 H11        -1.9435   -0.1821    0.9097 H         1 <0>         0.0680
     37 H12         0.7330   -1.5874   -1.2628 H         1 <0>         0.0891
     38 H13         0.1910   -0.1364   -2.1398 H         1 <0>         0.0891
     39 H14         2.1388    1.1220   -1.2617 H         1 <0>         0.1345
     40 H15         2.6808   -0.3290   -0.3846 H         1 <0>         0.1350
     41 H16         1.1379   -0.1245   -3.6621 H         1 <0>         0.1402
     42 H17         2.3035    1.2198   -3.6417 H         1 <0>         0.1337
     43 H18         2.7504   -1.5028   -4.9479 H         1 <0>         0.1001
     44 H19         2.3782    0.0127   -5.8057 H         1 <0>         0.1255
     45 H20         4.3136    1.0544   -2.4334 H         1 <0>         0.1492
     46 H21         4.7080   -0.4184   -1.5159 H         1 <0>         0.1449
     47 H22         4.9988   -1.7535   -6.0672 H         1 <0>         0.0867
     48 H23         4.5049   -0.3533   -7.0488 H         1 <0>         0.0896
     49 H24         6.7655    0.3819   -5.5238 H         1 <0>         0.3985
     50 H25         8.4907    1.0096   -5.4785 H         1 <0>         0.1381
     51 H26        12.2883    1.0009   -7.4201 H         1 <0>         0.1549
     52 H27         9.0771   -1.2796   -9.0570 H         1 <0>         0.1570
     53 H28         2.7848   -1.4481   -2.5214 H         1 <0>         0.4271
@<TRIPOS>BOND
     1    1    2 1
     2    1   28 1
     3    1   29 1
     4    1   30 1
     5    2    3 1
     6    2    4 1
     7    2    5 1
     8    3   31 1
     9    3   32 1
    10    3   33 1
    11    4   34 1
    12    4   35 1
    13    4   36 1
    14    5    6 1
    15    5   37 1
    16    5   38 1
    17    6    7 1
    18    6   39 1
    19    6   40 1
    20    7   14 1
    21    7    8 1
    22    7   53 1
    23    8    9 1
    24    8   41 1
    25    8   42 1
    26    9   10 1
    27    9   43 1
    28    9   44 1
    29   10   11 1
    30   10   12 1
    31   10   16 1
    32   12   13 1
    33   12   14 1
    34   12   15 1
    35   14   45 1
    36   14   46 1
    37   16   17 1
    38   16   47 1
    39   16   48 1
    40   17   18 am
    41   17   49 1
    42   18   19 2
    43   18   20 1
    44   20   25 ar
    45   20   21 ar
    46   21   22 ar
    47   21   50 1
    48   22   23 ar
    49   22   27 1
    50   23   24 ar
    51   23   51 1
    52   24   25 ar
    53   24   26 1
    54   25   52 1
@<TRIPOS>MOLECULE
ZINC00014669
   52    54     0     0     0
SMALL
USER_CHARGES

@<TRIPOS>ATOM
      1 C1         -0.0187    1.5258    0.0104 C.3       1 <0>        -0.1955
      2 C2          0.0021   -0.0041    0.0020 C.3       1 <0>        -0.0083
      3 H1         -1.0205   -0.3814    0.0098 H         1 <0>         0.1468
      4 C3          0.7182   -0.4975   -1.2568 C.3       1 <0>         0.1400
      5 H2          0.8116   -1.5829   -1.2198 H         1 <0>         0.1310
      6 C4         -0.0771   -0.1029   -2.4745 C.ar      1 <0>        -0.1512
      7 C5          0.0941    1.1497   -3.0345 C.ar      1 <0>        -0.0890
      8 C6         -0.6341    1.5140   -4.1505 C.ar      1 <0>        -0.1398
      9 C7         -1.5374    0.6217   -4.7096 C.ar      1 <0>         0.1316
     10 C8         -1.7070   -0.6346   -4.1460 C.ar      1 <0>        -0.1402
     11 C9         -0.9726   -0.9960   -3.0331 C.ar      1 <0>        -0.0838
     12 O1         -2.2553    0.9780   -5.8071 O.3       1 <0>        -0.4970
     13 O2          2.0188    0.0904   -1.3262 O.3       1 <0>        -0.5453
     14 N1          0.7126   -0.4907    1.1921 N.4       1 <0>        -0.3761
     15 C10         0.7394   -1.9582    1.1781 C.3       1 <0>        -0.0130
     16 C11         1.5480   -2.4687    2.3727 C.3       1 <0>        -0.1408
     17 C12         0.8958   -1.9809    3.6696 C.3       1 <0>        -0.0939
     18 C13         0.8055   -0.4524    3.6405 C.3       1 <0>        -0.1446
     19 C14         0.0245   -0.0166    2.3989 C.3       1 <0>        -0.0111
     20 C15         1.7430   -2.4207    4.8653 C.3       1 <0>        -0.0745
     21 C16         1.0387   -2.0476    6.1443 C.ar      1 <0>        -0.0945
     22 C17         1.2668   -0.8138    6.7244 C.ar      1 <0>        -0.1215
     23 C18         0.6208   -0.4716    7.8976 C.ar      1 <0>        -0.1162
     24 C19        -0.2537   -1.3631    8.4905 C.ar      1 <0>        -0.1164
     25 C20        -0.4825   -2.5965    7.9099 C.ar      1 <0>        -0.1138
     26 C21         0.1602   -2.9370    6.7344 C.ar      1 <0>        -0.1161
     27 H3          1.0039    1.9031    0.0027 H         1 <0>         0.0830
     28 H4         -0.5459    1.8868   -0.8726 H         1 <0>         0.1122
     29 H5         -0.5289    1.8773    0.9072 H         1 <0>         0.0916
     30 H6          0.7975    1.8439   -2.5989 H         1 <0>         0.1273
     31 H7         -0.5005    2.4927   -4.5871 H         1 <0>         0.1383
     32 H8         -2.4096   -1.3309   -4.5794 H         1 <0>         0.1385
     33 H9         -1.1011   -1.9755   -2.5967 H         1 <0>         0.1312
     34 H10        -1.8251    0.7616   -6.6457 H         1 <0>         0.4023
     35 H11         2.0123    1.0567   -1.3619 H         1 <0>         0.3863
     36 H12        -0.2795   -2.3404    1.2397 H         1 <0>         0.1288
     37 H13         1.2010   -2.3039    0.2532 H         1 <0>         0.1321
     38 H14         1.5652   -3.5585    2.3616 H         1 <0>         0.1138
     39 H15         2.5673   -2.0873    2.3121 H         1 <0>         0.0906
     40 H16        -0.1053   -2.4035    3.7555 H         1 <0>         0.0907
     41 H17         0.2921   -0.1010    4.5354 H         1 <0>         0.1157
     42 H18         1.8094   -0.0291    3.6061 H         1 <0>         0.0886
     43 H19        -0.0418    1.0711    2.3751 H         1 <0>         0.1320
     44 H20        -0.9792   -0.4402    2.4344 H         1 <0>         0.1280
     45 H21         1.8865   -3.5007    4.8312 H         1 <0>         0.0833
     46 H22         2.7124   -1.9239    4.8261 H         1 <0>         0.0787
     47 H23         1.9500   -0.1173    6.2612 H         1 <0>         0.1195
     48 H24         0.7995    0.4921    8.3512 H         1 <0>         0.1244
     49 H25        -0.7579   -1.0960    9.4075 H         1 <0>         0.1252
     50 H26        -1.1655   -3.2931    8.3733 H         1 <0>         0.1252
     51 H27        -0.0214   -3.8992    6.2788 H         1 <0>         0.1215
     52 H28         1.6582   -0.1389    1.1853 H         1 <0>         0.4240
@<TRIPOS>BOND
     1    1    2 1
     2    1   27 1
     3    1   28 1
     4    1   29 1
     5    2    3 1
     6    2    4 1
     7    2   14 1
     8    4    5 1
     9    4    6 1
    10    4   13 1
    11    6   11 ar
    12    6    7 ar
    13    7    8 ar
    14    7   30 1
    15    8    9 ar
    16    8   31 1
    17    9   10 ar
    18    9   12 1
    19   10   11 ar
    20   10   32 1
    21   11   33 1
    22   12   34 1
    23   13   35 1
    24   14   19 1
    25   14   15 1
    26   14   52 1
    27   15   16 1
    28   15   36 1
    29   15   37 1
    30   16   17 1
    31   16   38 1
    32   16   39 1
    33   17   18 1
    34   17   20 1
    35   17   40 1
    36   18   19 1
    37   18   41 1
    38   18   42 1
    39   19   43 1
    40   19   44 1
    41   20   21 1
    42   20   45 1
    43   20   46 1
    44   21   26 ar
    45   21   22 ar
    46   22   23 ar
    47   22   47 1
    48   23   24 ar
    49   23   48 1
    50   24   25 ar
    51   24   49 1
    52   25   26 ar
    53   25   50 1
    54   26   51 1
@<TRIPOS>MOLECULE
ZINC00113404
   39    40     0     0     0
SMALL
USER_CHARGES

@<TRIPOS>ATOM
      1 C1         -0.0539    1.4704    0.2993 C.3       1 <0>        -0.0478
      2 N1         -0.0295    0.0017    0.2882 N.4       1 <0>        -0.3865
      3 C2          0.5604   -0.4878    1.5413 C.3       1 <0>        -0.0539
      4 C3         -1.4006   -0.5099    0.1598 C.3       1 <0>        -0.0122
      5 C4         -1.3658   -2.0333    0.0229 C.3       1 <0>        -0.1440
      6 C5         -2.7938   -2.5661   -0.1108 C.3       1 <0>         0.0157
      7 H1         -3.3915   -2.2191    0.7321 H         1 <0>         0.1104
      8 C6         -3.3990   -2.0640   -1.3963 C.ar      1 <0>        -0.0932
      9 C7         -2.7600   -2.2998   -2.5992 C.ar      1 <0>        -0.1051
     10 C8         -3.3146   -1.8395   -3.7786 C.ar      1 <0>        -0.1071
     11 C9         -4.5095   -1.1427   -3.7551 C.ar      1 <0>        -0.0289
     12 C10        -5.1487   -0.9070   -2.5509 C.ar      1 <0>        -0.1048
     13 C11        -4.5960   -1.3727   -1.3727 C.ar      1 <0>        -0.0921
     14 Cl1        -5.2065   -0.5637   -5.2359 Cl        1 <0>        -0.0542
     15 C12        -2.7688   -4.0729   -0.1222 C.ar      1 <0>         0.1268
     16 C13        -1.7220   -4.7341   -0.7368 C.ar      1 <0>        -0.1747
     17 C14        -1.7085   -6.1203   -0.7417 C.ar      1 <0>        -0.0683
     18 C15        -2.7531   -6.7927   -0.1256 C.ar      1 <0>        -0.1649
     19 C16        -3.7656   -6.0639    0.4686 C.ar      1 <0>         0.1108
     20 N2         -3.7430   -4.7452    0.4587 N.ar      1 <0>        -0.4759
     21 H2          0.9634    1.8500    0.3946 H         1 <0>         0.1253
     22 H3         -0.4917    1.8336   -0.6305 H         1 <0>         0.1237
     23 H4         -0.6516    1.8175    1.1422 H         1 <0>         0.1229
     24 H5          1.5778   -0.1083    1.6365 H         1 <0>         0.1253
     25 H6         -0.0372   -0.1408    2.3842 H         1 <0>         0.1237
     26 H7          0.5785   -1.5776    1.5330 H         1 <0>         0.1240
     27 H8         -1.9744   -0.2377    1.0458 H         1 <0>         0.1344
     28 H9         -1.8690   -0.0763   -0.7237 H         1 <0>         0.1343
     29 H10        -0.7921   -2.3055   -0.8630 H         1 <0>         0.0938
     30 H11        -0.8974   -2.4670    0.9064 H         1 <0>         0.0978
     31 H12        -1.8270   -2.8434   -2.6175 H         1 <0>         0.1295
     32 H13        -2.8150   -2.0234   -4.7183 H         1 <0>         0.1376
     33 H14        -6.0814   -0.3628   -2.5319 H         1 <0>         0.1397
     34 H15        -5.0972   -1.1929   -0.4331 H         1 <0>         0.1368
     35 H16        -0.9248   -4.1778   -1.2074 H         1 <0>         0.1305
     36 H17        -0.9037   -6.6636   -1.2144 H         1 <0>         0.1392
     37 H18        -2.7752   -7.8723   -0.1106 H         1 <0>         0.1419
     38 H19        -4.5828   -6.5800    0.9505 H         1 <0>         0.1628
     39 H20         0.5237   -0.3196   -0.4921 H         1 <0>         0.4265
@<TRIPOS>BOND
     1    1    2 1
     2    1   21 1
     3    1   22 1
     4    1   23 1
     5    2    3 1
     6    2    4 1
     7    2   39 1
     8    3   24 1
     9    3   25 1
    10    3   26 1
    11    4    5 1
    12    4   27 1
    13    4   28 1
    14    5    6 1
    15    5   29 1
    16    5   30 1
    17    6    7 1
    18    6    8 1
    19    6   15 1
    20    8   13 ar
    21    8    9 ar
    22    9   10 ar
    23    9   31 1
    24   10   11 ar
    25   10   32 1
    26   11   12 ar
    27   11   14 1
    28   12   13 ar
    29   12   33 1
    30   13   34 1
    31   15   20 ar
    32   15   16 ar
    33   16   17 ar
    34   16   35 1
    35   17   18 ar
    36   17   36 1
    37   18   19 ar
    38   18   37 1
    39   19   20 ar
    40   19   38 1
@<TRIPOS>MOLECULE
ZINC00113410
   39    40     0     0     0
SMALL
USER_CHARGES

@<TRIPOS>ATOM
      1 C1          0.1393    1.3034   -0.7375 C.3       1 <0>        -0.0477
      2 N1          0.0864   -0.1636   -0.6820 N.4       1 <0>        -0.3864
      3 C2          1.0003   -0.6474    0.3614 C.3       1 <0>        -0.0540
      4 C3         -1.2835   -0.5928   -0.3705 C.3       1 <0>        -0.0137
      5 C4         -1.3670   -2.1192   -0.4352 C.3       1 <0>        -0.1449
      6 C5         -2.7938   -2.5661   -0.1108 C.3       1 <0>         0.0155
      7 H1         -3.0930   -2.1550    0.8534 H         1 <0>         0.1105
      8 C6         -2.8481   -4.0711   -0.0538 C.ar      1 <0>        -0.0868
      9 C7         -2.3965   -4.8198   -1.1246 C.ar      1 <0>        -0.1020
     10 C8         -2.4460   -6.2000   -1.0730 C.ar      1 <0>        -0.1077
     11 C9         -2.9476   -6.8324    0.0507 C.ar      1 <0>        -0.0275
     12 C10        -3.3994   -6.0826    1.1221 C.ar      1 <0>        -0.1051
     13 C11        -3.3441   -4.7025    1.0715 C.ar      1 <0>        -0.0885
     14 Cl1        -3.0106   -8.5660    0.1161 Cl        1 <0>        -0.0553
     15 C12        -3.7313   -2.0698   -1.1812 C.ar      1 <0>         0.1221
     16 C13        -3.3064   -2.0281   -2.4959 C.ar      1 <0>        -0.1833
     17 C14        -4.1766   -1.5699   -3.4728 C.ar      1 <0>        -0.0678
     18 C15        -5.4475   -1.1690   -3.0893 C.ar      1 <0>        -0.1657
     19 C16        -5.8018   -1.2390   -1.7555 C.ar      1 <0>         0.1123
     20 N2         -4.9493   -1.6855   -0.8536 N.ar      1 <0>        -0.4739
     21 H2          1.1558    1.6218   -0.9687 H         1 <0>         0.1259
     22 H3         -0.5388    1.6623   -1.5117 H         1 <0>         0.1225
     23 H4         -0.1599    1.7145    0.2266 H         1 <0>         0.1229
     24 H5          2.0168   -0.3290    0.1303 H         1 <0>         0.1255
     25 H6          0.7011   -0.2363    1.3256 H         1 <0>         0.1239
     26 H7          0.9611   -1.7359    0.4026 H         1 <0>         0.1253
     27 H8         -1.5507   -0.2565    0.6313 H         1 <0>         0.1349
     28 H9         -1.9734   -0.1601   -1.0950 H         1 <0>         0.1295
     29 H10        -1.0998   -2.4555   -1.4370 H         1 <0>         0.0942
     30 H11        -0.6771   -2.5518    0.2893 H         1 <0>         0.1027
     31 H12        -2.0053   -4.3260   -2.0019 H         1 <0>         0.1273
     32 H13        -2.0935   -6.7848   -1.9097 H         1 <0>         0.1373
     33 H14        -3.7913   -6.5757    1.9994 H         1 <0>         0.1398
     34 H15        -3.6924   -4.1171    1.9097 H         1 <0>         0.1363
     35 H16        -2.3089   -2.3481   -2.7585 H         1 <0>         0.1313
     36 H17        -3.8719   -1.5259   -4.5080 H         1 <0>         0.1392
     37 H18        -6.1513   -0.8062   -3.8237 H         1 <0>         0.1420
     38 H19        -6.7897   -0.9286   -1.4487 H         1 <0>         0.1633
     39 H20         0.3633   -0.5442   -1.5745 H         1 <0>         0.4262
@<TRIPOS>BOND
     1    1    2 1
     2    1   21 1
     3    1   22 1
     4    1   23 1
     5    2    3 1
     6    2    4 1
     7    2   39 1
     8    3   24 1
     9    3   25 1
    10    3   26 1
    11    4    5 1
    12    4   27 1
    13    4   28 1
    14    5    6 1
    15    5   29 1
    16    5   30 1
    17    6    7 1
    18    6    8 1
    19    6   15 1
    20    8   13 ar
    21    8    9 ar
    22    9   10 ar
    23    9   31 1
    24   10   11 ar
    25   10   32 1
    26   11   12 ar
    27   11   14 1
    28   12   13 ar
    29   12   33 1
    30   13   34 1
    31   15   20 ar
    32   15   16 ar
    33   16   17 ar
    34   16   35 1
    35   17   18 ar
    36   17   36 1
    37   18   19 ar
    38   18   37 1
    39   19   20 ar
    40   19   38 1
@<TRIPOS>MOLECULE
ZINC00002002
   46    47     0     0     0
SMALL
USER_CHARGES

@<TRIPOS>ATOM
      1 C1         -0.0178    1.4648    0.0101 C.3       1 <0>        -0.0587
      2 N1          0.0021   -0.0041    0.0020 N.4       1 <0>        -0.3835
      3 C2          0.7126   -0.4907    1.1921 C.3       1 <0>        -0.0490
      4 C3         -1.3761   -0.5125    0.0124 C.3       1 <0>        -0.0390
      5 C4         -2.0780   -0.1101   -1.2861 C.3       1 <0>         0.0881
      6 N2         -3.4524   -0.6172   -1.2757 N.pl3     1 <0>        -0.5880
      7 C5         -4.5324    0.2051   -0.7248 C.3       1 <0>         0.1454
      8 C6         -5.1228    1.0574   -1.8185 C.ar      1 <0>        -0.1912
      9 C7         -4.6016    2.3125   -2.0728 C.ar      1 <0>        -0.0544
     10 C8         -5.1414    3.0959   -3.0745 C.ar      1 <0>        -0.1449
     11 C9         -6.2070    2.6220   -3.8259 C.ar      1 <0>         0.1632
     12 C10        -6.7279    1.3621   -3.5690 C.ar      1 <0>        -0.2017
     13 C11        -6.1812    0.5805   -2.5696 C.ar      1 <0>        -0.0681
     14 O1         -6.7400    3.3909   -4.8116 O.3       1 <0>        -0.3058
     15 C12        -7.8354    2.8386   -5.5445 C.3       1 <0>         0.0209
     16 C13        -3.7317   -1.8786   -1.7886 C.ar      1 <0>         0.4377
     17 C14        -2.7004   -2.6567   -2.3052 C.ar      1 <0>        -0.2074
     18 C15        -2.9925   -3.9098   -2.8122 C.ar      1 <0>         0.0471
     19 C16        -4.3113   -4.3446   -2.7857 C.ar      1 <0>        -0.1588
     20 C17        -5.2845   -3.5202   -2.2583 C.ar      1 <0>         0.1568
     21 N3         -4.9759   -2.3311   -1.7763 N.ar      1 <0>        -0.4985
     22 H1          1.0047    1.8421    0.0024 H         1 <0>         0.1352
     23 H2         -0.5450    1.8259   -0.8730 H         1 <0>         0.1236
     24 H3         -0.5280    1.8163    0.9069 H         1 <0>         0.1281
     25 H4          0.2024   -0.1392    2.0889 H         1 <0>         0.1260
     26 H5          0.7273   -1.5806    1.1861 H         1 <0>         0.1262
     27 H6          1.7352   -0.1134    1.1844 H         1 <0>         0.1337
     28 H7         -1.3618   -1.5992    0.0961 H         1 <0>         0.1366
     29 H8         -1.9129   -0.0898    0.8617 H         1 <0>         0.1413
     30 H9         -2.0923    0.9766   -1.3697 H         1 <0>         0.1251
     31 H10        -1.5412   -0.5328   -2.1354 H         1 <0>         0.1159
     32 H11        -5.3060   -0.4413   -0.3102 H         1 <0>         0.0925
     33 H12        -4.1354    0.8470    0.0617 H         1 <0>         0.1207
     34 H13        -3.7721    2.6810   -1.4875 H         1 <0>         0.1301
     35 H14        -4.7344    4.0765   -3.2723 H         1 <0>         0.1438
     36 H15        -7.5574    0.9910   -4.1526 H         1 <0>         0.1399
     37 H16        -6.5834   -0.4021   -2.3722 H         1 <0>         0.1082
     38 H17        -8.6582    2.6252   -4.8622 H         1 <0>         0.0635
     39 H18        -8.1649    3.5531   -6.2988 H         1 <0>         0.1144
     40 H19        -7.5186    1.9163   -6.0314 H         1 <0>         0.0607
     41 H20        -1.6857   -2.2870   -2.3104 H         1 <0>         0.1724
     42 H21        -2.2128   -4.5359   -3.2200 H         1 <0>         0.1797
     43 H22        -4.5726   -5.3179   -3.1742 H         1 <0>         0.1883
     44 H23        -6.3113   -3.8543   -2.2360 H         1 <0>         0.2135
     45 H24        -5.6786   -1.7731   -1.4076 H         1 <0>         0.4404
     46 H25         0.4743   -0.3295   -0.8281 H         1 <0>         0.4299
@<TRIPOS>BOND
     1    1    2 1
     2    1   22 1
     3    1   23 1
     4    1   24 1
     5    2    3 1
     6    2    4 1
     7    2   46 1
     8    3   25 1
     9    3   26 1
    10    3   27 1
    11    4    5 1
    12    4   28 1
    13    4   29 1
    14    5    6 1
    15    5   30 1
    16    5   31 1
    17    6    7 1
    18    6   16 1
    19    7    8 1
    20    7   32 1
    21    7   33 1
    22    8   13 ar
    23    8    9 ar
    24    9   10 ar
    25    9   34 1
    26   10   11 ar
    27   10   35 1
    28   11   12 ar
    29   11   14 1
    30   12   13 ar
    31   12   36 1
    32   13   37 1
    33   14   15 1
    34   15   38 1
    35   15   39 1
    36   15   40 1
    37   16   21 ar
    38   16   17 ar
    39   17   18 ar
    40   17   41 1
    41   18   19 ar
    42   18   42 1
    43   19   20 ar
    44   19   43 1
    45   20   21 ar
    46   20   44 1
    47   21   45 1
@<TRIPOS>MOLECULE
ZINC00968264
   44    47     0     0     0
SMALL
USER_CHARGES

@<TRIPOS>ATOM
      1 C1         -0.0178    1.4648    0.0101 C.3       1 <0>        -0.0478
      2 N1          0.0021   -0.0041    0.0020 N.4       1 <0>        -0.3841
      3 C2          0.6740   -0.4746   -1.2151 C.3       1 <0>        -0.0028
      4 C3          0.5450   -1.9989   -1.3133 C.3       1 <0>        -0.1085
      5 C4          1.0748   -2.6020   -0.0289 C.2       1 <0>        -0.1670
      6 C5          1.9463   -3.6220   -0.0482 C.2       1 <0>         0.0275
      7 C6          2.4250   -4.1895   -1.3301 C.ar      1 <0>        -0.0560
      8 C7          3.0785   -3.3773   -2.2512 C.ar      1 <0>        -0.1121
      9 C8          3.5665   -3.9181   -3.4240 C.ar      1 <0>        -0.1123
     10 C9          3.4131   -5.2699   -3.6864 C.ar      1 <0>        -0.1066
     11 C10         2.7520   -6.0862   -2.7951 C.ar      1 <0>        -0.0999
     12 C11         2.2259   -5.5538   -1.6113 C.ar      1 <0>        -0.0362
     13 C12         1.4464   -6.4065   -0.7195 C.2       1 <0>        -0.1006
     14 C13         1.4561   -6.4157    0.5971 C.2       1 <0>        -0.0999
     15 C14         2.2540   -5.5751    1.4858 C.ar      1 <0>        -0.0373
     16 C15         2.4604   -4.2071    1.2114 C.ar      1 <0>        -0.0565
     17 C16         3.1556   -3.4081    2.1146 C.ar      1 <0>        -0.1114
     18 C17         3.6869   -3.9641    3.2610 C.ar      1 <0>        -0.1127
     19 C18         3.5355   -5.3176    3.5164 C.ar      1 <0>        -0.1067
     20 C19         2.8191   -6.1278    2.6417 C.ar      1 <0>        -0.0996
     21 C20         0.5864   -2.0126    1.2782 C.3       1 <0>        -0.1083
     22 C21         0.7124   -0.4873    1.1920 C.3       1 <0>        -0.0026
     23 H1          1.0047    1.8421    0.0024 H         1 <0>         0.1214
     24 H2         -0.5450    1.8259   -0.8730 H         1 <0>         0.1241
     25 H3         -0.5280    1.8163    0.9069 H         1 <0>         0.1241
     26 H4          0.2103   -0.0138   -2.0873 H         1 <0>         0.1333
     27 H5          1.7283   -0.2009   -1.1770 H         1 <0>         0.1279
     28 H6         -0.5023   -2.2718   -1.4432 H         1 <0>         0.0981
     29 H7          1.1283   -2.3636   -2.1588 H         1 <0>         0.1230
     30 H8          3.2037   -2.3238   -2.0490 H         1 <0>         0.1227
     31 H9          4.0694   -3.2849   -4.1399 H         1 <0>         0.1302
     32 H10         3.8150   -5.6873   -4.5979 H         1 <0>         0.1314
     33 H11         2.6391   -7.1387   -3.0096 H         1 <0>         0.1325
     34 H12         0.7830   -7.1132   -1.1958 H         1 <0>         0.1237
     35 H13         0.7981   -7.1264    1.0749 H         1 <0>         0.1239
     36 H14         3.2796   -2.3534    1.9184 H         1 <0>         0.1227
     37 H15         4.2233   -3.3416    3.9618 H         1 <0>         0.1303
     38 H16         3.9745   -5.7475    4.4045 H         1 <0>         0.1315
     39 H17         2.7036   -7.1817    2.8475 H         1 <0>         0.1336
     40 H18        -0.4562   -2.2871    1.4386 H         1 <0>         0.0981
     41 H19         1.1963   -2.3861    2.1007 H         1 <0>         0.1228
     42 H20         1.7651   -0.2131    1.1231 H         1 <0>         0.1280
     43 H21         0.2770   -0.0359    2.0834 H         1 <0>         0.1333
     44 H22        -0.9452   -0.3513    0.0141 H         1 <0>         0.4247
@<TRIPOS>BOND
     1    1    2 1
     2    1   23 1
     3    1   24 1
     4    1   25 1
     5    2   22 1
     6    2    3 1
     7    2   44 1
     8    3    4 1
     9    3   26 1
    10    3   27 1
    11    4    5 1
    12    4   28 1
    13    4   29 1
    14    5    6 2
    15    5   21 1
    16    6   16 1
    17    6    7 1
    18    7   12 ar
    19    7    8 ar
    20    8    9 ar
    21    8   30 1
    22    9   10 ar
    23    9   31 1
    24   10   11 ar
    25   10   32 1
    26   11   12 ar
    27   11   33 1
    28   12   13 1
    29   13   14 2
    30   13   34 1
    31   14   15 1
    32   14   35 1
    33   15   20 ar
    34   15   16 ar
    35   16   17 ar
    36   17   18 ar
    37   17   36 1
    38   18   19 ar
    39   18   37 1
    40   19   20 ar
    41   19   38 1
    42   20   39 1
    43   21   22 1
    44   21   40 1
    45   21   41 1
    46   22   42 1
    47   22   43 1
@<TRIPOS>MOLECULE
ZINC42887577
   51    55     0     0     0
SMALL
USER_CHARGES

@<TRIPOS>ATOM
      1 C1         -0.0518    1.5017   -0.1148 C.3       1 <0>        -0.1240
      2 C2          1.3896    2.0009   -0.1884 C.3       1 <0>        -0.1233
      3 C3          2.1792    1.5324    1.0162 C.3       1 <0>        -0.1236
      4 C4          2.0195    0.0939    1.3795 C.3       1 <0>         0.0936
      5 H1          2.2717   -0.0155    2.4343 H         1 <0>         0.0954
      6 C5          0.6350   -0.5290    1.1646 C.3       1 <0>        -0.0591
      7 H2         -0.0167   -0.3840    2.0262 H         1 <0>         0.1072
      8 C6         -0.0335   -0.0263   -0.0957 C.3       1 <0>        -0.1163
      9 C7          1.0170   -1.9803    0.9762 C.2       1 <0>        -0.3344
     10 C8          2.3328   -2.0225    0.6739 C.2       1 <0>         0.2511
     11 O1          2.8682   -0.7933    0.6365 O.3       1 <0>        -0.2589
     12 C9          3.0235   -3.3350    0.3757 C.3       1 <0>        -0.0898
     13 C10         2.3849   -4.4569    1.1913 C.3       1 <0>        -0.0540
     14 C11         0.8856   -4.4170    1.1377 C.ar      1 <0>        -0.2237
     15 C12         0.2049   -3.1948    1.0601 C.ar      1 <0>         0.3605
     16 N1         -1.1238   -3.1799    1.0574 N.ar      1 <0>        -0.5496
     17 C13        -1.8045   -4.3176    1.0919 C.ar      1 <0>         0.6483
     18 N2         -1.1964   -5.4936    1.1387 N.ar      1 <0>        -0.5521
     19 C14         0.1326   -5.5842    1.1657 C.ar      1 <0>         0.5268
     20 N3          0.7537   -6.8224    1.2213 N.pl3     1 <0>        -0.6706
     21 C15         1.1158   -7.4297    2.5114 C.3       1 <0>         0.1172
     22 C16         0.5808   -8.8652    2.5396 C.3       1 <0>        -0.0241
     23 N4          1.0770   -9.5946    1.3658 N.4       1 <0>        -0.5044
     24 C17         0.5361   -8.9955    0.1392 C.3       1 <0>        -0.0241
     25 C18         1.0638   -7.5690   -0.0077 C.3       1 <0>         0.1164
     26 N5         -3.1878   -4.2751    1.0794 N.pl3     1 <0>        -0.7861
     27 H3         -0.5233    1.8744    0.7945 H         1 <0>         0.0723
     28 H4         -0.6061    1.8511   -0.9859 H         1 <0>         0.0790
     29 H5          1.8567    1.6173   -1.0955 H         1 <0>         0.0679
     30 H6          1.3913    3.0905   -0.2174 H         1 <0>         0.0831
     31 H7          3.2358    1.7200    0.8248 H         1 <0>         0.0919
     32 H8          1.8815    2.1354    1.8741 H         1 <0>         0.0970
     33 H9         -1.0557   -0.4014   -0.1447 H         1 <0>         0.0613
     34 H10         0.5270   -0.3925   -0.9558 H         1 <0>         0.0705
     35 H11         2.9287   -3.5606   -0.6864 H         1 <0>         0.1212
     36 H12         4.0793   -3.2553    0.6345 H         1 <0>         0.1271
     37 H13         2.7271   -5.4157    0.8020 H         1 <0>         0.1112
     38 H14         2.7040   -4.3648    2.2295 H         1 <0>         0.1008
     39 H15         2.2003   -7.4408    2.6194 H         1 <0>         0.1031
     40 H16         0.6696   -6.8565    3.3241 H         1 <0>         0.1198
     41 H17         0.9220   -9.3625    3.4475 H         1 <0>         0.1503
     42 H18        -0.5090   -8.8474    2.5225 H         1 <0>         0.1373
     43 H19         2.0848   -9.5495    1.3446 H         1 <0>         0.4310
     44 H20         0.8444   -9.5888   -0.7216 H         1 <0>         0.1504
     45 H21        -0.5523   -8.9737    0.1947 H         1 <0>         0.1374
     46 H22         0.5833   -7.0878   -0.8596 H         1 <0>         0.1202
     47 H23         2.1430   -7.5944   -0.1584 H         1 <0>         0.1025
     48 H24        -3.6465   -3.4211    1.0456 H         1 <0>         0.4335
     49 H25        -3.6986   -5.0994    1.1043 H         1 <0>         0.4469
     50 H26         0.7871  -10.5594    1.4236 H         1 <0>         0.4402
     51 H27        -1.5976   -2.3339    1.0303 H         1 <0>         0.4460
@<TRIPOS>BOND
     1    1    8 1
     2    1    2 1
     3    1   27 1
     4    1   28 1
     5    2    3 1
     6    2   29 1
     7    2   30 1
     8    3    4 1
     9    3   31 1
    10    3   32 1
    11    4    5 1
    12    4   11 1
    13    4    6 1
    14    6    7 1
    15    6    8 1
    16    6    9 1
    17    8   33 1
    18    8   34 1
    19    9   15 1
    20    9   10 2
    21   10   11 1
    22   10   12 1
    23   12   13 1
    24   12   35 1
    25   12   36 1
    26   13   14 1
    27   13   37 1
    28   13   38 1
    29   14   19 ar
    30   14   15 ar
    31   15   16 ar
    32   16   17 ar
    33   16   51 1
    34   17   18 ar
    35   17   26 1
    36   18   19 ar
    37   19   20 1
    38   20   25 1
    39   20   21 1
    40   21   22 1
    41   21   39 1
    42   21   40 1
    43   22   23 1
    44   22   41 1
    45   22   42 1
    46   23   24 1
    47   23   43 1
    48   23   50 1
    49   24   25 1
    50   24   44 1
    51   24   45 1
    52   25   46 1
    53   25   47 1
    54   26   48 1
    55   26   49 1
@<TRIPOS>MOLECULE
ZINC42887577
   50    54     0     0     0
SMALL
USER_CHARGES

@<TRIPOS>ATOM
      1 C1         -0.0518    1.5017   -0.1148 C.3       1 <0>        -0.1220
      2 C2          1.3896    2.0009   -0.1884 C.3       1 <0>        -0.1192
      3 C3          2.1792    1.5324    1.0162 C.3       1 <0>        -0.1147
      4 C4          2.0195    0.0939    1.3795 C.3       1 <0>         0.0898
      5 H1          2.2717   -0.0155    2.4343 H         1 <0>         0.0758
      6 C5          0.6350   -0.5290    1.1646 C.3       1 <0>        -0.0477
      7 H2         -0.0167   -0.3840    2.0262 H         1 <0>         0.0960
      8 C6         -0.0335   -0.0263   -0.0957 C.3       1 <0>        -0.1049
      9 C7          1.0170   -1.9803    0.9762 C.2       1 <0>        -0.2453
     10 C8          2.3328   -2.0225    0.6739 C.2       1 <0>         0.1401
     11 O1          2.8682   -0.7933    0.6365 O.3       1 <0>        -0.2869
     12 C9          3.0235   -3.3350    0.3757 C.3       1 <0>        -0.0663
     13 C10         2.3849   -4.4569    1.1913 C.3       1 <0>        -0.0450
     14 C11         0.8856   -4.4170    1.1377 C.ar      1 <0>        -0.2541
     15 C12         0.2049   -3.1948    1.0601 C.ar      1 <0>         0.3245
     16 N1         -1.1238   -3.1799    1.0574 N.ar      1 <0>        -0.5564
     17 C13        -1.8045   -4.3176    1.0919 C.ar      1 <0>         0.5906
     18 N2         -1.1964   -5.4936    1.1387 N.ar      1 <0>        -0.6006
     19 C14         0.1326   -5.5842    1.1657 C.ar      1 <0>         0.4501
     20 N3          0.7537   -6.8224    1.2213 N.pl3     1 <0>        -0.6608
     21 C15         1.1158   -7.4297    2.5114 C.3       1 <0>         0.1219
     22 C16         0.5808   -8.8652    2.5396 C.3       1 <0>        -0.0241
     23 N4          1.0770   -9.5946    1.3658 N.4       1 <0>        -0.5018
     24 C17         0.5361   -8.9955    0.1392 C.3       1 <0>        -0.0239
     25 C18         1.0638   -7.5690   -0.0077 C.3       1 <0>         0.1212
     26 N5         -3.1878   -4.2751    1.0794 N.pl3     1 <0>        -0.8176
     27 H3         -0.5233    1.8744    0.7945 H         1 <0>         0.0664
     28 H4         -0.6061    1.8511   -0.9859 H         1 <0>         0.0695
     29 H5          1.8567    1.6173   -1.0955 H         1 <0>         0.0639
     30 H6          1.3913    3.0905   -0.2174 H         1 <0>         0.0723
     31 H7          3.2358    1.7200    0.8248 H         1 <0>         0.0806
     32 H8          1.8815    2.1354    1.8741 H         1 <0>         0.0857
     33 H9         -1.0557   -0.4014   -0.1447 H         1 <0>         0.0725
     34 H10         0.5270   -0.3925   -0.9558 H         1 <0>         0.0586
     35 H11         2.9287   -3.5606   -0.6864 H         1 <0>         0.0972
     36 H12         4.0793   -3.2553    0.6345 H         1 <0>         0.1003
     37 H13         2.7271   -5.4157    0.8020 H         1 <0>         0.0853
     38 H14         2.7040   -4.3648    2.2295 H         1 <0>         0.0768
     39 H15         2.2003   -7.4408    2.6194 H         1 <0>         0.0885
     40 H16         0.6696   -6.8565    3.3241 H         1 <0>         0.1147
     41 H17         0.9220   -9.3625    3.4475 H         1 <0>         0.1413
     42 H18        -0.5090   -8.8474    2.5225 H         1 <0>         0.1345
     43 H19         2.0848   -9.5495    1.3446 H         1 <0>         0.4272
     44 H20         0.8444   -9.5888   -0.7216 H         1 <0>         0.1416
     45 H21        -0.5523   -8.9737    0.1947 H         1 <0>         0.1346
     46 H22         0.5833   -7.0878   -0.8596 H         1 <0>         0.1152
     47 H23         2.1430   -7.5944   -0.1584 H         1 <0>         0.0877
     48 H24        -3.6465   -3.4211    1.0456 H         1 <0>         0.4194
     49 H25        -3.6986   -5.0994    1.1043 H         1 <0>         0.4149
     50 H26         0.7871  -10.5594    1.4236 H         1 <0>         0.4326
@<TRIPOS>BOND
     1    1    8 1
     2    1    2 1
     3    1   27 1
     4    1   28 1
     5    2    3 1
     6    2   29 1
     7    2   30 1
     8    3    4 1
     9    3   31 1
    10    3   32 1
    11    4    5 1
    12    4   11 1
    13    4    6 1
    14    6    7 1
    15    6    8 1
    16    6    9 1
    17    8   33 1
    18    8   34 1
    19    9   15 1
    20    9   10 2
    21   10   11 1
    22   10   12 1
    23   12   13 1
    24   12   35 1
    25   12   36 1
    26   13   14 1
    27   13   37 1
    28   13   38 1
    29   14   19 ar
    30   14   15 ar
    31   15   16 ar
    32   16   17 ar
    33   17   18 ar
    34   17   26 1
    35   18   19 ar
    36   19   20 1
    37   20   25 1
    38   20   21 1
    39   21   22 1
    40   21   39 1
    41   21   40 1
    42   22   23 1
    43   22   41 1
    44   22   42 1
    45   23   24 1
    46   23   43 1
    47   23   50 1
    48   24   25 1
    49   24   44 1
    50   24   45 1
    51   25   46 1
    52   25   47 1
    53   26   48 1
    54   26   49 1
@<TRIPOS>MOLECULE
ZINC42887577
   51    55     0     0     0
SMALL
USER_CHARGES

@<TRIPOS>ATOM
      1 C1         -0.0530    1.5009   -0.1188 C.3       1 <0>        -0.1241
      2 C2          1.3884    2.0000   -0.1944 C.3       1 <0>        -0.1226
      3 C3          2.1794    1.5322    1.0096 C.3       1 <0>        -0.1211
      4 C4          2.0201    0.0940    1.3739 C.3       1 <0>         0.0885
      5 H1          2.2735   -0.0148    2.4285 H         1 <0>         0.0910
      6 C5          0.6353   -0.5290    1.1610 C.3       1 <0>        -0.0474
      7 H2         -0.0154   -0.3835    2.0233 H         1 <0>         0.1079
      8 C6         -0.0346   -0.0270   -0.0987 C.3       1 <0>        -0.1091
      9 C7          1.0170   -1.9805    0.9730 C.2       1 <0>        -0.2880
     10 C8          2.3324   -2.0229    0.6692 C.2       1 <0>         0.2249
     11 O1          2.8679   -0.7937    0.6305 O.3       1 <0>        -0.2629
     12 C9          3.0227   -3.3356    0.3710 C.3       1 <0>        -0.0848
     13 C10         2.3850   -4.4570    1.1880 C.3       1 <0>        -0.0597
     14 C11         0.8856   -4.4170    1.1361 C.ar      1 <0>        -0.1763
     15 C12         0.2049   -3.1948    1.0586 C.ar      1 <0>         0.3893
     16 N1         -1.1238   -3.1799    1.0574 N.ar      1 <0>        -0.5112
     17 C13        -1.8045   -4.3176    1.0935 C.ar      1 <0>         0.6478
     18 N2         -1.1964   -5.4935    1.1402 N.ar      1 <0>        -0.5789
     19 C14         0.1326   -5.5842    1.1657 C.ar      1 <0>         0.4358
     20 N3          0.7537   -6.8224    1.2213 N.pl3     1 <0>        -0.6731
     21 C15         1.1158   -7.4297    2.5114 C.3       1 <0>         0.1064
     22 C16         0.5808   -8.8652    2.5396 C.3       1 <0>        -0.0246
     23 N4          1.0770   -9.5946    1.3658 N.4       1 <0>        -0.5057
     24 C17         0.5361   -8.9955    0.1392 C.3       1 <0>        -0.0245
     25 C18         1.0638   -7.5690   -0.0077 C.3       1 <0>         0.1048
     26 N5         -3.1878   -4.2750    1.0825 N.pl3     1 <0>        -0.7858
     27 H3         -0.5234    1.8742    0.7909 H         1 <0>         0.0704
     28 H4         -0.6083    1.8498   -0.9894 H         1 <0>         0.0754
     29 H5          1.8544    1.6159   -1.1017 H         1 <0>         0.0659
     30 H6          1.3901    3.0896   -0.2240 H         1 <0>         0.0797
     31 H7          3.2357    1.7197    0.8169 H         1 <0>         0.0881
     32 H8          1.8828    2.1357    1.8674 H         1 <0>         0.0950
     33 H9         -1.0570   -0.4021   -0.1463 H         1 <0>         0.0741
     34 H10         0.5248   -0.3938   -0.9593 H         1 <0>         0.0610
     35 H11         2.9266   -3.5619   -0.6909 H         1 <0>         0.1187
     36 H12         4.0788   -3.2558    0.6285 H         1 <0>         0.1259
     37 H13         2.7267   -5.4161    0.7988 H         1 <0>         0.1069
     38 H14         2.7053   -4.3643    2.2258 H         1 <0>         0.1056
     39 H15         2.2003   -7.4408    2.6194 H         1 <0>         0.1105
     40 H16         0.6696   -6.8565    3.3241 H         1 <0>         0.1251
     41 H17         0.9220   -9.3625    3.4475 H         1 <0>         0.1558
     42 H18        -0.5090   -8.8474    2.5225 H         1 <0>         0.1333
     43 H19         2.0848   -9.5495    1.3446 H         1 <0>         0.4347
     44 H20         0.8444   -9.5888   -0.7216 H         1 <0>         0.1561
     45 H21        -0.5523   -8.9737    0.1947 H         1 <0>         0.1330
     46 H22         0.5833   -7.0878   -0.8596 H         1 <0>         0.1249
     47 H23         2.1430   -7.5944   -0.1584 H         1 <0>         0.1103
     48 H24        -3.6465   -3.4210    1.0488 H         1 <0>         0.4503
     49 H25        -3.6987   -5.0992    1.1085 H         1 <0>         0.4297
     50 H26         0.7871  -10.5594    1.4236 H         1 <0>         0.4428
     51 H27        -1.7289   -6.3042    1.1559 H         1 <0>         0.4302
@<TRIPOS>BOND
     1    1    8 1
     2    1    2 1
     3    1   27 1
     4    1   28 1
     5    2    3 1
     6    2   29 1
     7    2   30 1
     8    3    4 1
     9    3   31 1
    10    3   32 1
    11    4    5 1
    12    4   11 1
    13    4    6 1
    14    6    7 1
    15    6    8 1
    16    6    9 1
    17    8   33 1
    18    8   34 1
    19    9   15 1
    20    9   10 2
    21   10   11 1
    22   10   12 1
    23   12   13 1
    24   12   35 1
    25   12   36 1
    26   13   14 1
    27   13   37 1
    28   13   38 1
    29   14   19 ar
    30   14   15 ar
    31   15   16 ar
    32   16   17 ar
    33   17   18 ar
    34   17   26 1
    35   18   19 ar
    36   18   51 1
    37   19   20 1
    38   20   25 1
    39   20   21 1
    40   21   22 1
    41   21   39 1
    42   21   40 1
    43   22   23 1
    44   22   41 1
    45   22   42 1
    46   23   24 1
    47   23   43 1
    48   23   50 1
    49   24   25 1
    50   24   44 1
    51   24   45 1
    52   25   46 1
    53   25   47 1
    54   26   48 1
    55   26   49 1
@<TRIPOS>MOLECULE
ZINC00008768
   43    46     0     0     0
SMALL
USER_CHARGES
spiro[5,6-dihydroimidazo[2,3-b][3]benzazepine-11,4'-piperidine]-3-carboxamide
@<TRIPOS>ATOM
      1 C1         -1.3210    3.0441    0.1012 C.ar      1 <0>        -0.1026
      2 C2         -1.2532    1.6654    0.0409 C.ar      1 <0>        -0.1060
      3 C3         -0.0174    1.0540    0.0296 C.ar      1 <0>        -0.1351
      4 C4          1.1630    1.8032    0.0191 C.ar      1 <0>        -0.0802
      5 C5          1.1023    3.1394    0.1336 C.ar      1 <0>        -0.0627
      6 C6         -0.1574    3.7696    0.1624 C.ar      1 <0>        -0.1119
      7 C7          2.2321    4.0889    0.2419 C.3       1 <0>        -0.1070
      8 C8          3.3209    3.9141    1.2217 C.3       1 <0>         0.0952
      9 N1          3.7679    2.5483    1.4828 N.pl3     1 <0>        -0.4174
     10 C9          4.7514    2.3040    2.4478 C.2       1 <0>        -0.1049
     11 C10         4.9566    0.9588    2.4714 C.2       1 <0>         0.0936
     12 N2          4.1452    0.4166    1.5732 N.2       1 <0>        -0.4956
     13 C11         3.4374    1.3606    0.9775 C.2       1 <0>         0.2394
     14 C12         2.4383    1.0260   -0.1020 C.3       1 <0>         0.0823
     15 C13         3.1171    1.4046   -1.4327 C.3       1 <0>        -0.1475
     16 C14         2.3258    0.8479   -2.6126 C.3       1 <0>         0.0020
     17 C15         1.5529   -1.0256   -1.3277 C.3       1 <0>        -0.0094
     18 C16         2.1891   -0.4793   -0.0585 C.3       1 <0>        -0.1401
     19 C17         5.4393    3.2968    3.2821 C.2       1 <0>         0.5972
     20 O1          6.2029    2.9325    4.1566 O.2       1 <0>        -0.5138
     21 N3          5.2252    4.6120    3.0794 N.am      1 <0>        -0.8625
     22 H1         -2.2768    3.5462    0.1077 H         1 <0>         0.1342
     23 H2         -2.1542    1.0714    0.0022 H         1 <0>         0.1339
     24 H3          0.0049   -0.0235    0.0170 H         1 <0>         0.1319
     25 H4         -0.2125    4.8460    0.2334 H         1 <0>         0.1310
     26 H5          1.7996    5.0700    0.4352 H         1 <0>         0.1090
     27 H6          2.6960    4.1493   -0.7392 H         1 <0>         0.0845
     28 H7          2.9807    4.3422    2.1642 H         1 <0>         0.0980
     29 H8          4.1748    4.4922    0.8755 H         1 <0>         0.1053
     30 H9          5.6541    0.4311    3.1038 H         1 <0>         0.1929
     31 H10         3.1790    2.4904   -1.5150 H         1 <0>         0.1114
     32 H11         4.1290    0.9920   -1.4482 H         1 <0>         0.1004
     33 H12         2.7979    1.1460   -3.5475 H         1 <0>         0.1387
     34 H13         1.3031    1.2202   -2.5816 H         1 <0>         0.1327
     35 H14         1.5403   -2.1213   -1.2797 H         1 <0>         0.1402
     36 H15         0.5271   -0.6788   -1.4355 H         1 <0>         0.1321
     37 H16         3.1484   -0.9972    0.0989 H         1 <0>         0.1218
     38 H17         1.5547   -0.7252    0.8014 H         1 <0>         0.1211
     39 H18         4.5619    4.9014    2.4335 H         1 <0>         0.3946
     40 H19         5.7343    5.2690    3.5795 H         1 <0>         0.4123
     41 N4          2.3148   -0.6193   -2.5154 N.4       1 <0>        -0.5123
     42 H20         3.2788   -0.9644   -2.4382 H         1 <0>         0.4348
     43 H21         1.8760   -1.0147   -3.3553 H         1 <0>         0.4384
@<TRIPOS>BOND
     1    1    6 ar
     2    1    2 ar
     3    1   22 1
     4    2    3 ar
     5    2   23 1
     6    3    4 ar
     7    3   24 1
     8    4   14 1
     9    4    5 ar
    10    5    6 ar
    11    5    7 1
    12    6   25 1
    13    7    8 1
    14    7   26 1
    15    7   27 1
    16    8    9 1
    17    8   28 1
    18    8   29 1
    19    9   13 1
    20    9   10 1
    21   10   11 2
    22   10   19 1
    23   11   12 1
    24   11   30 1
    25   12   13 2
    26   13   14 1
    27   14   18 1
    28   14   15 1
    29   15   16 1
    30   15   31 1
    31   15   32 1
    32   16   33 1
    33   16   34 1
    34   16   41 1
    35   17   18 1
    36   17   35 1
    37   17   36 1
    38   17   41 1
    39   18   37 1
    40   18   38 1
    41   19   20 2
    42   19   21 am
    43   21   39 1
    44   21   40 1
    45   41   42 1
    46   41   43 1
@<TRIPOS>MOLECULE
ZINC00008768
   44    47     0     0     0
SMALL
USER_CHARGES
spiro[5,6-dihydroimidazo[2,3-b][3]benzazepine-11,4'-piperidine]-3-carboxamide
@<TRIPOS>ATOM
      1 C1         -1.3210    3.0441    0.1012 C.ar      1 <0>        -0.0852
      2 C2         -1.2532    1.6654    0.0409 C.ar      1 <0>        -0.0923
      3 C3         -0.0174    1.0540    0.0296 C.ar      1 <0>        -0.1351
      4 C4          1.1630    1.8032    0.0191 C.ar      1 <0>        -0.1013
      5 C5          1.1023    3.1394    0.1336 C.ar      1 <0>        -0.0624
      6 C6         -0.1574    3.7696    0.1624 C.ar      1 <0>        -0.1042
      7 C7          2.2321    4.0889    0.2419 C.3       1 <0>        -0.1224
      8 C8          3.3209    3.9141    1.2217 C.3       1 <0>         0.0837
      9 N1          3.7679    2.5483    1.4828 N.pl3     1 <0>        -0.3633
     10 C9          4.7514    2.3040    2.4478 C.2       1 <0>        -0.0256
     11 C10         4.9566    0.9588    2.4714 C.2       1 <0>         0.1199
     12 C11         3.4374    1.3606    0.9775 C.cat     1 <0>         0.3298
     13 C12         2.4383    1.0260   -0.1020 C.3       1 <0>         0.0564
     14 C13         3.1171    1.4046   -1.4327 C.3       1 <0>        -0.1528
     15 C14         2.3258    0.8479   -2.6126 C.3       1 <0>         0.0016
     16 C15         1.5529   -1.0256   -1.3277 C.3       1 <0>        -0.0075
     17 C16         2.1891   -0.4793   -0.0585 C.3       1 <0>        -0.1575
     18 C17         5.4393    3.2968    3.2821 C.2       1 <0>         0.5908
     19 O1          6.2029    2.9325    4.1566 O.2       1 <0>        -0.4766
     20 N2          5.2252    4.6120    3.0794 N.am      1 <0>        -0.8444
     21 H1         -2.2768    3.5462    0.1077 H         1 <0>         0.1443
     22 H2         -2.1542    1.0714    0.0022 H         1 <0>         0.1432
     23 H3          0.0049   -0.0235    0.0170 H         1 <0>         0.1348
     24 H4         -0.2125    4.8460    0.2334 H         1 <0>         0.1405
     25 H5          1.7996    5.0700    0.4352 H         1 <0>         0.1316
     26 H6          2.6960    4.1493   -0.7392 H         1 <0>         0.0980
     27 H7          2.9807    4.3422    2.1642 H         1 <0>         0.1309
     28 H8          4.1748    4.4922    0.8755 H         1 <0>         0.1379
     29 H9          5.6541    0.4311    3.1038 H         1 <0>         0.2458
     30 H10         3.1790    2.4904   -1.5150 H         1 <0>         0.1269
     31 H11         4.1290    0.9920   -1.4482 H         1 <0>         0.1043
     32 H12         2.7979    1.1460   -3.5475 H         1 <0>         0.1521
     33 H13         1.3031    1.2202   -2.5816 H         1 <0>         0.1424
     34 H14         1.5403   -2.1213   -1.2797 H         1 <0>         0.1548
     35 H15         0.5271   -0.6788   -1.4355 H         1 <0>         0.1472
     36 H16         3.1484   -0.9972    0.0989 H         1 <0>         0.0937
     37 H17         1.5547   -0.7252    0.8014 H         1 <0>         0.1412
     38 H18         4.5619    4.9014    2.4335 H         1 <0>         0.3972
     39 H19         5.7343    5.2690    3.5795 H         1 <0>         0.4297
     40 N3          2.3148   -0.6193   -2.5154 N.4       1 <0>        -0.5154
     41 H20         3.2788   -0.9644   -2.4382 H         1 <0>         0.4347
     42 H21         1.8760   -1.0147   -3.3553 H         1 <0>         0.4515
     43 N4          4.1450    0.4138    1.5726 N.pl3     1 <0>        -0.4979
     44 H22         4.0768   -0.5905    1.3701 H         1 <0>         0.4787
@<TRIPOS>BOND
     1    1    6 ar
     2    1    2 ar
     3    1   21 1
     4    2    3 ar
     5    2   22 1
     6    3    4 ar
     7    3   23 1
     8    4   13 1
     9    4    5 ar
    10    5    6 ar
    11    5    7 1
    12    6   24 1
    13    7    8 1
    14    7   25 1
    15    7   26 1
    16    8    9 1
    17    8   27 1
    18    8   28 1
    19    9   12 1
    20    9   10 1
    21   10   11 2
    22   10   18 1
    23   11   29 1
    24   11   43 1
    25   12   13 1
    26   12   43 2
    27   13   17 1
    28   13   14 1
    29   14   15 1
    30   14   30 1
    31   14   31 1
    32   15   32 1
    33   15   33 1
    34   15   40 1
    35   16   17 1
    36   16   34 1
    37   16   35 1
    38   16   40 1
    39   17   36 1
    40   17   37 1
    41   18   19 2
    42   18   20 am
    43   20   38 1
    44   20   39 1
    45   40   41 1
    46   40   42 1
    47   43   44 1
@<TRIPOS>MOLECULE
ZINC00537822
   50    52     0     0     0
SMALL
USER_CHARGES

@<TRIPOS>ATOM
      1 C1         -0.0169    1.3952    0.0097 C.ar      1 <0>        -0.0260
      2 C2          1.1683    2.0970    0.0022 C.ar      1 <0>        -0.1650
      3 C3          2.3789    1.4198   -0.0130 C.ar      1 <0>         0.1439
      4 C4          2.4047    0.0329   -0.0212 C.ar      1 <0>        -0.1670
      5 C5          1.2267   -0.6810   -0.0142 C.ar      1 <0>        -0.0432
      6 C6          0.0021   -0.0041    0.0020 C.ar      1 <0>        -0.1967
      7 C7         -1.2591   -0.7596    0.0105 C.2       1 <0>         0.4038
      8 O1         -2.3189   -0.1702    0.0242 O.2       1 <0>        -0.4483
      9 C8         -1.2348   -2.2664    0.0022 C.3       1 <0>        -0.1653
     10 C9         -2.6689   -2.7996    0.0135 C.3       1 <0>        -0.1429
     11 C10        -2.6443   -4.3293    0.0051 C.3       1 <0>        -0.0092
     12 N1         -4.0211   -4.8413    0.0160 N.4       1 <0>        -0.3830
     13 C11        -4.6726   -4.4620    1.2755 C.3       1 <0>        -0.0093
     14 C12        -6.1318   -4.9225    1.2582 C.3       1 <0>        -0.1330
     15 C13        -6.1791   -6.4445    1.0954 C.3       1 <0>         0.1746
     16 C14        -5.4322   -6.8346   -0.1834 C.3       1 <0>        -0.1706
     17 C15        -3.9990   -6.3033   -0.1127 C.3       1 <0>        -0.0017
     18 C16        -7.6135   -6.8966    0.9991 C.ar      1 <0>        -0.1262
     19 C17        -8.5661   -6.0599    0.4482 C.ar      1 <0>        -0.1006
     20 C18        -9.8818   -6.4740    0.3596 C.ar      1 <0>        -0.1039
     21 C19       -10.2453   -7.7262    0.8224 C.ar      1 <0>        -0.0247
     22 C20        -9.2914   -8.5631    1.3735 C.ar      1 <0>        -0.1016
     23 C21        -7.9750   -8.1501    1.4564 C.ar      1 <0>        -0.0934
     24 Cl1       -11.8977   -8.2468    0.7119 Cl        1 <0>        -0.0500
     25 O2         -5.5554   -7.0652    2.2213 O.3       1 <0>        -0.5474
     26 F1          3.5378    2.1141   -0.0204 F         1 <0>        -0.1258
     27 H1         -0.9587    1.9236    0.0260 H         1 <0>         0.1459
     28 H2          1.1551    3.1769    0.0077 H         1 <0>         0.1477
     29 H3          3.3506   -0.4883   -0.0334 H         1 <0>         0.1469
     30 H4          1.2482   -1.7608   -0.0213 H         1 <0>         0.1412
     31 H5         -0.7241   -2.6166   -0.8948 H         1 <0>         0.1127
     32 H6         -0.7064   -2.6261    0.8850 H         1 <0>         0.1127
     33 H7         -3.1796   -2.4493    0.9105 H         1 <0>         0.0952
     34 H8         -3.1973   -2.4398   -0.8693 H         1 <0>         0.0947
     35 H9         -2.1335   -4.6796   -0.8919 H         1 <0>         0.1333
     36 H10        -2.1158   -4.6891    0.8880 H         1 <0>         0.1327
     37 H11        -4.1530   -4.9339    2.1093 H         1 <0>         0.1388
     38 H12        -4.6353   -3.3788    1.3915 H         1 <0>         0.1356
     39 H13        -6.6132   -4.6415    2.1949 H         1 <0>         0.1238
     40 H14        -6.6524   -4.4509    0.4248 H         1 <0>         0.1045
     41 H15        -5.4137   -7.9204   -0.2771 H         1 <0>         0.1175
     42 H16        -5.9384   -6.4027   -1.0467 H         1 <0>         0.1009
     43 H17        -3.4644   -6.5795   -1.0215 H         1 <0>         0.1329
     44 H18        -3.4937   -6.7360    0.7507 H         1 <0>         0.1354
     45 H19        -8.2824   -5.0823    0.0874 H         1 <0>         0.1334
     46 H20       -10.6260   -5.8201   -0.0704 H         1 <0>         0.1408
     47 H21        -9.5746   -9.5405    1.7352 H         1 <0>         0.1414
     48 H22        -7.2294   -8.8051    1.8823 H         1 <0>         0.1323
     49 H23        -5.5495   -8.0314    2.1846 H         1 <0>         0.3907
     50 H24        -4.5327   -4.4442   -0.7578 H         1 <0>         0.4215
@<TRIPOS>BOND
     1    1    6 ar
     2    1    2 ar
     3    1   27 1
     4    2    3 ar
     5    2   28 1
     6    3    4 ar
     7    3   26 1
     8    4    5 ar
     9    4   29 1
    10    5    6 ar
    11    5   30 1
    12    6    7 1
    13    7    8 2
    14    7    9 1
    15    9   10 1
    16    9   31 1
    17    9   32 1
    18   10   11 1
    19   10   33 1
    20   10   34 1
    21   11   12 1
    22   11   35 1
    23   11   36 1
    24   12   17 1
    25   12   13 1
    26   12   50 1
    27   13   14 1
    28   13   37 1
    29   13   38 1
    30   14   15 1
    31   14   39 1
    32   14   40 1
    33   15   16 1
    34   15   18 1
    35   15   25 1
    36   16   17 1
    37   16   41 1
    38   16   42 1
    39   17   43 1
    40   17   44 1
    41   18   23 ar
    42   18   19 ar
    43   19   20 ar
    44   19   45 1
    45   20   21 ar
    46   20   46 1
    47   21   22 ar
    48   21   24 1
    49   22   23 ar
    50   22   47 1
    51   23   48 1
    52   25   49 1
@<TRIPOS>MOLECULE
ZINC02518296
   50    53     0     0     0
SMALL
USER_CHARGES

@<TRIPOS>ATOM
      1 C1          2.3009    2.5693    2.0203 C.3       1 <0>        -0.0535
      2 N1          0.9965    1.9304    2.2402 N.4       1 <0>        -0.5079
      3 C2          1.1748    0.4758    2.3422 C.3       1 <0>         0.0234
      4 C3          2.0023    0.1496    3.5876 C.3       1 <0>        -0.1630
      5 C4          2.2154   -1.3651    3.6718 C.3       1 <0>         0.1319
      6 N2          0.9061   -2.0301    3.6261 N.pl3     1 <0>        -0.6465
      7 C5         -0.0063   -1.7183    2.5175 C.3       1 <0>         0.1340
      8 C6         -0.1946   -0.1996    2.4462 C.3       1 <0>        -0.1614
      9 C7          0.5407   -2.9303    4.6048 C.cat     1 <0>         0.6066
     10 N3          0.0189   -2.6118    5.7631 N.pl3     1 <0>        -0.4928
     11 C8         -0.2198   -3.7403    6.4818 C.ar      1 <0>         0.0551
     12 C9         -0.7538   -3.9747    7.7513 C.ar      1 <0>        -0.0788
     13 C10        -0.8716   -5.2655    8.2159 C.ar      1 <0>        -0.0707
     14 C11        -0.4640   -6.3354    7.4330 C.ar      1 <0>        -0.0589
     15 C12         0.0658   -6.1206    6.1773 C.ar      1 <0>        -0.0882
     16 C13         0.1914   -4.8273    5.6932 C.ar      1 <0>         0.0859
     17 N4          0.6636   -4.2868    4.5083 N.pl3     1 <0>        -0.4171
     18 C14         1.1980   -5.0317    3.3656 C.3       1 <0>         0.1484
     19 C15         2.6567   -5.3301    3.5982 C.ar      1 <0>        -0.1584
     20 C16         3.6171   -4.4022    3.2407 C.ar      1 <0>        -0.0732
     21 C17         4.9551   -4.6745    3.4540 C.ar      1 <0>        -0.1545
     22 C18         5.3336   -5.8773    4.0259 C.ar      1 <0>         0.1366
     23 C19         4.3708   -6.8059    4.3836 C.ar      1 <0>        -0.1464
     24 C20         3.0331   -6.5292    4.1742 C.ar      1 <0>        -0.0578
     25 F1          6.6413   -6.1449    4.2345 F         1 <0>        -0.1216
     26 H1          2.7395    2.1914    1.0968 H         1 <0>         0.1280
     27 H2          2.1686    3.6486    1.9446 H         1 <0>         0.1336
     28 H3          2.9623    2.3421    2.8563 H         1 <0>         0.1247
     29 H4          0.5905    2.2802    3.0950 H         1 <0>         0.4299
     30 H5          1.6935    0.1105    1.4558 H         1 <0>         0.1482
     31 H6          2.9685    0.6500    3.5237 H         1 <0>         0.1150
     32 H7          1.4726    0.4925    4.4764 H         1 <0>         0.0964
     33 H8          2.8230   -1.6960    2.8295 H         1 <0>         0.0984
     34 H9          2.7182   -1.6119    4.6069 H         1 <0>         0.1052
     35 H10         0.4201   -2.0780    1.5811 H         1 <0>         0.0990
     36 H11        -0.9695   -2.1981    2.6910 H         1 <0>         0.1055
     37 H12        -0.7036    0.1465    3.3457 H         1 <0>         0.0961
     38 H13        -0.7919    0.0522    1.5699 H         1 <0>         0.1155
     39 H14        -1.0729   -3.1463    8.3664 H         1 <0>         0.1539
     40 H15        -1.2842   -5.4462    9.1975 H         1 <0>         0.1608
     41 H16        -0.5616   -7.3431    7.8088 H         1 <0>         0.1609
     42 H17         0.3820   -6.9579    5.5729 H         1 <0>         0.1510
     43 H18         0.6493   -5.9668    3.2528 H         1 <0>         0.1302
     44 H19         1.0891   -4.4350    2.4599 H         1 <0>         0.1226
     45 H20         3.3216   -3.4642    2.7943 H         1 <0>         0.1280
     46 H21         5.7052   -3.9496    3.1743 H         1 <0>         0.1457
     47 H22         4.6649   -7.7446    4.8295 H         1 <0>         0.1509
     48 H23         2.2817   -7.2515    4.4572 H         1 <0>         0.1392
     49 H24         0.3842    2.1407    1.4663 H         1 <0>         0.4362
     50 H25        -0.1684   -1.7083    6.0624 H         1 <0>         0.4540
@<TRIPOS>BOND
     1    1    2 1
     2    1   26 1
     3    1   27 1
     4    1   28 1
     5    2    3 1
     6    2   29 1
     7    2   49 1
     8    3    8 1
     9    3    4 1
    10    3   30 1
    11    4    5 1
    12    4   31 1
    13    4   32 1
    14    5    6 1
    15    5   33 1
    16    5   34 1
    17    6    7 1
    18    6    9 1
    19    7    8 1
    20    7   35 1
    21    7   36 1
    22    8   37 1
    23    8   38 1
    24    9   17 1
    25    9   10 2
    26   10   11 1
    27   10   50 1
    28   11   16 ar
    29   11   12 ar
    30   12   13 ar
    31   12   39 1
    32   13   14 ar
    33   13   40 1
    34   14   15 ar
    35   14   41 1
    36   15   16 ar
    37   15   42 1
    38   16   17 1
    39   17   18 1
    40   18   19 1
    41   18   43 1
    42   18   44 1
    43   19   24 ar
    44   19   20 ar
    45   20   21 ar
    46   20   45 1
    47   21   22 ar
    48   21   46 1
    49   22   23 ar
    50   22   25 1
    51   23   24 ar
    52   23   47 1
    53   24   48 1
@<TRIPOS>MOLECULE
ZINC01482162
   47    49     0     0     0
SMALL
USER_CHARGES
N,N-dimethyl-2-[1-[1-(2-pyridyl)ethyl]-3H-inden-2-yl]-ethanamine
@<TRIPOS>ATOM
      1 C1         -0.8949    1.7969   -1.0201 C.3       1 <0>        -0.1558
      2 C2         -0.0127    1.0858    0.0080 C.3       1 <0>         0.0061
      3 H1          0.0629    0.0288   -0.2473 H         1 <0>         0.0921
      4 C3          1.3619    1.7034    0.0031 C.ar      1 <0>         0.1337
      5 C4          1.5617    2.9208   -0.6204 C.ar      1 <0>        -0.1683
      6 C5          2.8288    3.4831   -0.6139 C.ar      1 <0>        -0.0666
      7 C6          3.8547    2.7913    0.0122 C.ar      1 <0>        -0.1692
      8 C7          3.5807    1.5758    0.6096 C.ar      1 <0>         0.1005
      9 N1          2.3613    1.0736    0.5890 N.ar      1 <0>        -0.4910
     10 C8         -0.6230    1.2292    1.3784 C.2       1 <0>        -0.0270
     11 C9         -0.9885    0.2160    2.1441 C.2       1 <0>        -0.1528
     12 C10        -1.5510    0.7732    3.4309 C.3       1 <0>        -0.0505
     13 C11        -1.4559    2.2734    3.2953 C.ar      1 <0>        -0.0964
     14 C12        -0.8851    2.5185    2.0444 C.ar      1 <0>        -0.0787
     15 C13        -0.6786    3.8384    1.6368 C.ar      1 <0>        -0.0917
     16 C14        -1.0280    4.8788    2.4726 C.ar      1 <0>        -0.1188
     17 C15        -1.5873    4.6230    3.7116 C.ar      1 <0>        -0.1026
     18 C16        -1.8008    3.3172    4.1213 C.ar      1 <0>        -0.1011
     19 C17        -0.8650   -1.2446    1.7940 C.3       1 <0>        -0.0816
     20 C18         0.4379   -1.7995    2.3732 C.3       1 <0>        -0.0072
     21 C19         0.7144   -3.4058    0.5827 C.3       1 <0>        -0.0474
     22 C20         1.6681   -3.8480    2.7639 C.3       1 <0>        -0.0417
     23 H2         -0.9706    2.8539   -0.7648 H         1 <0>         0.0684
     24 H3         -0.4535    1.6932   -2.0113 H         1 <0>         0.0694
     25 H4         -1.8892    1.3502   -1.0165 H         1 <0>         0.0696
     26 H5          0.7401    3.4295   -1.1026 H         1 <0>         0.1396
     27 H6          3.0136    4.4350   -1.0894 H         1 <0>         0.1389
     28 H7          4.8551    3.1976    0.0331 H         1 <0>         0.1383
     29 H8          4.3741    1.0308    1.0993 H         1 <0>         0.1562
     30 H9         -2.5913    0.4704    3.5502 H         1 <0>         0.1025
     31 H10        -0.9585    0.4329    4.2801 H         1 <0>         0.0975
     32 H11        -0.2423    4.0441    0.6705 H         1 <0>         0.1217
     33 H12        -0.8636    5.8988    2.1579 H         1 <0>         0.1288
     34 H13        -1.8582    5.4427    4.3604 H         1 <0>         0.1310
     35 H14        -2.2376    3.1190    5.0889 H         1 <0>         0.1263
     36 H15        -1.7103   -1.7911    2.2120 H         1 <0>         0.0962
     37 H16        -0.8585   -1.3591    0.7100 H         1 <0>         0.0945
     38 H17         1.2832   -1.2529    1.9551 H         1 <0>         0.1424
     39 H18         0.4314   -1.6850    3.4572 H         1 <0>         0.1289
     40 H19         1.6128   -2.8885    0.2460 H         1 <0>         0.1247
     41 H20         0.8013   -4.4688    0.3577 H         1 <0>         0.1225
     42 H21        -0.1551   -2.9956    0.0691 H         1 <0>         0.1205
     43 H22         1.4920   -3.7592    3.8359 H         1 <0>         0.1208
     44 H23         1.7348   -4.9016    2.4926 H         1 <0>         0.1222
     45 H24         2.6011   -3.3467    2.5062 H         1 <0>         0.1232
     46 N2          0.5339   -3.2363    2.0399 N.4       1 <0>        -0.3974
     47 H25        -0.3347   -3.7036    2.3250 H         1 <0>         0.4293
@<TRIPOS>BOND
     1    1    2 1
     2    1   23 1
     3    1   24 1
     4    1   25 1
     5    2    3 1
     6    2    4 1
     7    2   10 1
     8    4    9 ar
     9    4    5 ar
    10    5    6 ar
    11    5   26 1
    12    6    7 ar
    13    6   27 1
    14    7    8 ar
    15    7   28 1
    16    8    9 ar
    17    8   29 1
    18   10   14 1
    19   10   11 2
    20   11   12 1
    21   11   19 1
    22   12   13 1
    23   12   30 1
    24   12   31 1
    25   13   18 ar
    26   13   14 ar
    27   14   15 ar
    28   15   16 ar
    29   15   32 1
    30   16   17 ar
    31   16   33 1
    32   17   18 ar
    33   17   34 1
    34   18   35 1
    35   19   20 1
    36   19   36 1
    37   19   37 1
    38   20   38 1
    39   20   39 1
    40   20   46 1
    41   21   40 1
    42   21   41 1
    43   21   42 1
    44   21   46 1
    45   22   43 1
    46   22   44 1
    47   22   45 1
    48   22   46 1
    49   46   47 1
