@<TRIPOS>MOLECULE
ZINC13831238
   31    31     0     0     0
SMALL
USER_CHARGES

@<TRIPOS>ATOM
      1 C1         -0.0178    1.4608    0.0101 C.3       1 <0>         0.0880
      2 N1          0.0021   -0.0041    0.0020 N.pl3     1 <0>        -0.6850
      3 C2          0.5851   -0.6645   -1.0180 C.2       1 <0>         0.5561
      4 N2          0.6034   -2.0121   -1.0254 N.pl3     1 <0>        -0.6925
      5 C3          1.2371   -2.7300   -2.1341 C.3       1 <0>         0.1248
      6 C4          1.1200   -4.2373   -1.8990 C.3       1 <0>        -0.1364
      7 C5          1.7819   -4.9870   -3.0569 C.3       1 <0>        -0.1147
      8 C6          1.6648   -6.4943   -2.8217 C.3       1 <0>        -0.0636
      9 C7          2.3167   -7.2328   -3.9622 C.2       1 <0>         0.0641
     10 C8          3.6239   -7.5342   -4.0806 C.2       1 <0>         0.0021
     11 N3          3.7945   -8.1943   -5.2357 N.pl3     1 <0>        -0.4725
     12 H1          0.7462   -7.6746   -5.2769 H         1 <0>         0.4652
     13 C9          2.6427   -8.3133   -5.8376 C.cat     1 <0>         0.3051
     14 N4          1.6930   -7.7313   -5.0741 N.pl3     1 <0>        -0.5112
     15 S1          1.3024    0.2084   -2.3042 S.2       1 <0>        -0.6329
     16 H2          1.0048    1.8381    0.0023 H         1 <0>         0.0823
     17 H3         -0.5450    1.8219   -0.8730 H         1 <0>         0.0821
     18 H4         -0.5280    1.8123    0.9069 H         1 <0>         0.0847
     19 H5          0.1969   -2.5067   -0.2966 H         1 <0>         0.3972
     20 H6          0.7396   -2.4683   -3.0680 H         1 <0>         0.0872
     21 H7          2.2894   -2.4521   -2.1927 H         1 <0>         0.0886
     22 H8          1.6175   -4.4990   -0.9651 H         1 <0>         0.0780
     23 H9          0.0677   -4.5152   -1.8404 H         1 <0>         0.0755
     24 H10         1.2844   -4.7253   -3.9908 H         1 <0>         0.0752
     25 H11         2.8342   -4.7091   -3.1154 H         1 <0>         0.0821
     26 H12         2.1622   -6.7561   -1.8878 H         1 <0>         0.1147
     27 H13         0.6125   -6.7723   -2.7631 H         1 <0>         0.0982
     28 H14         4.3989   -7.2877   -3.3701 H         1 <0>         0.2243
     29 H15         2.4761   -8.7998   -6.7873 H         1 <0>         0.2663
     30 H16        -0.4044   -0.4986    0.7308 H         1 <0>         0.3994
     31 H17         4.6405   -8.5301   -5.5708 H         1 <0>         0.4677
@<TRIPOS>BOND
     1    1    2 1
     2    1   16 1
     3    1   17 1
     4    1   18 1
     5    2    3 1
     6    2   30 1
     7    3    4 1
     8    3   15 2
     9    4    5 1
    10    4   19 1
    11    5    6 1
    12    5   20 1
    13    5   21 1
    14    6    7 1
    15    6   22 1
    16    6   23 1
    17    7    8 1
    18    7   24 1
    19    7   25 1
    20    8   26 1
    21    8   27 1
    22    8    9 1
    23    9   10 2
    24    9   14 1
    25   10   11 1
    26   10   28 1
    27   11   13 2
    28   11   31 1
    29   12   14 1
    30   13   29 1
    31   13   14 1
@<TRIPOS>MOLECULE
ZINC13831238
   30    30     0     0     0
SMALL
USER_CHARGES

@<TRIPOS>ATOM
      1 C1         -0.0178    1.4608    0.0101 C.3       1 <0>         0.0914
      2 N1          0.0021   -0.0041    0.0020 N.pl3     1 <0>        -0.6911
      3 C2         -1.1558   -0.6938    0.0094 C.2       1 <0>         0.5569
      4 S1         -2.6499    0.1420    0.0281 S.2       1 <0>        -0.6390
      5 N2         -1.1375   -2.0414    0.0020 N.pl3     1 <0>        -0.6855
      6 C3         -2.3962   -2.7911    0.0099 C.3       1 <0>         0.1231
      7 C4         -2.0962   -4.2913   -0.0010 C.3       1 <0>        -0.1335
      8 C5         -3.4107   -5.0743    0.0074 C.3       1 <0>        -0.1058
      9 C6         -3.1108   -6.5746   -0.0035 C.3       1 <0>        -0.0320
     10 C7         -4.4055   -7.3458    0.0047 C.2       1 <0>         0.0019
     11 C8         -4.7718   -8.2867   -0.8864 C.2       1 <0>        -0.0565
     12 N3         -6.0115   -8.7278   -0.5095 N.pl3     1 <0>        -0.5712
     13 C9         -6.3599   -8.0406    0.5996 C.2       1 <0>         0.1860
     14 N4         -5.3924   -7.2194    0.9041 N.2       1 <0>        -0.4883
     15 H1          1.0048    1.8381    0.0023 H         1 <0>         0.0808
     16 H2         -0.5450    1.8219   -0.8730 H         1 <0>         0.0796
     17 H3         -0.5280    1.8123    0.9069 H         1 <0>         0.0798
     18 H4          0.8486   -0.4776   -0.0086 H         1 <0>         0.3978
     19 H5         -0.2910   -2.5149   -0.0087 H         1 <0>         0.3964
     20 H6         -2.9627   -2.5403    0.9067 H         1 <0>         0.0888
     21 H7         -2.9797   -2.5308   -0.8731 H         1 <0>         0.0874
     22 H8         -1.5297   -4.5421   -0.8978 H         1 <0>         0.0685
     23 H9         -1.5127   -4.5516    0.8821 H         1 <0>         0.0701
     24 H10        -3.9773   -4.8236    0.9042 H         1 <0>         0.0771
     25 H11        -3.9943   -4.8140   -0.8757 H         1 <0>         0.0661
     26 H12        -2.5442   -6.8253   -0.9003 H         1 <0>         0.0732
     27 H13        -2.5272   -6.8349    0.8795 H         1 <0>         0.0740
     28 H14        -4.1978   -8.6275   -1.7354 H         1 <0>         0.1749
     29 H15        -7.2843   -8.1546    1.1463 H         1 <0>         0.2081
     30 H16        -6.5410   -9.4072   -0.9557 H         1 <0>         0.4209
@<TRIPOS>BOND
     1    1    2 1
     2    1   15 1
     3    1   16 1
     4    1   17 1
     5    2    3 1
     6    2   18 1
     7    3    4 2
     8    3    5 1
     9    5    6 1
    10    5   19 1
    11    6    7 1
    12    6   20 1
    13    6   21 1
    14    7    8 1
    15    7   22 1
    16    7   23 1
    17    8    9 1
    18    8   24 1
    19    8   25 1
    20    9   10 1
    21    9   26 1
    22    9   27 1
    23   10   14 1
    24   10   11 2
    25   11   12 1
    26   11   28 1
    27   12   13 1
    28   12   30 1
    29   13   14 2
    30   13   29 1
@<TRIPOS>MOLECULE
ZINC13831238
   30    30     0     0     0
SMALL
USER_CHARGES

@<TRIPOS>ATOM
      1 C1         -0.0178    1.4608    0.0101 C.3       1 <0>         0.0908
      2 N1          0.0021   -0.0041    0.0020 N.pl3     1 <0>        -0.6900
      3 C2          0.6044   -0.6754    1.0035 C.2       1 <0>         0.5566
      4 S1          1.3462    0.1837    2.2852 S.2       1 <0>        -0.6371
      5 N2          0.6227   -2.0230    0.9961 N.pl3     1 <0>        -0.6868
      6 C3          1.2774   -2.7527    2.0848 C.3       1 <0>         0.1231
      7 C4          1.1557   -4.2573    1.8357 C.3       1 <0>        -0.1337
      8 C5          1.8394   -5.0194    2.9727 C.3       1 <0>        -0.1106
      9 C6          1.7177   -6.5241    2.7236 C.3       1 <0>        -0.0419
     10 C7          2.3912   -7.2747    3.8435 C.2       1 <0>        -0.0262
     11 C8          3.7013   -7.5722    3.9365 C.2       1 <0>        -0.0217
     12 N3          3.8937   -8.2459    5.0802 N.2       1 <0>        -0.4935
     13 C9          2.7525   -8.3772    5.6995 C.2       1 <0>         0.1842
     14 N4          1.7898   -7.7800    4.9645 N.pl3     1 <0>        -0.5680
     15 H1          1.0048    1.8381    0.0023 H         1 <0>         0.0803
     16 H2         -0.5450    1.8219   -0.8730 H         1 <0>         0.0815
     17 H3         -0.5280    1.8123    0.9069 H         1 <0>         0.0801
     18 H4         -0.4183   -0.4908   -0.7241 H         1 <0>         0.3981
     19 H5          0.2023   -2.5097    0.2700 H         1 <0>         0.3966
     20 H6          2.3307   -2.4753    2.1262 H         1 <0>         0.0893
     21 H7          0.7979   -2.5010    3.0308 H         1 <0>         0.0874
     22 H8          0.1024   -4.5348    1.7943 H         1 <0>         0.0696
     23 H9          1.6352   -4.5090    0.8898 H         1 <0>         0.0730
     24 H10         2.8927   -4.7420    3.0141 H         1 <0>         0.0766
     25 H11         1.3599   -4.7678    3.9186 H         1 <0>         0.0676
     26 H12         0.6645   -6.8015    2.6822 H         1 <0>         0.0702
     27 H13         2.1972   -6.7757    1.7776 H         1 <0>         0.0889
     28 H14         4.4635   -7.3136    3.2163 H         1 <0>         0.1686
     29 H15         2.6034   -8.8772    6.6451 H         1 <0>         0.2083
     30 H16         0.8478   -7.7218    5.1881 H         1 <0>         0.4188
@<TRIPOS>BOND
     1    1    2 1
     2    1   15 1
     3    1   16 1
     4    1   17 1
     5    2    3 1
     6    2   18 1
     7    3    4 2
     8    3    5 1
     9    5    6 1
    10    5   19 1
    11    6    7 1
    12    6   20 1
    13    6   21 1
    14    7    8 1
    15    7   22 1
    16    7   23 1
    17    8    9 1
    18    8   24 1
    19    8   25 1
    20    9   10 1
    21    9   26 1
    22    9   27 1
    23   10   14 1
    24   10   11 2
    25   11   12 1
    26   11   28 1
    27   12   13 2
    28   13   14 1
    29   13   29 1
    30   14   30 1
@<TRIPOS>MOLECULE
ZINC02022527
   54    55     0     0     0
SMALL
USER_CHARGES

@<TRIPOS>ATOM
      1 C1         -3.0730    2.2881   -4.2693 C.3       1 <0>        -0.1569
      2 C2         -2.3049    1.5870   -3.1471 C.3       1 <0>        -0.1270
      3 C3         -2.8110    2.0874   -1.7927 C.3       1 <0>        -0.1231
      4 C4         -2.0429    1.3862   -0.6705 C.3       1 <0>        -0.1174
      5 C5         -2.5490    1.8867    0.6839 C.3       1 <0>        -0.1006
      6 C6         -2.2117    3.3722    0.8391 C.3       1 <0>        -0.1451
      7 C7         -2.6658    3.8518    2.2196 C.3       1 <0>        -0.0114
      8 C8         -2.3347    1.6429    3.1595 C.3       1 <0>        -0.0001
      9 C9         -1.8707    1.0973    1.8070 C.3       1 <0>        -0.1442
     10 C10        -2.2939    3.5901    4.5974 C.3       1 <0>        -0.0052
     11 C11        -2.1583    5.1140    4.5919 C.3       1 <0>        -0.1459
     12 C12        -2.4764    5.6593    5.9856 C.3       1 <0>        -0.1543
     13 C13        -2.3428    7.1604    5.9803 C.2       1 <0>         0.3987
     14 O1         -2.0245    7.7371    4.9623 O.2       1 <0>        -0.4456
     15 C14        -2.5986    7.9263    7.2106 C.ar      1 <0>        -0.1885
     16 C15        -3.0878    7.2813    8.3513 C.ar      1 <0>        -0.0705
     17 C16        -3.3195    8.0047    9.5018 C.ar      1 <0>        -0.1389
     18 C17        -3.0801    9.3679    9.5265 C.ar      1 <0>        -0.0729
     19 C18        -2.6016   10.0143    8.4004 C.ar      1 <0>        -0.1345
     20 C19        -2.3594    9.3036    7.2436 C.ar      1 <0>        -0.0178
     21 C20        -1.8387   10.0095    6.0182 C.3       1 <0>        -0.1264
     22 H1         -4.1363    2.0676   -4.1746 H         1 <0>         0.0549
     23 H2         -2.9175    3.3647   -4.1985 H         1 <0>         0.0540
     24 H3         -2.7125    1.9316   -5.2342 H         1 <0>         0.0581
     25 H4         -1.2417    1.8075   -3.2417 H         1 <0>         0.0621
     26 H5         -2.4605    0.5104   -3.2179 H         1 <0>         0.0631
     27 H6         -3.8743    1.8669   -1.6981 H         1 <0>         0.0644
     28 H7         -2.6555    3.1639   -1.7219 H         1 <0>         0.0632
     29 H8         -2.1984    0.3097   -0.7413 H         1 <0>         0.0733
     30 H9         -0.9796    1.6067   -0.7651 H         1 <0>         0.0688
     31 H10        -3.6287    1.7492    0.7427 H         1 <0>         0.0884
     32 H11        -1.1354    3.5132    0.7407 H         1 <0>         0.0881
     33 H12        -2.7264    3.9447    0.0675 H         1 <0>         0.1133
     34 H13        -3.7442    3.7233    2.3122 H         1 <0>         0.1295
     35 H14        -2.4142    4.9057    2.3388 H         1 <0>         0.1342
     36 H15        -3.4146    1.5248    3.2476 H         1 <0>         0.1293
     37 H16        -1.8426    1.0924    3.9613 H         1 <0>         0.1282
     38 H17        -2.1418    0.0446    1.7270 H         1 <0>         0.1118
     39 H18        -0.7890    1.2025    1.7239 H         1 <0>         0.0880
     40 H19        -3.3133    3.3170    4.8704 H         1 <0>         0.1315
     41 H20        -1.5979    3.1659    5.3211 H         1 <0>         0.1302
     42 H21        -1.1389    5.3871    4.3190 H         1 <0>         0.0944
     43 H22        -2.8542    5.5382    3.8682 H         1 <0>         0.0968
     44 H23        -3.4115    5.4088    6.2361 H         1 <0>         0.0981
     45 H24        -1.7805    5.2352    6.7093 H         1 <0>         0.1100
     46 H25        -3.2793    6.2186    8.3321 H         1 <0>         0.1290
     47 H26        -3.6933    7.5074   10.3846 H         1 <0>         0.1322
     48 H27        -3.2682    9.9300   10.4293 H         1 <0>         0.1326
     49 H28        -2.4176   11.0782    8.4274 H         1 <0>         0.1332
     50 H29        -2.6709   10.2515    5.3572 H         1 <0>         0.0784
     51 H30        -1.3321   10.9277    6.3156 H         1 <0>         0.0652
     52 H31        -1.1365    9.3600    5.4956 H         1 <0>         0.0893
     53 N1         -1.9588    3.0696    3.2558 N.4       1 <0>        -0.3931
     54 H32        -0.9467    3.1581    3.1071 H         1 <0>         0.4272
@<TRIPOS>BOND
     1    1    2 1
     2    1   22 1
     3    1   23 1
     4    1   24 1
     5    2    3 1
     6    2   25 1
     7    2   26 1
     8    3    4 1
     9    3   27 1
    10    3   28 1
    11    4    5 1
    12    4   29 1
    13    4   30 1
    14    5    9 1
    15    5    6 1
    16    5   31 1
    17    6    7 1
    18    6   32 1
    19    6   33 1
    20    7   34 1
    21    7   35 1
    22    7   53 1
    23    8    9 1
    24    8   36 1
    25    8   37 1
    26    8   53 1
    27    9   38 1
    28    9   39 1
    29   10   11 1
    30   10   40 1
    31   10   41 1
    32   10   53 1
    33   11   12 1
    34   11   42 1
    35   11   43 1
    36   12   13 1
    37   12   44 1
    38   12   45 1
    39   13   14 2
    40   13   15 1
    41   15   20 ar
    42   15   16 ar
    43   16   17 ar
    44   16   46 1
    45   17   18 ar
    46   17   47 1
    47   18   19 ar
    48   18   48 1
    49   19   20 ar
    50   19   49 1
    51   20   21 1
    52   21   50 1
    53   21   51 1
    54   21   52 1
    55   53   54 1
@<TRIPOS>MOLECULE
ZINC19868747
   35    37     0     0     0
SMALL
USER_CHARGES

@<TRIPOS>ATOM
      1 C1          1.7302    1.7441   -0.9395 C.3       1 <0>         0.0240
      2 N1          1.2923    0.3866   -0.5886 N.3       1 <0>        -0.5432
      3 C2          1.3850   -0.5124   -1.7468 C.3       1 <0>         0.0387
      4 C3          0.7532   -1.8628   -1.3929 C.3       1 <0>         0.1167
      5 N2          1.3840   -2.3658   -0.1631 N.am      1 <0>        -0.6105
      6 C4          1.4518   -1.4694    1.0010 C.3       1 <0>         0.0883
      7 C5          2.0561   -0.1344    0.5529 C.3       1 <0>         0.0410
      8 C6          1.8862   -3.6152   -0.1043 C.2       1 <0>         0.5853
      9 O1          1.8175   -4.3446   -1.0754 O.2       1 <0>        -0.5148
     10 C7          2.5172   -4.0965    1.1337 C.2       1 <0>         0.0219
     11 C8          3.5030   -5.0289    1.2044 C.2       1 <0>        -0.1018
     12 C9          3.8299   -5.2082    2.5703 C.ar      1 <0>        -0.1076
     13 C10         4.7524   -6.0229    3.2398 C.ar      1 <0>        -0.0492
     14 C11         4.8387   -5.9739    4.6014 C.ar      1 <0>        -0.0596
     15 C12         4.0183   -5.1217    5.3321 C.ar      1 <0>        -0.0784
     16 C13         3.1040   -4.3122    4.6965 C.ar      1 <0>        -0.1163
     17 C14         2.9980   -4.3442    3.3087 C.ar      1 <0>         0.1111
     18 N3          2.2062   -3.6685    2.4098 N.pl3     1 <0>        -0.5787
     19 H1          1.5375   -3.0029    2.6350 H         1 <0>         0.4234
     20 Cl1         5.9824   -6.9851    5.4279 Cl        1 <0>        -0.0682
     21 H2          2.7874    1.7277   -1.2047 H         1 <0>         0.0280
     22 H3          1.1486    2.1058   -1.7875 H         1 <0>         0.0730
     23 H4          1.5797    2.4063   -0.0869 H         1 <0>         0.0722
     24 H5          0.8548   -0.0730   -2.5916 H         1 <0>         0.0931
     25 H6          2.4324   -0.6588   -2.0106 H         1 <0>         0.0418
     26 H7         -0.3169   -1.7349   -1.2296 H         1 <0>         0.0811
     27 H8          0.9205   -2.5696   -2.2056 H         1 <0>         0.1017
     28 H9          0.4489   -1.3036    1.3944 H         1 <0>         0.0850
     29 H10         2.0810   -1.9161    1.7709 H         1 <0>         0.0956
     30 H11         3.0942   -0.2862    0.2570 H         1 <0>         0.0428
     31 H12         2.0126    0.5790    1.3757 H         1 <0>         0.0919
     32 H13         3.9556   -5.5417    0.3686 H         1 <0>         0.1591
     33 H14         5.3933   -6.6881    2.6802 H         1 <0>         0.1382
     34 H15         4.0989   -5.0947    6.4088 H         1 <0>         0.1403
     35 H16         2.4707   -3.6541    5.2729 H         1 <0>         0.1342
@<TRIPOS>BOND
     1    1    2 1
     2    1   21 1
     3    1   22 1
     4    1   23 1
     5    2    7 1
     6    2    3 1
     7    3    4 1
     8    3   24 1
     9    3   25 1
    10    4    5 1
    11    4   26 1
    12    4   27 1
    13    5    6 1
    14    5    8 am
    15    6    7 1
    16    6   28 1
    17    6   29 1
    18    7   30 1
    19    7   31 1
    20    8    9 2
    21    8   10 1
    22   10   18 1
    23   10   11 2
    24   11   12 1
    25   11   32 1
    26   12   17 ar
    27   12   13 ar
    28   13   14 ar
    29   13   33 1
    30   14   15 ar
    31   14   20 1
    32   15   16 ar
    33   15   34 1
    34   16   17 ar
    35   16   35 1
    36   17   18 1
    37   18   19 1
@<TRIPOS>MOLECULE
ZINC13518991
   19    20     0     0     0
SMALL
USER_CHARGES
(1R,2R)-2-(1H-imidazol-4-yl)cyclopropan-1-amine
@<TRIPOS>ATOM
      1 C1          1.9721    1.6218    2.3022 C.2       1 <0>        -0.0248
      2 C2          2.1321    0.7830    1.2609 C.2       1 <0>        -0.0109
      3 N1          3.1482   -0.0445    1.5470 N.2       1 <0>        -0.4867
      4 C3          3.6204    0.2461    2.7283 C.2       1 <0>         0.2063
      5 N2          2.9122    1.2779    3.2358 N.pl3     1 <0>        -0.5653
      6 H1          3.0490    1.7100    4.1272 H         1 <0>         0.4377
      7 C4          1.3165    0.7789   -0.0063 C.3       1 <0>        -0.0280
      8 H2          1.8888    0.7918   -0.9339 H         1 <0>         0.1399
      9 C5         -0.0187    1.5258    0.0104 C.3       1 <0>        -0.1436
     10 C6          0.0021   -0.0041    0.0020 C.3       1 <0>        -0.0684
     11 H3         -0.2732   -0.5162    0.9240 H         1 <0>         0.1771
     12 H4          1.2412    2.4126    2.3856 H         1 <0>         0.1805
     13 H5          4.4413   -0.2557    3.2190 H         1 <0>         0.2168
     14 H6         -0.3248    2.0300   -0.9061 H         1 <0>         0.1298
     15 H7         -0.3072    2.0201    0.9381 H         1 <0>         0.1335
     16 H8         -1.2698   -1.1652   -1.1259 H         1 <0>         0.4424
     17 H9         -0.4369   -0.0286   -2.0092 H         1 <0>         0.4350
     18 N3         -0.3728   -0.6970   -1.2432 N.4       1 <0>        -0.6150
     19 H10         0.3436   -1.3972   -1.4686 H         1 <0>         0.4437
@<TRIPOS>BOND
     1    1    5 1
     2    1    2 2
     3    1   12 1
     4    2    3 1
     5    2    7 1
     6    3    4 2
     7    4    5 1
     8    4   13 1
     9    5    6 1
    10    7    8 1
    11    7   10 1
    12    7    9 1
    13    9   10 1
    14    9   14 1
    15    9   15 1
    16   10   11 1
    17   10   18 1
    18   16   18 1
    19   17   18 1
    20   18   19 1
@<TRIPOS>MOLECULE
ZINC13518991
   20    21     0     0     0
SMALL
USER_CHARGES
(1R,2R)-2-(1H-imidazol-4-yl)cyclopropan-1-amine
@<TRIPOS>ATOM
      1 C1          1.9721    1.6218    2.3022 C.2       1 <0>         0.0629
      2 C2          2.1321    0.7830    1.2609 C.2       1 <0>         0.0231
      3 C3          3.6204    0.2461    2.7283 C.cat     1 <0>         0.3341
      4 N1          2.9122    1.2779    3.2358 N.pl3     1 <0>        -0.5124
      5 H1          3.0490    1.7100    4.1272 H         1 <0>         0.4846
      6 C4          1.3165    0.7789   -0.0063 C.3       1 <0>        -0.0864
      7 H2          1.8888    0.7918   -0.9339 H         1 <0>         0.1619
      8 C5         -0.0187    1.5258    0.0104 C.3       1 <0>        -0.1203
      9 C6          0.0021   -0.0041    0.0020 C.3       1 <0>        -0.0525
     10 H3         -0.2732   -0.5162    0.9240 H         1 <0>         0.1860
     11 H4          1.2412    2.4126    2.3856 H         1 <0>         0.2290
     12 H5          4.4413   -0.2557    3.2190 H         1 <0>         0.2734
     13 H6         -0.3248    2.0300   -0.9061 H         1 <0>         0.1473
     14 H7         -0.3072    2.0201    0.9381 H         1 <0>         0.1452
     15 H8         -1.2698   -1.1652   -1.1259 H         1 <0>         0.4541
     16 H9         -0.4369   -0.0286   -2.0092 H         1 <0>         0.4431
     17 N2         -0.3728   -0.6970   -1.2432 N.4       1 <0>        -0.6188
     18 H10         0.3436   -1.3972   -1.4686 H         1 <0>         0.4450
     19 N3          3.1477   -0.0435    1.5478 N.pl3     1 <0>        -0.4827
     20 H11         3.4987   -0.7882    0.9341 H         1 <0>         0.4835
@<TRIPOS>BOND
     1    1    4 1
     2    1    2 2
     3    1   11 1
     4    2    6 1
     5    2   19 1
     6    3    4 1
     7    3   12 1
     8    3   19 2
     9    4    5 1
    10    6    7 1
    11    6    9 1
    12    6    8 1
    13    8    9 1
    14    8   13 1
    15    8   14 1
    16    9   10 1
    17    9   17 1
    18   15   17 1
    19   16   17 1
    20   17   18 1
    21   19   20 1
@<TRIPOS>MOLECULE
ZINC13518995
   19    20     0     0     0
SMALL
USER_CHARGES
(1S,2S)-2-(1H-imidazol-4-yl)cyclopropan-1-amine
@<TRIPOS>ATOM
      1 C1         -0.7050    3.1521    0.0257 C.2       1 <0>        -0.0248
      2 C2          0.6414    3.1322    0.0128 C.2       1 <0>        -0.0108
      3 N1          1.0374    1.8508    0.0021 N.2       1 <0>        -0.4865
      4 C3         -0.0126    1.0758    0.0080 C.2       1 <0>         0.2063
      5 N2         -1.1205    1.8479    0.0168 N.pl3     1 <0>        -0.5652
      6 H1         -2.0676    1.5268    0.0168 H         1 <0>         0.4377
      7 C4          1.5450    4.3383    0.0111 C.3       1 <0>        -0.0261
      8 H2          2.3184    4.3453   -0.7570 H         1 <0>         0.1399
      9 C5          0.9302    5.6821    0.4074 C.3       1 <0>        -0.1486
     10 C6          1.8868    4.9669    1.3635 C.3       1 <0>        -0.0671
     11 H3          1.4584    4.5078    2.2545 H         1 <0>         0.1790
     12 H4         -1.3359    4.0287    0.0368 H         1 <0>         0.1805
     13 H5          0.0021   -0.0041    0.0020 H         1 <0>         0.2169
     14 H6          1.2989    6.5735   -0.1001 H         1 <0>         0.1303
     15 H7         -0.1278    5.6939    0.6693 H         1 <0>         0.1332
     16 H8          3.3513    5.9206    2.4516 H         1 <0>         0.4426
     17 H9          3.9416    4.8446    1.3292 H         1 <0>         0.4412
     18 N3          3.2312    5.5521    1.5096 N.4       1 <0>        -0.6153
     19 H10         3.3414    6.3173    0.8339 H         1 <0>         0.4368
@<TRIPOS>BOND
     1    1    5 1
     2    1    2 2
     3    1   12 1
     4    2    3 1
     5    2    7 1
     6    3    4 2
     7    4    5 1
     8    4   13 1
     9    5    6 1
    10    7    8 1
    11    7   10 1
    12    7    9 1
    13    9   10 1
    14    9   14 1
    15    9   15 1
    16   10   11 1
    17   10   18 1
    18   16   18 1
    19   17   18 1
    20   18   19 1
@<TRIPOS>MOLECULE
ZINC13518995
   20    21     0     0     0
SMALL
USER_CHARGES
(1S,2S)-2-(1H-imidazol-4-yl)cyclopropan-1-amine
@<TRIPOS>ATOM
      1 C1         -0.7050    3.1521    0.0257 C.2       1 <0>         0.0629
      2 C2          0.6414    3.1322    0.0128 C.2       1 <0>         0.0232
      3 C3         -0.0126    1.0758    0.0080 C.cat     1 <0>         0.3343
      4 N1         -1.1205    1.8479    0.0168 N.pl3     1 <0>        -0.5124
      5 H1         -2.0676    1.5268    0.0168 H         1 <0>         0.4846
      6 C4          1.5450    4.3383    0.0111 C.3       1 <0>        -0.0845
      7 H2          2.3184    4.3453   -0.7570 H         1 <0>         0.1618
      8 C5          0.9302    5.6821    0.4074 C.3       1 <0>        -0.1253
      9 C6          1.8868    4.9669    1.3635 C.3       1 <0>        -0.0515
     10 H3          1.4584    4.5078    2.2545 H         1 <0>         0.1878
     11 H4         -1.3359    4.0287    0.0368 H         1 <0>         0.2290
     12 H5          0.0021   -0.0041    0.0020 H         1 <0>         0.2734
     13 H6          1.2989    6.5735   -0.1001 H         1 <0>         0.1478
     14 H7         -0.1278    5.6939    0.6693 H         1 <0>         0.1449
     15 H8          3.3513    5.9206    2.4516 H         1 <0>         0.4541
     16 H9          3.9416    4.8446    1.3292 H         1 <0>         0.4429
     17 N2          3.2312    5.5521    1.5096 N.4       1 <0>        -0.6192
     18 H10         3.3414    6.3173    0.8339 H         1 <0>         0.4452
     19 N3          1.0361    1.8512    0.0021 N.pl3     1 <0>        -0.4826
     20 H11         2.0115    1.5306   -0.0090 H         1 <0>         0.4836
@<TRIPOS>BOND
     1    1    4 1
     2    1    2 2
     3    1   11 1
     4    2    6 1
     5    2   19 1
     6    3    4 1
     7    3   12 1
     8    3   19 2
     9    4    5 1
    10    6    7 1
    11    6    9 1
    12    6    8 1
    13    8    9 1
    14    8   13 1
    15    8   14 1
    16    9   10 1
    17    9   17 1
    18   15   17 1
    19   16   17 1
    20   17   18 1
    21   19   20 1
@<TRIPOS>MOLECULE
ZINC01892860
   38    40     0     0     0
SMALL
USER_CHARGES

@<TRIPOS>ATOM
      1 C1         -0.0169    1.3962    0.0097 C.ar      1 <0>        -0.0188
      2 C2          1.1625    2.0954    0.0022 C.ar      1 <0>        -0.1651
      3 C3          2.3762    1.4165   -0.0135 C.ar      1 <0>         0.1662
      4 C4          2.4006    0.0259   -0.0212 C.ar      1 <0>        -0.2246
      5 C5          1.2269   -0.6828   -0.0138 C.ar      1 <0>        -0.0273
      6 C6          0.0021   -0.0041    0.0020 C.ar      1 <0>        -0.2066
      7 C7         -1.2581   -0.7581    0.0100 C.2       1 <0>         0.4281
      8 O1         -2.3178   -0.1681    0.0233 O.2       1 <0>        -0.4587
      9 C8         -1.2347   -2.2649    0.0017 C.3       1 <0>        -0.2225
     10 C9         -2.2150   -2.9815   -0.9291 C.3       1 <0>        -0.1476
     11 C10        -2.4480   -2.9935    0.5829 C.3       1 <0>        -0.1501
     12 O2          3.5404    2.1130   -0.0218 O.3       1 <0>        -0.3084
     13 C11         4.7507    1.3535   -0.0378 C.3       1 <0>         0.0562
     14 C12         5.9494    2.3043   -0.0452 C.3       1 <0>        -0.1155
     15 C13         7.2453    1.4912   -0.0624 C.3       1 <0>        -0.0389
     16 C14         8.4259    2.4277   -0.0696 C.2       1 <0>        -0.0275
     17 C15         8.9817    3.0104   -1.1490 C.2       1 <0>        -0.0181
     18 N1         10.0067    3.7674   -0.7302 N.2       1 <0>        -0.4935
     19 C16        10.1072    3.6759    0.5677 C.2       1 <0>         0.1869
     20 N2          9.1358    2.8542    1.0203 N.pl3     1 <0>        -0.5676
     21 H1          8.9728    2.6101    1.9448 H         1 <0>         0.4194
     22 H2         -0.9588    1.9243    0.0260 H         1 <0>         0.1415
     23 H3          1.1490    3.1753    0.0081 H         1 <0>         0.1389
     24 H4          3.3458   -0.4966   -0.0334 H         1 <0>         0.1353
     25 H5          1.2469   -1.7626   -0.0205 H         1 <0>         0.1358
     26 H6         -0.2556   -2.7207    0.1493 H         1 <0>         0.1249
     27 H7         -2.8768   -2.3632   -1.5355 H         1 <0>         0.1023
     28 H8         -1.8808   -3.9090   -1.3942 H         1 <0>         0.1060
     29 H9         -2.2673   -3.9288    1.1127 H         1 <0>         0.1052
     30 H10        -3.2632   -2.3830    0.9714 H         1 <0>         0.1050
     31 H11         4.7943    0.7207    0.8486 H         1 <0>         0.0663
     32 H12         4.7763    0.7297   -0.9313 H         1 <0>         0.0696
     33 H13         5.9057    2.9372   -0.9316 H         1 <0>         0.0830
     34 H14         5.9237    2.9282    0.8483 H         1 <0>         0.0740
     35 H15         7.2889    0.8584    0.8240 H         1 <0>         0.0743
     36 H16         7.2709    0.8673   -0.9558 H         1 <0>         0.0930
     37 H17         8.6588    2.8894   -2.1725 H         1 <0>         0.1696
     38 H18        10.8428    4.1775    1.1790 H         1 <0>         0.2092
@<TRIPOS>BOND
     1    1    6 ar
     2    1    2 ar
     3    1   22 1
     4    2    3 ar
     5    2   23 1
     6    3    4 ar
     7    3   12 1
     8    4    5 ar
     9    4   24 1
    10    5    6 ar
    11    5   25 1
    12    6    7 1
    13    7    8 2
    14    7    9 1
    15    9   11 1
    16    9   10 1
    17    9   26 1
    18   10   11 1
    19   10   27 1
    20   10   28 1
    21   11   29 1
    22   11   30 1
    23   12   13 1
    24   13   14 1
    25   13   31 1
    26   13   32 1
    27   14   15 1
    28   14   33 1
    29   14   34 1
    30   15   16 1
    31   15   35 1
    32   15   36 1
    33   16   20 1
    34   16   17 2
    35   17   18 1
    36   17   37 1
    37   18   19 2
    38   19   20 1
    39   19   38 1
    40   20   21 1
@<TRIPOS>MOLECULE
ZINC01892860
   39    41     0     0     0
SMALL
USER_CHARGES

@<TRIPOS>ATOM
      1 C1         -0.0169    1.3962    0.0097 C.ar      1 <0>        -0.0189
      2 C2          1.1625    2.0954    0.0022 C.ar      1 <0>        -0.1606
      3 C3          2.3762    1.4165   -0.0135 C.ar      1 <0>         0.1572
      4 C4          2.4006    0.0259   -0.0212 C.ar      1 <0>        -0.2224
      5 C5          1.2269   -0.6828   -0.0138 C.ar      1 <0>        -0.0284
      6 C6          0.0021   -0.0041    0.0020 C.ar      1 <0>        -0.1965
      7 C7         -1.2581   -0.7581    0.0100 C.2       1 <0>         0.4253
      8 O1         -2.3178   -0.1681    0.0233 O.2       1 <0>        -0.4527
      9 C8         -1.2347   -2.2649    0.0017 C.3       1 <0>        -0.2245
     10 C9         -2.2150   -2.9815   -0.9291 C.3       1 <0>        -0.1467
     11 C10        -2.4480   -2.9935    0.5829 C.3       1 <0>        -0.1489
     12 O2          3.5404    2.1130   -0.0218 O.3       1 <0>        -0.3105
     13 C11         4.7507    1.3535   -0.0378 C.3       1 <0>         0.0546
     14 C12         5.9494    2.3043   -0.0452 C.3       1 <0>        -0.1206
     15 C13         7.2453    1.4912   -0.0624 C.3       1 <0>        -0.0608
     16 C14         8.4259    2.4277   -0.0696 C.2       1 <0>         0.0335
     17 C15         8.9723    3.0039   -1.1573 C.2       1 <0>         0.0370
     18 N1         10.0150    3.7732   -0.7163 N.pl3     1 <0>        -0.5090
     19 H1         10.6046    4.3131   -1.2656 H         1 <0>         0.4686
     20 C16        10.0696    3.6402    0.6265 C.cat     1 <0>         0.3079
     21 N2          9.1131    2.8380    1.0067 N.pl3     1 <0>        -0.4748
     22 H2         -0.9588    1.9243    0.0260 H         1 <0>         0.1443
     23 H3          1.1490    3.1753    0.0081 H         1 <0>         0.1393
     24 H4          3.3458   -0.4966   -0.0334 H         1 <0>         0.1336
     25 H5          1.2469   -1.7626   -0.0205 H         1 <0>         0.1381
     26 H6         -0.2556   -2.7207    0.1493 H         1 <0>         0.1243
     27 H7         -2.8768   -2.3632   -1.5355 H         1 <0>         0.1031
     28 H8         -1.8808   -3.9090   -1.3942 H         1 <0>         0.1071
     29 H9         -2.2673   -3.9288    1.1127 H         1 <0>         0.1065
     30 H10        -3.2632   -2.3830    0.9714 H         1 <0>         0.1060
     31 H11         4.7943    0.7207    0.8486 H         1 <0>         0.0700
     32 H12         4.7763    0.7297   -0.9313 H         1 <0>         0.0726
     33 H13         5.9057    2.9372   -0.9316 H         1 <0>         0.0877
     34 H14         5.9237    2.9282    0.8483 H         1 <0>         0.0805
     35 H15         7.2889    0.8584    0.8240 H         1 <0>         0.1009
     36 H16         7.2709    0.8673   -0.9558 H         1 <0>         0.1173
     37 H17         8.6499    2.8822   -2.1808 H         1 <0>         0.2275
     38 H18        10.7840    4.1213    1.2782 H         1 <0>         0.2672
     39 H19         8.9293    2.5779    1.9229 H         1 <0>         0.4653
@<TRIPOS>BOND
     1    1    6 ar
     2    1    2 ar
     3    1   22 1
     4    2    3 ar
     5    2   23 1
     6    3    4 ar
     7    3   12 1
     8    4    5 ar
     9    4   24 1
    10    5    6 ar
    11    5   25 1
    12    6    7 1
    13    7    8 2
    14    7    9 1
    15    9   11 1
    16    9   10 1
    17    9   26 1
    18   10   11 1
    19   10   27 1
    20   10   28 1
    21   11   29 1
    22   11   30 1
    23   12   13 1
    24   13   14 1
    25   13   31 1
    26   13   32 1
    27   14   15 1
    28   14   33 1
    29   14   34 1
    30   15   16 1
    31   15   35 1
    32   15   36 1
    33   16   21 1
    34   16   17 2
    35   17   18 1
    36   17   37 1
    37   18   19 1
    38   18   20 1
    39   20   21 2
    40   20   38 1
    41   21   39 1
@<TRIPOS>MOLECULE
ZINC01892860
   39    41     0     0     0
SMALL
USER_CHARGES

@<TRIPOS>ATOM
      1 C1         -0.0169    1.3962    0.0097 C.ar      1 <0>        -0.0189
      2 C2          1.1625    2.0954    0.0022 C.ar      1 <0>        -0.1606
      3 C3          2.3762    1.4165   -0.0135 C.ar      1 <0>         0.1572
      4 C4          2.4006    0.0259   -0.0212 C.ar      1 <0>        -0.2224
      5 C5          1.2269   -0.6828   -0.0138 C.ar      1 <0>        -0.0284
      6 C6          0.0021   -0.0041    0.0020 C.ar      1 <0>        -0.1965
      7 C7         -1.2581   -0.7581    0.0100 C.2       1 <0>         0.4253
      8 O1         -2.3178   -0.1681    0.0233 O.2       1 <0>        -0.4527
      9 C8         -1.2347   -2.2649    0.0017 C.3       1 <0>        -0.2245
     10 C9         -2.2150   -2.9815   -0.9291 C.3       1 <0>        -0.1467
     11 C10        -2.4480   -2.9935    0.5829 C.3       1 <0>        -0.1489
     12 O2          3.5404    2.1130   -0.0218 O.3       1 <0>        -0.3104
     13 C11         4.7507    1.3535   -0.0378 C.3       1 <0>         0.0547
     14 C12         5.9494    2.3043   -0.0452 C.3       1 <0>        -0.1201
     15 C13         7.2453    1.4912   -0.0624 C.3       1 <0>        -0.0608
     16 C14         8.4259    2.4277   -0.0696 C.2       1 <0>         0.0635
     17 N1          9.1358    2.8542    1.0203 N.pl3     1 <0>        -0.5108
     18 C15        10.1053    3.6783    0.5680 C.cat     1 <0>         0.3073
     19 N2         10.0094    3.7640   -0.7306 N.pl3     1 <0>        -0.4727
     20 C16         8.9890    3.0012   -1.1501 C.2       1 <0>         0.0056
     21 H1         -0.9588    1.9243    0.0260 H         1 <0>         0.1443
     22 H2          1.1490    3.1753    0.0081 H         1 <0>         0.1393
     23 H3          3.3458   -0.4966   -0.0334 H         1 <0>         0.1337
     24 H4          1.2469   -1.7626   -0.0205 H         1 <0>         0.1381
     25 H5         -0.2556   -2.7207    0.1493 H         1 <0>         0.1243
     26 H6         -2.8768   -2.3632   -1.5355 H         1 <0>         0.1031
     27 H7         -1.8808   -3.9090   -1.3942 H         1 <0>         0.1071
     28 H8         -2.2673   -3.9288    1.1127 H         1 <0>         0.1065
     29 H9         -3.2632   -2.3830    0.9714 H         1 <0>         0.1060
     30 H10         4.7943    0.7207    0.8486 H         1 <0>         0.0702
     31 H11         4.7763    0.7297   -0.9313 H         1 <0>         0.0727
     32 H12         5.9057    2.9372   -0.9316 H         1 <0>         0.0879
     33 H13         5.9237    2.9282    0.8483 H         1 <0>         0.0810
     34 H14         7.2889    0.8584    0.8240 H         1 <0>         0.1020
     35 H15         7.2709    0.8673   -0.9558 H         1 <0>         0.1186
     36 H16        10.8383    4.1831    1.1797 H         1 <0>         0.2671
     37 H17         8.6728    2.8717   -2.1747 H         1 <0>         0.2253
     38 H18         8.9728    2.6101    1.9448 H         1 <0>         0.4657
     39 H19        10.5871    4.2932   -1.3026 H         1 <0>         0.4682
@<TRIPOS>BOND
     1    1    6 ar
     2    1    2 ar
     3    1   21 1
     4    2    3 ar
     5    2   22 1
     6    3    4 ar
     7    3   12 1
     8    4    5 ar
     9    4   23 1
    10    5    6 ar
    11    5   24 1
    12    6    7 1
    13    7    8 2
    14    7    9 1
    15    9   11 1
    16    9   10 1
    17    9   25 1
    18   10   11 1
    19   10   26 1
    20   10   27 1
    21   11   28 1
    22   11   29 1
    23   12   13 1
    24   13   14 1
    25   13   30 1
    26   13   31 1
    27   14   15 1
    28   14   32 1
    29   14   33 1
    30   15   34 1
    31   15   35 1
    32   15   16 1
    33   16   17 1
    34   16   20 2
    35   17   18 1
    36   17   38 1
    37   18   36 1
    38   18   19 2
    39   19   20 1
    40   19   39 1
    41   20   37 1
@<TRIPOS>MOLECULE
ZINC01892860
   38    40     0     0     0
SMALL
USER_CHARGES

@<TRIPOS>ATOM
      1 C1         -0.0169    1.3962    0.0097 C.ar      1 <0>        -0.0188
      2 C2          1.1625    2.0954    0.0022 C.ar      1 <0>        -0.1665
      3 C3          2.3762    1.4165   -0.0135 C.ar      1 <0>         0.1685
      4 C4          2.4006    0.0259   -0.0212 C.ar      1 <0>        -0.2252
      5 C5          1.2269   -0.6828   -0.0138 C.ar      1 <0>        -0.0271
      6 C6          0.0021   -0.0041    0.0020 C.ar      1 <0>        -0.2089
      7 C7         -1.2581   -0.7581    0.0100 C.2       1 <0>         0.4286
      8 O1         -2.3178   -0.1681    0.0233 O.2       1 <0>        -0.4599
      9 C8         -1.2347   -2.2649    0.0017 C.3       1 <0>        -0.2221
     10 C9         -2.2150   -2.9815   -0.9291 C.3       1 <0>        -0.1479
     11 C10        -2.4480   -2.9935    0.5829 C.3       1 <0>        -0.1503
     12 O2          3.5404    2.1130   -0.0218 O.3       1 <0>        -0.3077
     13 C11         4.7507    1.3535   -0.0378 C.3       1 <0>         0.0561
     14 C12         5.9494    2.3043   -0.0452 C.3       1 <0>        -0.1106
     15 C13         7.2453    1.4912   -0.0624 C.3       1 <0>        -0.0289
     16 C14         8.4259    2.4277   -0.0696 C.2       1 <0>         0.0011
     17 N1          8.6474    3.4100   -0.9557 N.2       1 <0>        -0.4885
     18 C15         9.7636    4.0161   -0.6562 C.2       1 <0>         0.1872
     19 N2         10.2924    3.4325    0.4408 N.pl3     1 <0>        -0.5707
     20 C16         9.4406    2.4288    0.8158 C.2       1 <0>        -0.0525
     21 H1         -0.9588    1.9243    0.0260 H         1 <0>         0.1408
     22 H2          1.1490    3.1753    0.0081 H         1 <0>         0.1386
     23 H3          3.3458   -0.4966   -0.0334 H         1 <0>         0.1357
     24 H4          1.2469   -1.7626   -0.0205 H         1 <0>         0.1352
     25 H5         -0.2556   -2.7207    0.1493 H         1 <0>         0.1250
     26 H6         -2.8768   -2.3632   -1.5355 H         1 <0>         0.1020
     27 H7         -1.8808   -3.9090   -1.3942 H         1 <0>         0.1058
     28 H8         -2.2673   -3.9288    1.1127 H         1 <0>         0.1049
     29 H9         -3.2632   -2.3830    0.9714 H         1 <0>         0.1048
     30 H10         4.7943    0.7207    0.8486 H         1 <0>         0.0657
     31 H11         4.7763    0.7297   -0.9313 H         1 <0>         0.0671
     32 H12         5.9057    2.9372   -0.9316 H         1 <0>         0.0836
     33 H13         5.9237    2.9282    0.8483 H         1 <0>         0.0726
     34 H14         7.2889    0.8584    0.8240 H         1 <0>         0.0774
     35 H15         7.2709    0.8673   -0.9558 H         1 <0>         0.0781
     36 H16        10.1934    4.8467   -1.1965 H         1 <0>         0.2087
     37 H17         9.5602    1.7642    1.6587 H         1 <0>         0.1764
     38 H18        11.1196    3.6805    0.8825 H         1 <0>         0.4217
@<TRIPOS>BOND
     1    1    6 ar
     2    1    2 ar
     3    1   21 1
     4    2    3 ar
     5    2   22 1
     6    3    4 ar
     7    3   12 1
     8    4    5 ar
     9    4   23 1
    10    5    6 ar
    11    5   24 1
    12    6    7 1
    13    7    8 2
    14    7    9 1
    15    9   11 1
    16    9   10 1
    17    9   25 1
    18   10   11 1
    19   10   26 1
    20   10   27 1
    21   11   28 1
    22   11   29 1
    23   12   13 1
    24   13   14 1
    25   13   30 1
    26   13   31 1
    27   14   15 1
    28   14   32 1
    29   14   33 1
    30   15   34 1
    31   15   35 1
    32   15   16 1
    33   16   17 1
    34   16   20 2
    35   17   18 2
    36   18   36 1
    37   18   19 1
    38   19   20 1
    39   19   38 1
    40   20   37 1
@<TRIPOS>MOLECULE
ZINC21981239
   65    68     0     0     0
SMALL
USER_CHARGES
4-[4-(4-chlorophenyl)-4-hydroxy-1-piperidyl]-N-methyl-2,2-diphenyl-butanamide
@<TRIPOS>ATOM
      1 C1         -0.0855   -1.6023   -3.7609 C.3       1 <0>         0.0833
      2 N1         -0.4220   -0.7797   -2.5964 N.am      1 <0>        -0.7395
      3 C2          0.3089   -0.8777   -1.4682 C.2       1 <0>         0.5134
      4 O1          1.2452   -1.6469   -1.4172 O.2       1 <0>        -0.5125
      5 C3         -0.0372   -0.0315   -0.2703 C.3       1 <0>         0.0266
      6 C4         -1.4630   -0.3499    0.1843 C.3       1 <0>        -0.1369
      7 C5         -1.5965   -1.8544    0.4285 C.3       1 <0>        -0.0220
      8 N2         -2.9985   -2.1804    0.7214 N.4       1 <0>        -0.3936
      9 C6         -3.4255   -1.5760    1.9898 C.3       1 <0>        -0.0052
     10 C7         -4.9241   -1.8129    2.1903 C.3       1 <0>        -0.1281
     11 C8         -5.2007   -3.3189    2.2024 C.3       1 <0>         0.1877
     12 C9         -4.7028   -3.9318    0.8905 C.3       1 <0>        -0.1746
     13 C10        -3.2107   -3.6335    0.7277 C.3       1 <0>         0.0007
     14 C11        -6.6820   -3.5591    2.3403 C.ar      1 <0>        -0.1328
     15 C12        -7.4757   -3.6465    1.2119 C.ar      1 <0>        -0.1020
     16 C13        -8.8335   -3.8725    1.3375 C.ar      1 <0>        -0.1086
     17 C14        -9.4000   -3.9998    2.5933 C.ar      1 <0>        -0.0236
     18 C15        -8.6060   -3.9066    3.7225 C.ar      1 <0>        -0.1072
     19 C16        -7.2474   -3.6862    3.5954 C.ar      1 <0>        -0.0829
     20 Cl1       -11.1063   -4.2771    2.7522 Cl        1 <0>        -0.0522
     21 O2         -4.5148   -3.9216    3.3017 O.3       1 <0>        -0.5800
     22 C17         0.0583    1.4262   -0.6404 C.ar      1 <0>        -0.0900
     23 C18        -1.0131    2.2692   -0.4112 C.ar      1 <0>        -0.1196
     24 C19        -0.9237    3.6073   -0.7463 C.ar      1 <0>        -0.1128
     25 C20         0.2333    4.1004   -1.3199 C.ar      1 <0>        -0.1057
     26 C21         1.3026    3.2563   -1.5543 C.ar      1 <0>        -0.1086
     27 C22         1.2152    1.9192   -1.2144 C.ar      1 <0>        -0.0990
     28 C23         0.9255   -0.3293    0.8502 C.ar      1 <0>        -0.0872
     29 C24         1.5324    0.7075    1.5340 C.ar      1 <0>        -0.0984
     30 C25         2.4118    0.4343    2.5650 C.ar      1 <0>        -0.1172
     31 C26         2.6920   -0.8758    2.9055 C.ar      1 <0>        -0.1048
     32 C27         2.0895   -1.9127    2.2180 C.ar      1 <0>        -0.1213
     33 C28         1.2061   -1.6394    1.1905 C.ar      1 <0>        -0.0966
     34 H1         -0.7882   -1.3849   -4.5788 H         1 <0>         0.0814
     35 H2         -0.1552   -2.6663   -3.4907 H         1 <0>         0.0607
     36 H3          0.9396   -1.3734   -4.0876 H         1 <0>         0.0644
     37 H4         -1.2712   -0.0820   -2.6427 H         1 <0>         0.4214
     38 H5         -1.6809    0.1935    1.1156 H         1 <0>         0.1092
     39 H6         -2.1743   -0.0405   -0.5957 H         1 <0>         0.0991
     40 H7         -1.2726   -2.4017   -0.4690 H         1 <0>         0.1294
     41 H8         -0.9665   -2.1446    1.2822 H         1 <0>         0.1429
     42 H9         -2.8680   -2.0339    2.8202 H         1 <0>         0.1374
     43 H10        -3.2256   -0.4946    1.9663 H         1 <0>         0.1323
     44 H11        -5.2401   -1.3726    3.1475 H         1 <0>         0.1208
     45 H12        -5.4830   -1.3423    1.3680 H         1 <0>         0.1024
     46 H13        -4.8608   -5.0202    0.9111 H         1 <0>         0.1182
     47 H14        -5.2597   -3.4963    0.0477 H         1 <0>         0.0994
     48 H15        -2.8533   -4.0603   -0.2210 H         1 <0>         0.1306
     49 H16        -2.6543   -4.0817    1.5641 H         1 <0>         0.1341
     50 H17        -7.0341   -3.5427    0.2318 H         1 <0>         0.1312
     51 H18        -9.4528   -3.9451    0.4557 H         1 <0>         0.1387
     52 H19        -9.0476   -4.0062    4.7030 H         1 <0>         0.1398
     53 H20        -6.6275   -3.6138    4.4767 H         1 <0>         0.1406
     54 H21        -4.5955   -5.0052    3.4730 H         1 <0>         0.4267
     55 H22        -1.9186    1.8831    0.0331 H         1 <0>         0.1234
     56 H23        -1.7593    4.2668   -0.5635 H         1 <0>         0.1284
     57 H24         0.3018    5.1451   -1.5851 H         1 <0>         0.1289
     58 H25         2.2065    3.6415   -2.0028 H         1 <0>         0.1289
     59 H26         2.0506    1.2597   -1.3976 H         1 <0>         0.1219
     60 H27         1.3165    1.7310    1.2653 H         1 <0>         0.1271
     61 H28         2.8828    1.2444    3.1019 H         1 <0>         0.1270
     62 H29         3.3820   -1.0892    3.7086 H         1 <0>         0.1266
     63 H30         2.3088   -2.9362    2.4838 H         1 <0>         0.1251
     64 H31         0.7354   -2.4495    0.6533 H         1 <0>         0.1194
     65 H32        -3.6206   -1.7541   -0.0794 H         1 <0>         0.4340
@<TRIPOS>BOND
     1    1    2 1
     2    1   34 1
     3    1   35 1
     4    1   36 1
     5    2    3 am
     6    2   37 1
     7    3    4 2
     8    3    5 1
     9    5    6 1
    10    5   22 1
    11    5   28 1
    12    6    7 1
    13    6   38 1
    14    6   39 1
    15    7    8 1
    16    7   40 1
    17    7   41 1
    18    8   13 1
    19    8    9 1
    20    8   65 1
    21    9   10 1
    22    9   42 1
    23    9   43 1
    24   10   11 1
    25   10   44 1
    26   10   45 1
    27   11   12 1
    28   11   14 1
    29   11   21 1
    30   12   13 1
    31   12   46 1
    32   12   47 1
    33   13   48 1
    34   13   49 1
    35   14   19 ar
    36   14   15 ar
    37   15   16 ar
    38   15   50 1
    39   16   17 ar
    40   16   51 1
    41   17   18 ar
    42   17   20 1
    43   18   19 ar
    44   18   52 1
    45   19   53 1
    46   21   54 1
    47   22   27 ar
    48   22   23 ar
    49   23   24 ar
    50   23   55 1
    51   24   25 ar
    52   24   56 1
    53   25   26 ar
    54   25   57 1
    55   26   27 ar
    56   26   58 1
    57   27   59 1
    58   28   33 ar
    59   28   29 ar
    60   29   30 ar
    61   29   60 1
    62   30   31 ar
    63   30   61 1
    64   31   32 ar
    65   31   62 1
    66   32   33 ar
    67   32   63 1
    68   33   64 1
@<TRIPOS>MOLECULE
ZINC04097188
   68    72     0     0     0
SMALL
USER_CHARGES

@<TRIPOS>ATOM
      1 C1         -0.0187    1.5258    0.0104 C.3       1 <0>        -0.1896
      2 C2          0.0021   -0.0041    0.0020 C.3       1 <0>         0.0255
      3 H1         -1.0107   -0.3920    0.1113 H         1 <0>         0.1397
      4 C3          0.6266   -0.5176   -1.3119 C.3       1 <0>        -0.0884
      5 H2         -0.1119   -0.6752   -2.0979 H         1 <0>         0.1302
      6 C4          1.7513    0.4610   -1.7327 C.3       1 <0>        -0.1475
      7 C5          3.0882   -0.3174   -1.6037 C.3       1 <0>        -0.1270
      8 C6          2.6513   -1.7814   -1.7325 C.3       1 <0>        -0.0772
      9 H3          2.4325   -2.0219   -2.7729 H         1 <0>         0.0970
     10 C7          1.3395   -1.8095   -0.8929 C.3       1 <0>        -0.0735
     11 C8          0.6189   -3.1144   -1.1352 C.3       1 <0>        -0.1068
     12 C9          1.5255   -4.2387   -0.6081 C.3       1 <0>        -0.1247
     13 C10         2.9025   -4.2081   -1.2664 C.3       1 <0>        -0.0754
     14 H4          2.7799   -4.4153   -2.3295 H         1 <0>         0.0765
     15 C11         3.6083   -2.8046   -1.1440 C.3       1 <0>        -0.0714
     16 H5          3.8076   -2.5762   -0.0970 H         1 <0>         0.0770
     17 C12         4.9054   -2.8147   -1.9610 C.3       1 <0>        -0.0900
     18 C13         5.7800   -3.9386   -1.4875 C.2       1 <0>        -0.1193
     19 C14         5.3091   -5.0156   -0.9305 C.2       1 <0>        -0.1319
     20 C15         3.7793   -5.2940   -0.6651 C.3       1 <0>        -0.0080
     21 C16         3.3854   -6.6607   -1.2326 C.3       1 <0>        -0.1059
     22 C17         4.2846   -7.7398   -0.6263 C.3       1 <0>        -0.1415
     23 C18         5.7383   -7.4868   -1.0294 C.3       1 <0>         0.0191
     24 H6          5.8126   -7.4485   -2.1162 H         1 <0>         0.1323
     25 C19         6.2918   -6.0912   -0.4987 C.3       1 <0>        -0.0926
     26 N1          6.5843   -8.5737   -0.5188 N.4       1 <0>        -0.3856
     27 C20         6.1344   -9.8521   -1.0856 C.3       1 <0>        -0.0533
     28 C21         7.9804   -8.3307   -0.9059 C.3       1 <0>        -0.0523
     29 C22         3.5249   -5.3314    0.8432 C.3       1 <0>        -0.1541
     30 C23         1.6785   -1.6179    0.5905 C.3       1 <0>        -0.0109
     31 N2          0.8553   -0.5039    1.0939 N.4       1 <0>        -0.3835
     32 C24         1.7293    0.5772    1.5687 C.3       1 <0>        -0.0584
     33 H7          0.9999    1.9024    0.1036 H         1 <0>         0.0926
     34 H8         -0.4565    1.8883   -0.9196 H         1 <0>         0.1058
     35 H9         -0.6143    1.8764    0.8533 H         1 <0>         0.0849
     36 H10         1.6026    0.7791   -2.7646 H         1 <0>         0.0891
     37 H11         1.7586    1.3277   -1.0717 H         1 <0>         0.0873
     38 H12         3.7708   -0.0468   -2.4093 H         1 <0>         0.0867
     39 H13         3.5471   -0.1364   -0.6316 H         1 <0>         0.0660
     40 H14        -0.3296   -3.1199   -0.5982 H         1 <0>         0.0755
     41 H15         0.4432   -3.2488   -2.2025 H         1 <0>         0.0875
     42 H16         1.6440   -4.1243    0.4694 H         1 <0>         0.0702
     43 H17         1.0549   -5.2004   -0.8126 H         1 <0>         0.0787
     44 H18         4.6701   -2.9562   -3.0158 H         1 <0>         0.0865
     45 H19         5.4269   -1.8668   -1.8277 H         1 <0>         0.0825
     46 H20         6.8487   -3.8493   -1.6154 H         1 <0>         0.1148
     47 H21         2.3454   -6.8718   -0.9837 H         1 <0>         0.0889
     48 H22         3.5061   -6.6531   -2.3159 H         1 <0>         0.0766
     49 H23         4.1999   -7.7141    0.4601 H         1 <0>         0.0908
     50 H24         3.9725   -8.7186   -0.9905 H         1 <0>         0.0937
     51 H25         7.2866   -5.8521   -0.8747 H         1 <0>         0.1020
     52 H26         6.3149   -6.1520    0.5894 H         1 <0>         0.0859
     53 H27         6.2087   -9.8138   -2.1724 H         1 <0>         0.1230
     54 H28         6.7622  -10.6586   -0.7067 H         1 <0>         0.1276
     55 H29         5.0985  -10.0324   -0.7983 H         1 <0>         0.1250
     56 H30         8.3143   -7.3822   -0.4853 H         1 <0>         0.1232
     57 H31         8.6082   -9.1372   -0.5270 H         1 <0>         0.1273
     58 H32         8.0547   -8.2924   -1.9927 H         1 <0>         0.1229
     59 H33         2.4738   -5.5523    1.0290 H         1 <0>         0.0706
     60 H34         4.1445   -6.1048    1.2971 H         1 <0>         0.0559
     61 H35         3.7751   -4.3637    1.2779 H         1 <0>         0.0573
     62 H36         1.4462   -2.5280    1.1437 H         1 <0>         0.1322
     63 H37         2.7357   -1.3763    0.7002 H         1 <0>         0.1342
     64 H38         1.1195    1.4035    1.9341 H         1 <0>         0.1302
     65 H39         2.3601    0.2062    2.3765 H         1 <0>         0.1217
     66 H40         2.3568    0.9241    0.7477 H         1 <0>         0.1231
     67 H41         0.2758   -0.8278    1.8537 H         1 <0>         0.4270
     68 H42         6.5156   -8.6091    0.4873 H         1 <0>         0.4242
@<TRIPOS>BOND
     1    1    2 1
     2    1   33 1
     3    1   34 1
     4    1   35 1
     5    2    3 1
     6    2   31 1
     7    2    4 1
     8    4    5 1
     9    4   10 1
    10    4    6 1
    11    6    7 1
    12    6   36 1
    13    6   37 1
    14    7    8 1
    15    7   38 1
    16    7   39 1
    17    8    9 1
    18    8   15 1
    19    8   10 1
    20   10   11 1
    21   10   30 1
    22   11   12 1
    23   11   40 1
    24   11   41 1
    25   12   13 1
    26   12   42 1
    27   12   43 1
    28   13   14 1
    29   13   20 1
    30   13   15 1
    31   15   16 1
    32   15   17 1
    33   17   18 1
    34   17   44 1
    35   17   45 1
    36   18   19 2
    37   18   46 1
    38   19   25 1
    39   19   20 1
    40   20   21 1
    41   20   29 1
    42   21   22 1
    43   21   47 1
    44   21   48 1
    45   22   23 1
    46   22   49 1
    47   22   50 1
    48   23   24 1
    49   23   25 1
    50   23   26 1
    51   25   51 1
    52   25   52 1
    53   26   27 1
    54   26   28 1
    55   26   68 1
    56   27   53 1
    57   27   54 1
    58   27   55 1
    59   28   56 1
    60   28   57 1
    61   28   58 1
    62   29   59 1
    63   29   60 1
    64   29   61 1
    65   30   31 1
    66   30   62 1
    67   30   63 1
    68   31   32 1
    69   31   67 1
    70   32   64 1
    71   32   65 1
    72   32   66 1
@<TRIPOS>MOLECULE
ZINC03825965
   61    64     0     0     0
SMALL
USER_CHARGES
2-[4-[4-(7-methoxy-1-naphthyl)piperazin-1-yl]butyl]-4-methyl-1,2,4-triazine-3,5-dione
@<TRIPOS>ATOM
      1 C1         -2.0231    1.8137    0.6582 C.3       1 <0>         0.0742
      2 N1         -0.7874    2.5524    0.3867 N.am      1 <0>        -0.5564
      3 C2         -0.8326    3.8813    0.1583 C.2       1 <0>         0.5084
      4 O1         -1.8956    4.4738    0.1762 O.2       1 <0>        -0.4669
      5 C3          0.4140    4.6017   -0.1163 C.2       1 <0>         0.0634
      6 N2          1.5380    3.9407   -0.1287 N.2       1 <0>        -0.1777
      7 N3          1.5393    2.5628    0.1185 N.am      1 <0>        -0.4527
      8 C4          0.3932    1.9057    0.3704 C.2       1 <0>         0.6789
      9 O2          0.4233    0.7087    0.5818 O.2       1 <0>        -0.5327
     10 C5          2.8060    1.8269    0.1029 C.3       1 <0>         0.1443
     11 C6          3.0823    1.3171   -1.3129 C.3       1 <0>        -0.1367
     12 C7          4.4051    0.5485   -1.3292 C.3       1 <0>        -0.1456
     13 C8          4.6814    0.0387   -2.7450 C.3       1 <0>        -0.0029
     14 C9          7.0843    0.1963   -2.4877 C.3       1 <0>        -0.0008
     15 C10         8.3766   -0.6219   -2.4340 C.3       1 <0>         0.0217
     16 N4          8.5611   -1.3257   -3.7108 N.pl3     1 <0>        -0.4829
     17 C11         7.4284   -2.2213   -3.9837 C.3       1 <0>         0.0173
     18 C12         6.1361   -1.4030   -4.0374 C.3       1 <0>         0.0026
     19 C13         9.7664   -2.0260   -3.7256 C.ar      1 <0>         0.0812
     20 C14        10.4947   -2.1813   -2.5657 C.ar      1 <0>        -0.1408
     21 C15        11.6964   -2.8835   -2.5687 C.ar      1 <0>        -0.1158
     22 C16        12.1912   -3.4252   -3.7158 C.ar      1 <0>        -0.0881
     23 C17        11.4824   -3.2847   -4.9213 C.ar      1 <0>        -0.0708
     24 C18        10.2549   -2.5774   -4.9297 C.ar      1 <0>        -0.0049
     25 C19         9.5469   -2.4379   -6.1332 C.ar      1 <0>        -0.1649
     26 C20        10.0499   -2.9838   -7.2801 C.ar      1 <0>         0.1412
     27 C21        11.2610   -3.6818   -7.2702 C.ar      1 <0>        -0.1852
     28 C22        11.9704   -3.8345   -6.1198 C.ar      1 <0>        -0.0583
     29 O3          9.3633   -2.8476   -8.4452 O.3       1 <0>        -0.3171
     30 C23         9.9390   -3.4413   -9.6106 C.3       1 <0>         0.0231
     31 H1         -2.2167    1.8112    1.7308 H         1 <0>         0.0809
     32 H2         -2.8540    2.2926    0.1401 H         1 <0>         0.0986
     33 H3         -1.9180    0.7877    0.3055 H         1 <0>         0.0965
     34 H4          0.4017    5.6648   -0.3060 H         1 <0>         0.2278
     35 H5          3.6143    2.4882    0.4152 H         1 <0>         0.1043
     36 H6          2.7433    0.9812    0.7878 H         1 <0>         0.1061
     37 H7          2.2740    0.6558   -1.6252 H         1 <0>         0.0811
     38 H8          3.1449    2.1627   -1.9978 H         1 <0>         0.0840
     39 H9          5.2134    1.2098   -1.0169 H         1 <0>         0.0927
     40 H10         4.3425   -0.2971   -0.6443 H         1 <0>         0.0923
     41 H11         3.8731   -0.6226   -3.0573 H         1 <0>         0.1313
     42 H12         4.7441    0.8843   -3.4299 H         1 <0>         0.1342
     43 H13         7.1581    0.9411   -3.2801 H         1 <0>         0.1413
     44 H14         6.9304    0.6962   -1.5314 H         1 <0>         0.1384
     45 H15         8.3135   -1.3486   -1.6240 H         1 <0>         0.0709
     46 H16         9.2218    0.0441   -2.2604 H         1 <0>         0.1291
     47 H17         7.3545   -2.9661   -3.1914 H         1 <0>         0.0693
     48 H18         7.5822   -2.7212   -4.9400 H         1 <0>         0.1333
     49 H19         5.2909   -2.0691   -4.2110 H         1 <0>         0.1378
     50 H20         6.1987   -0.6764   -4.8475 H         1 <0>         0.1413
     51 H21        10.1265   -1.7571   -1.6432 H         1 <0>         0.1270
     52 H22        12.2479   -2.9965   -1.6471 H         1 <0>         0.1296
     53 H23        13.1276   -3.9630   -3.6992 H         1 <0>         0.1330
     54 H24         8.6099   -1.9012   -6.1528 H         1 <0>         0.1365
     55 H25        11.6388   -4.1055   -8.1890 H         1 <0>         0.1364
     56 H26        12.9046   -4.3763   -6.1269 H         1 <0>         0.1387
     57 H27         9.2919   -3.2592  -10.4686 H         1 <0>         0.1058
     58 H28        10.9195   -3.0024   -9.7954 H         1 <0>         0.0600
     59 H29        10.0448   -4.5152   -9.4568 H         1 <0>         0.0595
     60 N5          5.9513   -0.7185   -2.7404 N.4       1 <0>        -0.3980
     61 H30         5.9174   -1.4221   -1.9934 H         1 <0>         0.4253
@<TRIPOS>BOND
     1    1    2 1
     2    1   31 1
     3    1   32 1
     4    1   33 1
     5    2    8 am
     6    2    3 am
     7    3    4 2
     8    3    5 1
     9    5    6 2
    10    5   34 1
    11    6    7 1
    12    7    8 am
    13    7   10 1
    14    8    9 2
    15   10   11 1
    16   10   35 1
    17   10   36 1
    18   11   12 1
    19   11   37 1
    20   11   38 1
    21   12   13 1
    22   12   39 1
    23   12   40 1
    24   13   41 1
    25   13   42 1
    26   13   60 1
    27   14   15 1
    28   14   43 1
    29   14   44 1
    30   14   60 1
    31   15   16 1
    32   15   45 1
    33   15   46 1
    34   16   17 1
    35   16   19 1
    36   17   18 1
    37   17   47 1
    38   17   48 1
    39   18   49 1
    40   18   50 1
    41   18   60 1
    42   19   24 ar
    43   19   20 ar
    44   20   21 ar
    45   20   51 1
    46   21   22 ar
    47   21   52 1
    48   22   23 ar
    49   22   53 1
    50   23   28 ar
    51   23   24 ar
    52   24   25 ar
    53   25   26 ar
    54   25   54 1
    55   26   27 ar
    56   26   29 1
    57   27   28 ar
    58   27   55 1
    59   28   56 1
    60   29   30 1
    61   30   57 1
    62   30   58 1
    63   30   59 1
    64   60   61 1
@<TRIPOS>MOLECULE
ZINC13108134
   45    47     0     0     0
SMALL
USER_CHARGES

@<TRIPOS>ATOM
      1 C1         -0.0199    1.3395    0.0024 C.2       1 <0>         0.0064
      2 C2          1.2554    1.7720   -0.0081 C.2       1 <0>         0.0672
      3 N1          2.0511    0.6584   -0.0267 N.pl3     1 <0>        -0.5106
      4 H1          3.0210    0.6441   -0.0376 H         1 <0>         0.4636
      5 C3          1.2338   -0.4166   -0.0268 C.cat     1 <0>         0.3070
      6 N2         -0.0033   -0.0016   -0.0094 N.pl3     1 <0>        -0.4716
      7 C4          1.7176    3.2064   -0.0013 C.3       1 <0>        -0.0300
      8 C5          1.9762    3.6655   -1.4382 C.3       1 <0>        -0.1277
      9 C6          2.4124    5.1340   -1.4300 C.3       1 <0>         0.1020
     10 N3          3.5670    5.2793   -0.5331 N.pl3     1 <0>        -0.5817
     11 C7          3.4561    4.7869    0.8468 C.3       1 <0>         0.0974
     12 C8          3.0081    3.3223    0.8131 C.3       1 <0>        -0.1362
     13 C9          4.7065    5.8530   -0.9679 C.2       1 <0>         0.5634
     14 S1          4.8665    6.2992   -2.6130 S.2       1 <0>        -0.6245
     15 N4          5.7199    6.0755   -0.1077 N.pl3     1 <0>        -0.6784
     16 C10         6.9143    6.7970   -0.5537 C.3       1 <0>         0.1390
     17 C11         6.6752    8.3033   -0.4326 C.3       1 <0>        -0.1253
     18 C12         7.9226    9.0568   -0.8984 C.3       1 <0>        -0.1161
     19 C13         9.1147    8.6579   -0.0263 C.3       1 <0>        -0.1249
     20 C14         9.3539    7.1516   -0.1474 C.3       1 <0>        -0.1154
     21 C15         8.1064    6.3981    0.3184 C.3       1 <0>        -0.1258
     22 H2         -0.9014    1.9632    0.0217 H         1 <0>         0.2255
     23 H3          1.5514   -1.4488   -0.0393 H         1 <0>         0.2669
     24 H4          0.9475    3.8339    0.4472 H         1 <0>         0.1243
     25 H5          2.7637    3.0545   -1.8792 H         1 <0>         0.0764
     26 H6          1.0627    3.5607   -2.0236 H         1 <0>         0.0957
     27 H7          2.6928    5.4375   -2.4387 H         1 <0>         0.1389
     28 H8          1.5921    5.7569   -1.0735 H         1 <0>         0.0852
     29 H9          4.4251    4.8614    1.3403 H         1 <0>         0.0880
     30 H10         2.7209    5.3815    1.3889 H         1 <0>         0.0928
     31 H11         2.8291    2.9732    1.8300 H         1 <0>         0.0932
     32 H12         3.7859    2.7145    0.3508 H         1 <0>         0.0723
     33 H13         5.6583    5.7578    0.8068 H         1 <0>         0.3933
     34 H14         7.1241    6.5448   -1.5932 H         1 <0>         0.1206
     35 H15         5.8259    8.5875   -1.0539 H         1 <0>         0.0770
     36 H16         6.4654    8.5554    0.6069 H         1 <0>         0.0591
     37 H17         8.1324    8.8047   -1.9379 H         1 <0>         0.0705
     38 H18         7.7522   10.1300   -0.8121 H         1 <0>         0.0692
     39 H19        10.0034    9.1947   -0.3581 H         1 <0>         0.0689
     40 H20         8.9050    8.9101    1.0132 H         1 <0>         0.0622
     41 H21         9.5637    6.8995   -1.1869 H         1 <0>         0.0699
     42 H22        10.2032    6.8674    0.4739 H         1 <0>         0.0708
     43 H23         7.8967    6.6502    1.3579 H         1 <0>         0.0660
     44 H24         8.2768    5.3249    0.2321 H         1 <0>         0.0672
     45 H25        -0.7872   -0.5729   -0.0051 H         1 <0>         0.4684
@<TRIPOS>BOND
     1    1    6 1
     2    1    2 2
     3    1   22 1
     4    2    3 1
     5    2    7 1
     6    3    4 1
     7    3    5 1
     8    5    6 2
     9    5   23 1
    10    6   45 1
    11    7   12 1
    12    7    8 1
    13    7   24 1
    14    8    9 1
    15    8   25 1
    16    8   26 1
    17    9   10 1
    18    9   27 1
    19    9   28 1
    20   10   11 1
    21   10   13 1
    22   11   12 1
    23   11   29 1
    24   11   30 1
    25   12   31 1
    26   12   32 1
    27   13   14 2
    28   13   15 1
    29   15   16 1
    30   15   33 1
    31   16   21 1
    32   16   17 1
    33   16   34 1
    34   17   18 1
    35   17   35 1
    36   17   36 1
    37   18   19 1
    38   18   37 1
    39   18   38 1
    40   19   20 1
    41   19   39 1
    42   19   40 1
    43   20   21 1
    44   20   41 1
    45   20   42 1
    46   21   43 1
    47   21   44 1
@<TRIPOS>MOLECULE
ZINC13108134
   45    47     0     0     0
SMALL
USER_CHARGES

@<TRIPOS>ATOM
      1 C1         -0.0111    1.3583    0.0120 C.2       1 <0>         0.0383
      2 C2          1.2720    1.7671    0.0013 C.2       1 <0>         0.0369
      3 N1          2.0544    0.6778   -0.0124 N.pl3     1 <0>        -0.4750
      4 C3          1.3050   -0.3905   -0.0106 C.cat     1 <0>         0.3075
      5 N2          0.0092   -0.0103    0.0045 N.pl3     1 <0>        -0.5077
      6 H1         -0.7629   -0.5975    0.0094 H         1 <0>         0.4689
      7 C4          1.7456    3.1978    0.0042 C.3       1 <0>        -0.0302
      8 C5          2.0381    3.6351    1.4413 C.3       1 <0>        -0.1285
      9 C6          2.4861    5.1000    1.4439 C.3       1 <0>         0.1035
     10 N3          3.6227    5.2486    0.5247 N.pl3     1 <0>        -0.5814
     11 C7          3.4787    4.7761   -0.8590 C.3       1 <0>         0.0976
     12 C8          3.0196    3.3147   -0.8357 C.3       1 <0>        -0.1373
     13 C9          4.7754    5.8081    0.9429 C.2       1 <0>         0.5626
     14 S1          4.8832    6.4711    2.5176 S.2       1 <0>        -0.6224
     15 N4          5.8431    5.8456    0.1213 N.pl3     1 <0>        -0.6791
     16 C10         7.1274    6.3518    0.6118 C.3       1 <0>         0.1383
     17 C11         7.8881    5.2222    1.3092 C.3       1 <0>        -0.1224
     18 C12         9.2293    5.7510    1.8215 C.3       1 <0>        -0.1165
     19 C13        10.0558    6.2713    0.6438 C.3       1 <0>        -0.1242
     20 C14         9.2951    7.4009   -0.0536 C.3       1 <0>        -0.1161
     21 C15         7.9539    6.8722   -0.5659 C.3       1 <0>        -0.1265
     22 H2         -0.8877    1.9890    0.0282 H         1 <0>         0.2279
     23 H3          1.6618   -1.4098   -0.0202 H         1 <0>         0.2669
     24 H4          0.9714    3.8375   -0.4194 H         1 <0>         0.1239
     25 H5          1.1364    3.5294    2.0444 H         1 <0>         0.0962
     26 H6          2.8297    3.0118    1.8573 H         1 <0>         0.0744
     27 H7          1.6635    5.7343    1.1133 H         1 <0>         0.0859
     28 H8          2.7901    5.3874    2.4504 H         1 <0>         0.1371
     29 H9          2.7371    5.3839   -1.3773 H         1 <0>         0.0936
     30 H10         4.4376    4.8497   -1.3719 H         1 <0>         0.0879
     31 H11         3.8019    2.6945   -0.3983 H         1 <0>         0.0712
     32 H12         2.8164    2.9810   -1.8533 H         1 <0>         0.0934
     33 H13         5.7612    5.5374   -0.7948 H         1 <0>         0.3930
     34 H14         6.9521    7.1625    1.3191 H         1 <0>         0.1214
     35 H15         7.2992    4.8515    2.1482 H         1 <0>         0.0749
     36 H16         8.0633    4.4115    0.6020 H         1 <0>         0.0564
     37 H17         9.0540    6.5617    2.5287 H         1 <0>         0.0714
     38 H18         9.7712    4.9462    2.3183 H         1 <0>         0.0679
     39 H19        11.0113    6.6480    1.0087 H         1 <0>         0.0690
     40 H20        10.2310    5.4606   -0.0635 H         1 <0>         0.0612
     41 H21         9.1199    8.2116    0.6536 H         1 <0>         0.0709
     42 H22         9.8839    7.7716   -0.8926 H         1 <0>         0.0714
     43 H23         8.1291    6.0615   -1.2731 H         1 <0>         0.0649
     44 H24         7.4119    7.6769   -1.0627 H         1 <0>         0.0700
     45 H25         3.0244    0.6833   -0.0225 H         1 <0>         0.4628
@<TRIPOS>BOND
     1    1    5 1
     2    1    2 2
     3    1   22 1
     4    2    3 1
     5    2    7 1
     6    3    4 2
     7    3   45 1
     8    4    5 1
     9    4   23 1
    10    5    6 1
    11    7   12 1
    12    7    8 1
    13    7   24 1
    14    8    9 1
    15    8   25 1
    16    8   26 1
    17    9   10 1
    18    9   27 1
    19    9   28 1
    20   10   11 1
    21   10   13 1
    22   11   12 1
    23   11   29 1
    24   11   30 1
    25   12   31 1
    26   12   32 1
    27   13   14 2
    28   13   15 1
    29   15   16 1
    30   15   33 1
    31   16   21 1
    32   16   17 1
    33   16   34 1
    34   17   18 1
    35   17   35 1
    36   17   36 1
    37   18   19 1
    38   18   37 1
    39   18   38 1
    40   19   20 1
    41   19   39 1
    42   19   40 1
    43   20   21 1
    44   20   41 1
    45   20   42 1
    46   21   43 1
    47   21   44 1
@<TRIPOS>MOLECULE
ZINC13108134
   44    46     0     0     0
SMALL
USER_CHARGES

@<TRIPOS>ATOM
      1 C1         -0.0228    1.3648    0.0142 C.2       1 <0>        -0.0496
      2 C2          1.2612    1.7707    0.0029 C.2       1 <0>         0.0065
      3 N1          2.0412    0.6796   -0.0102 N.2       1 <0>        -0.4899
      4 C3          1.2893   -0.3870   -0.0075 C.2       1 <0>         0.1866
      5 N2         -0.0055   -0.0039    0.0076 N.pl3     1 <0>        -0.5696
      6 H1         -0.7790   -0.5893    0.0131 H         1 <0>         0.4218
      7 C4          1.7382    3.2002    0.0047 C.3       1 <0>        -0.0028
      8 C5          0.7707    4.0615   -0.8104 C.3       1 <0>        -0.1243
      9 C6          1.2771    5.5071   -0.8353 C.3       1 <0>         0.1037
     10 N3          1.4729    5.9634    0.5475 N.pl3     1 <0>        -0.5686
     11 C7          2.3131    5.1586    1.4448 C.3       1 <0>         0.0956
     12 C8          1.7950    3.7169    1.4441 C.3       1 <0>        -0.1204
     13 C9          0.8931    7.0990    0.9844 C.2       1 <0>         0.5693
     14 S1          0.0257    8.0922   -0.1074 S.2       1 <0>        -0.6496
     15 N4          0.9963    7.4526    2.2809 N.pl3     1 <0>        -0.6848
     16 C10         0.2746    8.6259    2.7797 C.3       1 <0>         0.1416
     17 C11        -1.1535    8.2249    3.1547 C.3       1 <0>        -0.1252
     18 C12        -1.9071    9.4502    3.6757 C.3       1 <0>        -0.1150
     19 C13        -1.1916   10.0022    4.9103 C.3       1 <0>        -0.1234
     20 C14         0.2365   10.4032    4.5354 C.3       1 <0>        -0.1144
     21 C15         0.9902    9.1778    4.0144 C.3       1 <0>        -0.1272
     22 H2         -0.8979    1.9976    0.0302 H         1 <0>         0.1742
     23 H3          1.6439   -1.4071   -0.0165 H         1 <0>         0.2086
     24 H4          2.7323    3.2519   -0.4392 H         1 <0>         0.0883
     25 H5          0.7129    3.6787   -1.8294 H         1 <0>         0.0864
     26 H6         -0.2181    4.0302   -0.3529 H         1 <0>         0.0707
     27 H7          2.2242    5.5533   -1.3729 H         1 <0>         0.0798
     28 H8          0.5427    6.1431   -1.3295 H         1 <0>         0.1295
     29 H9          3.3446    5.1764    1.0931 H         1 <0>         0.0876
     30 H10         2.2621    5.5647    2.4550 H         1 <0>         0.0788
     31 H11         0.7966    3.6889    1.8804 H         1 <0>         0.0695
     32 H12         2.4663    3.0889    2.0298 H         1 <0>         0.0845
     33 H13         1.5484    6.9303    2.8836 H         1 <0>         0.3942
     34 H14         0.2454    9.3913    2.0043 H         1 <0>         0.1192
     35 H15        -1.6632    7.8317    2.2751 H         1 <0>         0.0770
     36 H16        -1.1242    7.4595    3.9302 H         1 <0>         0.0572
     37 H17        -1.9364   10.2156    2.9002 H         1 <0>         0.0698
     38 H18        -2.9246    9.1645    3.9428 H         1 <0>         0.0659
     39 H19        -1.7285   10.8751    5.2815 H         1 <0>         0.0658
     40 H20        -1.1624    9.2368    5.6858 H         1 <0>         0.0609
     41 H21         0.2072   11.1686    3.7599 H         1 <0>         0.0693
     42 H22         0.7463   10.7964    5.4149 H         1 <0>         0.0685
     43 H23         1.0194    8.4124    4.7898 H         1 <0>         0.0650
     44 H24         2.0076    9.4635    3.7473 H         1 <0>         0.0690
@<TRIPOS>BOND
     1    1    5 1
     2    1    2 2
     3    1   22 1
     4    2    3 1
     5    2    7 1
     6    3    4 2
     7    4    5 1
     8    4   23 1
     9    5    6 1
    10    7   12 1
    11    7    8 1
    12    7   24 1
    13    8    9 1
    14    8   25 1
    15    8   26 1
    16    9   10 1
    17    9   27 1
    18    9   28 1
    19   10   11 1
    20   10   13 1
    21   11   12 1
    22   11   29 1
    23   11   30 1
    24   12   31 1
    25   12   32 1
    26   13   14 2
    27   13   15 1
    28   15   16 1
    29   15   33 1
    30   16   21 1
    31   16   17 1
    32   16   34 1
    33   17   18 1
    34   17   35 1
    35   17   36 1
    36   18   19 1
    37   18   37 1
    38   18   38 1
    39   19   20 1
    40   19   39 1
    41   19   40 1
    42   20   21 1
    43   20   41 1
    44   20   42 1
    45   21   43 1
    46   21   44 1
@<TRIPOS>MOLECULE
ZINC13108134
   44    46     0     0     0
SMALL
USER_CHARGES

@<TRIPOS>ATOM
      1 C1         -0.0123    1.3344    0.0219 C.2       1 <0>        -0.0175
      2 C2          1.2619    1.7699    0.0072 C.2       1 <0>        -0.0222
      3 N1          2.0603    0.6581   -0.0070 N.pl3     1 <0>        -0.5669
      4 H1          3.0301    0.6461   -0.0194 H         1 <0>         0.4194
      5 C3          1.2456   -0.4188   -0.0005 C.2       1 <0>         0.1870
      6 N2          0.0075   -0.0067    0.0168 N.2       1 <0>        -0.4926
      7 C4          1.7207    3.2054    0.0062 C.3       1 <0>        -0.0100
      8 C5          1.7765    3.7238    1.4450 C.3       1 <0>        -0.1233
      9 C6          2.2762    5.1720    1.4427 C.3       1 <0>         0.1024
     10 N3          1.4225    5.9654    0.5481 N.pl3     1 <0>        -0.5710
     11 C7          1.2272    5.5055   -0.8337 C.3       1 <0>         0.0963
     12 C8          0.7393    4.0537   -0.8058 C.3       1 <0>        -0.1223
     13 C9          0.8294    7.0934    0.9867 C.2       1 <0>         0.5692
     14 S1          0.9576    7.5432    2.6335 S.2       1 <0>        -0.6448
     15 N4          0.1353    7.8672    0.1288 N.pl3     1 <0>        -0.6833
     16 C10        -0.4165    9.1473    0.5793 C.3       1 <0>         0.1411
     17 C11         0.6546   10.2336    0.4630 C.3       1 <0>        -0.1255
     18 C12         0.0782   11.5706    0.9334 C.3       1 <0>        -0.1151
     19 C13        -1.1227   11.9432    0.0618 C.3       1 <0>        -0.1235
     20 C14        -2.1939   10.8569    0.1780 C.3       1 <0>        -0.1145
     21 C15        -1.6175    9.5199   -0.2924 C.3       1 <0>        -0.1270
     22 H2         -0.8953    1.9560    0.0395 H         1 <0>         0.1658
     23 H3          1.5656   -1.4503   -0.0084 H         1 <0>         0.2090
     24 H4          2.7125    3.2693   -0.4414 H         1 <0>         0.0804
     25 H5          0.7802    3.6835    1.8852 H         1 <0>         0.0788
     26 H6          2.4579    3.1048    2.0286 H         1 <0>         0.0820
     27 H7          2.2241    5.5781    2.4528 H         1 <0>         0.1325
     28 H8          3.3062    5.2026    1.0871 H         1 <0>         0.0770
     29 H9          0.4829    6.1318   -1.3255 H         1 <0>         0.0822
     30 H10         2.1716    5.5633   -1.3749 H         1 <0>         0.0854
     31 H11         0.6824    3.6694   -1.8242 H         1 <0>         0.0876
     32 H12        -0.2473    4.0102   -0.3444 H         1 <0>         0.0791
     33 H13         0.0012    7.5765   -0.7868 H         1 <0>         0.3942
     34 H14        -0.7346    9.0604    1.6182 H         1 <0>         0.1194
     35 H15         1.5102    9.9682    1.0840 H         1 <0>         0.0770
     36 H16         0.9727   10.3205   -0.5759 H         1 <0>         0.0577
     37 H17        -0.2399   11.4837    1.9723 H         1 <0>         0.0698
     38 H18         0.8413   12.3445    0.8506 H         1 <0>         0.0664
     39 H19        -1.5333   12.8957    0.3969 H         1 <0>         0.0661
     40 H20        -0.8046   12.0301   -0.9771 H         1 <0>         0.0612
     41 H21        -2.5120   10.7700    1.2170 H         1 <0>         0.0693
     42 H22        -3.0495   11.1223   -0.4429 H         1 <0>         0.0688
     43 H23        -1.2994    9.6068   -1.3313 H         1 <0>         0.0653
     44 H24        -2.3806    8.7460   -0.2096 H         1 <0>         0.0691
@<TRIPOS>BOND
     1    1    6 1
     2    1    2 2
     3    1   22 1
     4    2    3 1
     5    2    7 1
     6    3    4 1
     7    3    5 1
     8    5    6 2
     9    5   23 1
    10    7   12 1
    11    7    8 1
    12    7   24 1
    13    8    9 1
    14    8   25 1
    15    8   26 1
    16    9   10 1
    17    9   27 1
    18    9   28 1
    19   10   11 1
    20   10   13 1
    21   11   12 1
    22   11   29 1
    23   11   30 1
    24   12   31 1
    25   12   32 1
    26   13   14 2
    27   13   15 1
    28   15   16 1
    29   15   33 1
    30   16   21 1
    31   16   17 1
    32   16   34 1
    33   17   18 1
    34   17   35 1
    35   17   36 1
    36   18   19 1
    37   18   37 1
    38   18   38 1
    39   19   20 1
    40   19   39 1
    41   19   40 1
    42   20   21 1
    43   20   41 1
    44   20   42 1
    45   21   43 1
    46   21   44 1
@<TRIPOS>MOLECULE
ZINC13209604
   21    21     0     0     0
SMALL
USER_CHARGES

@<TRIPOS>ATOM
      1 C1         -0.0184    1.5028    0.0103 C.3       1 <0>        -0.0894
      2 C2          0.0021   -0.0041    0.0020 C.2       1 <0>        -0.0009
      3 C3          0.0081   -0.8009   -1.0836 C.2       1 <0>        -0.0270
      4 N1          0.0272   -2.0745   -0.6635 N.2       1 <0>        -0.4861
      5 C4          0.0333   -2.0972    0.6413 C.2       1 <0>         0.2050
      6 N2          0.0241   -0.8258    1.0965 N.pl3     1 <0>        -0.5619
      7 H1          0.0299   -0.5470    2.0255 H         1 <0>         0.4283
      8 C5         -0.0046   -0.3419   -2.5190 C.3       1 <0>        -0.0544
      9 C6          1.4335   -0.1671   -3.0112 C.3       1 <0>        -0.0045
     10 N3          1.4212    0.2803   -4.4104 N.4       1 <0>        -0.6372
     11 H2          1.0042    1.8801    0.0026 H         1 <0>         0.0782
     12 H3         -0.5455    1.8639   -0.8728 H         1 <0>         0.0832
     13 H4         -0.5286    1.8543    0.9071 H         1 <0>         0.0754
     14 H5          0.0476   -2.9856    1.2553 H         1 <0>         0.2166
     15 H6         -0.5111   -1.0859   -3.1339 H         1 <0>         0.1005
     16 H7         -0.5317    0.6093   -2.5917 H         1 <0>         0.0962
     17 H8          1.9400    0.5769   -2.3963 H         1 <0>         0.1320
     18 H9          1.9606   -1.1183   -2.9385 H         1 <0>         0.1363
     19 H10         0.9523   -0.4084   -4.9796 H         1 <0>         0.4366
     20 H11         0.9332    1.1609   -4.4777 H         1 <0>         0.4344
     21 H12         2.3696    0.3956   -4.7350 H         1 <0>         0.4389
@<TRIPOS>BOND
     1    1    2 1
     2    1   11 1
     3    1   12 1
     4    1   13 1
     5    2    6 1
     6    2    3 2
     7    3    4 1
     8    3    8 1
     9    4    5 2
    10    5    6 1
    11    5   14 1
    12    6    7 1
    13    8    9 1
    14    8   15 1
    15    8   16 1
    16    9   10 1
    17    9   17 1
    18    9   18 1
    19   10   19 1
    20   10   20 1
    21   10   21 1
@<TRIPOS>MOLECULE
ZINC13209604
   22    22     0     0     0
SMALL
USER_CHARGES

@<TRIPOS>ATOM
      1 C1         -0.0184    1.5028    0.0103 C.3       1 <0>        -0.1139
      2 C2          0.0021   -0.0041    0.0020 C.2       1 <0>         0.0951
      3 C3          0.0081   -0.8009   -1.0836 C.2       1 <0>        -0.0074
      4 N1          0.0272   -2.0745   -0.6635 N.pl3     1 <0>        -0.4730
      5 C4          0.0333   -2.0972    0.6413 C.cat     1 <0>         0.3351
      6 N2          0.0241   -0.8258    1.0965 N.pl3     1 <0>        -0.5099
      7 H1          0.0299   -0.5470    2.0255 H         1 <0>         0.4730
      8 C5         -0.0046   -0.3419   -2.5190 C.3       1 <0>        -0.0839
      9 C6          1.4265   -0.0474   -2.9729 C.3       1 <0>        -0.0089
     10 N3          1.4142    0.4000   -4.3721 N.4       1 <0>        -0.6373
     11 H2          1.0042    1.8801    0.0026 H         1 <0>         0.1092
     12 H3         -0.5455    1.8639   -0.8728 H         1 <0>         0.1082
     13 H4         -0.5286    1.8543    0.9071 H         1 <0>         0.1050
     14 H5          0.0476   -2.9856    1.2553 H         1 <0>         0.2746
     15 H6         -0.4311   -1.1243   -3.1468 H         1 <0>         0.1201
     16 H7         -0.6068    0.5624   -2.6060 H         1 <0>         0.1322
     17 H8          1.8531    0.7349   -2.3451 H         1 <0>         0.1434
     18 H9          2.0287   -0.9518   -2.8859 H         1 <0>         0.1385
     19 H10         1.0194   -0.3242   -4.9532 H         1 <0>         0.4408
     20 H11         0.8568    1.2371   -4.4526 H         1 <0>         0.4418
     21 H12         2.3580    0.5942   -4.6714 H         1 <0>         0.4497
     22 H13         0.0350   -2.8555   -1.2387 H         1 <0>         0.4676
@<TRIPOS>BOND
     1    1    2 1
     2    1   11 1
     3    1   12 1
     4    1   13 1
     5    2    6 1
     6    2    3 2
     7    3    4 1
     8    3    8 1
     9    4    5 2
    10    4   22 1
    11    5    6 1
    12    5   14 1
    13    6    7 1
    14    8    9 1
    15    8   15 1
    16    8   16 1
    17    9   10 1
    18    9   17 1
    19    9   18 1
    20   10   19 1
    21   10   20 1
    22   10   21 1
@<TRIPOS>MOLECULE
ZINC00005099
   22    22     0     0     0
SMALL
USER_CHARGES

@<TRIPOS>ATOM
      1 C1         -0.0184    1.5028    0.0103 C.3       1 <0>        -0.0921
      2 C2          0.0021   -0.0041    0.0020 C.2       1 <0>         0.1547
      3 C3          0.0059   -0.7050   -1.1571 C.2       1 <0>        -0.3048
      4 S1          0.0324   -2.3782   -0.5350 S.3       1 <0>         0.0955
      5 C4          0.0358   -2.0159    1.1085 C.2       1 <0>         0.3478
      6 N1          0.0227   -0.7000    1.1252 N.2       1 <0>        -0.5972
      7 N2          0.0535   -2.8908    2.1834 N.pl3     1 <0>        -0.7914
      8 C5         -0.0088   -0.2089   -2.5800 C.3       1 <0>        -0.0329
      9 C6          1.4286   -0.0205   -3.0693 C.3       1 <0>        -0.0102
     10 N3          1.4143    0.4630   -4.4563 N.4       1 <0>        -0.6377
     11 H1          1.0042    1.8801    0.0026 H         1 <0>         0.0797
     12 H2         -0.5455    1.8639   -0.8728 H         1 <0>         0.0753
     13 H3         -0.5286    1.8543    0.9071 H         1 <0>         0.0832
     14 H4          0.0660   -3.8484    2.0292 H         1 <0>         0.4251
     15 H5          0.0534   -2.5455    3.0899 H         1 <0>         0.4216
     16 H6         -0.5157   -0.9370   -3.2134 H         1 <0>         0.0969
     17 H7         -0.5365    0.7436   -2.6273 H         1 <0>         0.1048
     18 H8          1.9355    0.7075   -2.4359 H         1 <0>         0.1363
     19 H9          1.9563   -0.9731   -3.0220 H         1 <0>         0.1346
     20 H10         0.9451   -0.2109   -5.0426 H         1 <0>         0.4356
     21 H11         0.9258    1.3448   -4.5001 H         1 <0>         0.4358
     22 H12         2.3623    0.5872   -4.7790 H         1 <0>         0.4396
@<TRIPOS>BOND
     1    1    2 1
     2    1   11 1
     3    1   12 1
     4    1   13 1
     5    2    6 1
     6    2    3 2
     7    3    4 1
     8    3    8 1
     9    4    5 1
    10    5    6 2
    11    5    7 1
    12    7   14 1
    13    7   15 1
    14    8    9 1
    15    8   16 1
    16    8   17 1
    17    9   10 1
    18    9   18 1
    19    9   19 1
    20   10   20 1
    21   10   21 1
    22   10   22 1
@<TRIPOS>MOLECULE
ZINC18115268
   34    34     0     0     0
SMALL
USER_CHARGES

@<TRIPOS>ATOM
      1 C1         -0.3629    1.0560   -0.1349 C.3       1 <0>        -0.1036
      2 C2         -0.1550   -0.4364   -0.1547 C.2       1 <0>         0.0580
      3 C3          0.0009   -1.1992   -1.2535 C.2       1 <0>         0.0666
      4 N1          0.1608   -2.4881   -0.8215 N.pl3     1 <0>        -0.5024
      5 H1          0.2949   -3.2699   -1.3798 H         1 <0>         0.4668
      6 C4          0.0971   -2.4681    0.5273 C.cat     1 <0>         0.3137
      7 N2         -0.0870   -1.2371    0.9193 N.pl3     1 <0>        -0.4748
      8 C5         -0.0009   -0.7249   -2.6840 C.3       1 <0>        -0.0410
      9 S1          1.6905   -0.2985   -3.1818 S.3       1 <0>        -0.2282
     10 C6          1.5172    0.2459   -4.9034 C.3       1 <0>        -0.0782
     11 C7          2.8890    0.6405   -5.4541 C.3       1 <0>         0.0964
     12 N3          2.7491    1.0802   -6.8446 N.2       1 <0>        -0.6376
     13 C8          3.0396    2.3068   -7.1721 C.2       1 <0>         0.6398
     14 N4          3.5990    3.1521   -6.2434 N.pl3     1 <0>        -0.7604
     15 C9          3.8383    4.5572   -6.5822 C.3       1 <0>         0.0590
     16 N5          2.7859    2.7579   -8.4509 N.pl3     1 <0>        -0.5838
     17 C10         3.0882    4.0340   -8.7917 C.1       1 <0>         0.4132
     18 N6          3.3416    5.1039   -9.0773 N.1       1 <0>        -0.3936
     19 H2          0.6040    1.5570   -0.0889 H         1 <0>         0.1071
     20 H3         -0.8879    1.3618   -1.0399 H         1 <0>         0.1047
     21 H4         -0.9554    1.3288    0.7385 H         1 <0>         0.0943
     22 H5          0.1875   -3.3279    1.1746 H         1 <0>         0.2697
     23 H6         -0.3807   -1.5173   -3.3290 H         1 <0>         0.1154
     24 H7         -0.6389    0.1542   -2.7744 H         1 <0>         0.1270
     25 H8          1.1056   -0.5669   -5.5018 H         1 <0>         0.0990
     26 H9          0.8473    1.1047   -4.9473 H         1 <0>         0.0871
     27 H10         3.3006    1.4533   -4.8557 H         1 <0>         0.0432
     28 H11         3.5589   -0.2183   -5.4103 H         1 <0>         0.0879
     29 H12         3.8352    2.8182   -5.3639 H         1 <0>         0.4165
     30 H13         4.5166    4.6152   -7.4334 H         1 <0>         0.0688
     31 H14         2.8928    5.0354   -6.8378 H         1 <0>         0.0641
     32 H15         4.2836    5.0662   -5.7274 H         1 <0>         0.0859
     33 H16         2.3912    2.1614   -9.1062 H         1 <0>         0.4524
     34 H17        -0.1643   -0.9470    1.8417 H         1 <0>         0.4666
@<TRIPOS>BOND
     1    1    2 1
     2    1   19 1
     3    1   20 1
     4    1   21 1
     5    2    7 1
     6    2    3 2
     7    3    4 1
     8    3    8 1
     9    4    5 1
    10    4    6 1
    11    6    7 2
    12    6   22 1
    13    7   34 1
    14    8    9 1
    15    8   23 1
    16    8   24 1
    17    9   10 1
    18   10   11 1
    19   10   25 1
    20   10   26 1
    21   11   12 1
    22   11   27 1
    23   11   28 1
    24   12   13 2
    25   13   14 1
    26   13   16 1
    27   14   15 1
    28   14   29 1
    29   15   30 1
    30   15   31 1
    31   15   32 1
    32   16   17 1
    33   16   33 1
    34   17   18 3
@<TRIPOS>MOLECULE
ZINC18115268
   33    33     0     0     0
SMALL
USER_CHARGES

@<TRIPOS>ATOM
      1 C1         -0.2305    1.5570   -0.1028 C.3       1 <0>        -0.0822
      2 C2         -0.2654    0.0506   -0.1299 C.2       1 <0>         0.0050
      3 C3         -0.2570   -0.7330   -1.2251 C.2       1 <0>         0.0057
      4 N1         -0.2971   -2.0113   -0.8210 N.2       1 <0>        -0.4773
      5 C4         -0.3301   -2.0496    0.4830 C.2       1 <0>         0.1913
      6 N2         -0.3058   -0.7843    0.9540 N.pl3     1 <0>        -0.5667
      7 H1         -0.3170   -0.5169    1.8864 H         1 <0>         0.4225
      8 C5         -0.2106   -0.2570   -2.6543 C.3       1 <0>         0.0062
      9 S1          1.5173   -0.1064   -3.1856 S.3       1 <0>        -0.2230
     10 C6          1.4000    0.4680   -4.9023 C.3       1 <0>        -0.1129
     11 C7          2.8064    0.6390   -5.4800 C.3       1 <0>         0.1314
     12 N3          2.7117    1.1029   -6.8664 N.pl3     1 <0>        -0.6985
     13 C8          3.8480    1.3270   -7.5908 C.2       1 <0>         0.6908
     14 N4          3.7625    1.7454   -8.8414 N.2       1 <0>        -0.5826
     15 C9          4.8834    2.0997   -9.5153 C.1       1 <0>         0.3981
     16 N5          5.8231    2.3968  -10.0803 N.1       1 <0>        -0.4876
     17 N6          5.0725    1.1185   -7.0225 N.pl3     1 <0>        -0.7463
     18 C10         6.2909    1.4480   -7.7662 C.3       1 <0>         0.0701
     19 H2          0.8051    1.8960   -0.0762 H         1 <0>         0.0804
     20 H3         -0.7179    1.9478   -0.9960 H         1 <0>         0.0830
     21 H4         -0.7535    1.9166    0.7833 H         1 <0>         0.0677
     22 H5         -0.3667   -2.9451    1.0857 H         1 <0>         0.2123
     23 H6         -0.7260   -0.9743   -3.2930 H         1 <0>         0.0969
     24 H7         -0.6999    0.7140   -2.7299 H         1 <0>         0.0942
     25 H8          0.8508   -0.2646   -5.4938 H         1 <0>         0.0954
     26 H9          0.8769    1.4238   -4.9307 H         1 <0>         0.0946
     27 H10         3.3556    1.3715   -4.8885 H         1 <0>         0.0824
     28 H11         3.3296   -0.3168   -5.4517 H         1 <0>         0.0819
     29 H12         1.8421    1.2509   -7.2700 H         1 <0>         0.4280
     30 H13         5.1354    0.7523   -6.1265 H         1 <0>         0.4038
     31 H14         6.3245    0.8638   -8.6858 H         1 <0>         0.0743
     32 H15         6.2914    2.5103   -8.0104 H         1 <0>         0.0740
     33 H16         7.1634    1.2152   -7.1557 H         1 <0>         0.0873
@<TRIPOS>BOND
     1    1    2 1
     2    1   19 1
     3    1   20 1
     4    1   21 1
     5    2    6 1
     6    2    3 2
     7    3    4 1
     8    3    8 1
     9    4    5 2
    10    5    6 1
    11    5   22 1
    12    6    7 1
    13    8    9 1
    14    8   23 1
    15    8   24 1
    16    9   10 1
    17   10   11 1
    18   10   25 1
    19   10   26 1
    20   11   12 1
    21   11   27 1
    22   11   28 1
    23   12   13 1
    24   12   29 1
    25   13   14 2
    26   13   17 1
    27   14   15 1
    28   15   16 3
    29   17   18 1
    30   17   30 1
    31   18   31 1
    32   18   32 1
    33   18   33 1
@<TRIPOS>MOLECULE
ZINC18115268
   34    34     0     0     0
SMALL
USER_CHARGES

@<TRIPOS>ATOM
      1 C1         -0.0365    1.5010    0.0011 C.3       1 <0>        -0.1052
      2 C2         -0.0079   -0.0057   -0.0034 C.2       1 <0>         0.0925
      3 C3          0.0049   -0.8052   -1.0870 C.2       1 <0>         0.0314
      4 N1          0.0299   -2.0776   -0.6636 N.pl3     1 <0>        -0.4669
      5 C4          0.0331   -2.0970    0.6412 C.cat     1 <0>         0.3162
      6 N2          0.0160   -0.8246    1.0932 N.pl3     1 <0>        -0.5108
      7 H1          0.0181   -0.5434    2.0216 H         1 <0>         0.4678
      8 C5         -0.0069   -0.3499   -2.5235 C.3       1 <0>        -0.0419
      9 S1          1.6984   -0.1349   -3.1036 S.3       1 <0>        -0.2063
     10 C6          1.5114    0.4074   -4.8246 C.3       1 <0>        -0.1038
     11 C7          2.8934    0.6285   -5.4426 C.3       1 <0>         0.1227
     12 N3          2.7424    1.0664   -6.8325 N.pl3     1 <0>        -0.7533
     13 C8          3.8492    1.4270   -7.5637 C.2       1 <0>         0.6166
     14 N4          3.7071    1.9124   -8.7639 N.2       1 <0>        -0.6267
     15 C9          2.3670    2.1805   -9.2916 C.3       1 <0>         0.0422
     16 N5          5.1106    1.2747   -7.0262 N.pl3     1 <0>        -0.5926
     17 C10         6.2016    1.6301   -7.7469 C.1       1 <0>         0.4286
     18 N6          7.1163    1.9281   -8.3511 N.1       1 <0>        -0.3878
     19 H2          0.9841    1.8838   -0.0052 H         1 <0>         0.1105
     20 H3         -0.5635    1.8571   -0.8841 H         1 <0>         0.1067
     21 H4         -0.5506    1.8520    0.8958 H         1 <0>         0.0966
     22 H5          0.0507   -2.9838    1.2575 H         1 <0>         0.2703
     23 H6         -0.5079   -1.0981   -3.1377 H         1 <0>         0.1152
     24 H7         -0.5389    0.5984   -2.5998 H         1 <0>         0.1284
     25 H8          0.9784   -0.3568   -5.3904 H         1 <0>         0.0986
     26 H9          0.9474    1.3397   -4.8525 H         1 <0>         0.1009
     27 H10         3.4264    1.3927   -4.8768 H         1 <0>         0.0808
     28 H11         3.4574   -0.3038   -5.4147 H         1 <0>         0.0768
     29 H12         1.8614    1.1020   -7.2368 H         1 <0>         0.4179
     30 H13         1.8229    1.2418   -9.3956 H         1 <0>         0.0453
     31 H14         1.8312    2.8370   -8.6060 H         1 <0>         0.0450
     32 H15         2.4498    2.6623  -10.2658 H         1 <0>         0.0844
     33 H16         5.2165    0.9132   -6.1323 H         1 <0>         0.4336
     34 H17         0.0432   -2.8600   -1.2368 H         1 <0>         0.4663
@<TRIPOS>BOND
     1    1    2 1
     2    1   19 1
     3    1   20 1
     4    1   21 1
     5    2    6 1
     6    2    3 2
     7    3    4 1
     8    3    8 1
     9    4    5 2
    10    4   34 1
    11    5    6 1
    12    5   22 1
    13    6    7 1
    14    8    9 1
    15    8   23 1
    16    8   24 1
    17    9   10 1
    18   10   11 1
    19   10   25 1
    20   10   26 1
    21   11   12 1
    22   11   27 1
    23   11   28 1
    24   12   13 1
    25   12   29 1
    26   13   14 2
    27   13   16 1
    28   14   15 1
    29   15   30 1
    30   15   31 1
    31   15   32 1
    32   16   17 1
    33   16   33 1
    34   17   18 3
@<TRIPOS>MOLECULE
ZINC18115268
   34    34     0     0     0
SMALL
USER_CHARGES

@<TRIPOS>ATOM
      1 C1         -0.0921    1.4864   -0.0274 C.3       1 <0>        -0.1049
      2 C2         -0.0704   -0.0204   -0.0381 C.2       1 <0>         0.0914
      3 C3         -0.0533   -0.8153   -1.1250 C.2       1 <0>         0.0338
      4 N1         -0.0372   -2.0896   -0.7069 N.pl3     1 <0>        -0.4668
      5 C4         -0.0437   -2.1146    0.5978 C.cat     1 <0>         0.3149
      6 N2         -0.0584   -0.8441    1.0551 N.pl3     1 <0>        -0.5107
      7 H1         -0.0618   -0.5669    1.9847 H         1 <0>         0.4674
      8 C5         -0.0523   -0.3539   -2.5596 C.3       1 <0>        -0.0456
      9 S1          1.6581   -0.1442   -3.1263 S.3       1 <0>        -0.1974
     10 C6          1.4863    0.4062   -4.8462 C.3       1 <0>        -0.1114
     11 C7          2.8738    0.6237   -5.4531 C.3       1 <0>         0.1650
     12 N3          2.7350    1.0682   -6.8421 N.pl3     1 <0>        -0.7223
     13 C8          3.8550    1.3286   -7.5956 C.2       1 <0>         0.6225
     14 N4          5.0394    1.1800   -7.0746 N.2       1 <0>        -0.6204
     15 C9          6.2325    1.3488   -7.9078 C.3       1 <0>         0.0309
     16 N5          3.7243    1.7472   -8.9036 N.pl3     1 <0>        -0.6281
     17 C10         2.4952    2.0025   -9.4137 C.1       1 <0>         0.3949
     18 N6          1.4648    2.2166   -9.8413 N.1       1 <0>        -0.3964
     19 H2          0.9302    1.8645   -0.0245 H         1 <0>         0.1107
     20 H3         -0.6110    1.8486   -0.9149 H         1 <0>         0.1066
     21 H4         -0.6113    1.8359    0.8651 H         1 <0>         0.0961
     22 H5         -0.0347   -3.0041    1.2104 H         1 <0>         0.2700
     23 H6         -0.5523   -1.0971   -3.1807 H         1 <0>         0.1146
     24 H7         -0.5795    0.5971   -2.6358 H         1 <0>         0.1277
     25 H8          0.9540   -0.3530   -5.4192 H         1 <0>         0.0963
     26 H9          0.9268    1.3413   -4.8743 H         1 <0>         0.0980
     27 H10         3.4061    1.3830   -4.8801 H         1 <0>         0.0839
     28 H11         3.4333   -0.3113   -5.4250 H         1 <0>         0.0832
     29 H12         1.8529    1.1789   -7.2301 H         1 <0>         0.4056
     30 H13         6.2112    0.6263   -8.7236 H         1 <0>         0.0498
     31 H14         6.2498    2.3588   -8.3174 H         1 <0>         0.0461
     32 H15         7.1243    1.1870   -7.3023 H         1 <0>         0.0867
     33 H16         4.5123    1.8587   -9.4582 H         1 <0>         0.4418
     34 H17        -0.0232   -2.8696   -1.2834 H         1 <0>         0.4662
@<TRIPOS>BOND
     1    1    2 1
     2    1   19 1
     3    1   20 1
     4    1   21 1
     5    2    6 1
     6    2    3 2
     7    3    4 1
     8    3    8 1
     9    4    5 2
    10    4   34 1
    11    5    6 1
    12    5   22 1
    13    6    7 1
    14    8    9 1
    15    8   23 1
    16    8   24 1
    17    9   10 1
    18   10   11 1
    19   10   25 1
    20   10   26 1
    21   11   12 1
    22   11   27 1
    23   11   28 1
    24   12   13 1
    25   12   29 1
    26   13   14 2
    27   13   16 1
    28   14   15 1
    29   15   30 1
    30   15   31 1
    31   15   32 1
    32   16   17 1
    33   16   33 1
    34   17   18 3
@<TRIPOS>MOLECULE
ZINC18115268
   33    33     0     0     0
SMALL
USER_CHARGES

@<TRIPOS>ATOM
      1 C1          0.0242    1.1611   -0.0026 C.3       1 <0>        -0.0724
      2 C2         -0.7028    1.6591   -1.2251 C.2       1 <0>         0.0373
      3 C3         -0.1480    1.9207   -2.4239 C.2       1 <0>        -0.0248
      4 N1         -1.1582    2.3472   -3.2433 N.pl3     1 <0>        -0.5622
      5 C4         -2.2959    2.3313   -2.5160 C.2       1 <0>         0.2037
      6 N2         -2.0168    1.9140   -1.3115 N.2       1 <0>        -0.4917
      7 H1         -1.0727    2.6114   -4.1727 H         1 <0>         0.4214
      8 C5          1.3058    1.7728   -2.7925 C.3       1 <0>        -0.0093
      9 S1          1.6018    0.0989   -3.4257 S.3       1 <0>        -0.2167
     10 C6          3.3728    0.0850   -3.8182 C.3       1 <0>        -0.1167
     11 C7          3.7622   -1.2880   -4.3696 C.3       1 <0>         0.1660
     12 N3          5.1924   -1.2992   -4.6867 N.pl3     1 <0>        -0.7202
     13 C8          5.7739   -2.4344   -5.1994 C.2       1 <0>         0.6225
     14 N4          5.0533   -3.5000   -5.4034 N.2       1 <0>        -0.6209
     15 C9          5.6461   -4.6720   -6.0525 C.3       1 <0>         0.0329
     16 N5          7.1207   -2.4450   -5.4980 N.pl3     1 <0>        -0.6293
     17 C10         7.8915   -1.3742   -5.1893 C.1       1 <0>         0.3967
     18 N6          8.5377   -0.4765   -4.9305 N.1       1 <0>        -0.4007
     19 H2          0.0304    0.0711   -0.0024 H         1 <0>         0.0751
     20 H3          1.0497    1.5302   -0.0141 H         1 <0>         0.0670
     21 H4         -0.4817    1.5217    0.8931 H         1 <0>         0.0726
     22 H5         -3.2753    2.6133   -2.8733 H         1 <0>         0.2127
     23 H6          1.5618    2.5024   -3.5608 H         1 <0>         0.0889
     24 H7          1.9233    1.9422   -1.9104 H         1 <0>         0.1061
     25 H8          3.5854    0.8501   -4.5649 H         1 <0>         0.0875
     26 H9          3.9469    0.2898   -2.9146 H         1 <0>         0.0900
     27 H10         3.5495   -2.0531   -3.6229 H         1 <0>         0.0831
     28 H11         3.1881   -1.4928   -5.2733 H         1 <0>         0.0818
     29 H12         5.7291   -0.5056   -4.5348 H         1 <0>         0.4043
     30 H13         4.8965   -5.4589   -6.1364 H         1 <0>         0.0851
     31 H14         5.9975   -4.3975   -7.0471 H         1 <0>         0.0469
     32 H15         6.4852   -5.0316   -5.4570 H         1 <0>         0.0433
     33 H16         7.5159   -3.2190   -5.9289 H         1 <0>         0.4399
@<TRIPOS>BOND
     1    1   19 1
     2    1   20 1
     3    1   21 1
     4    1    2 1
     5    2    6 1
     6    2    3 2
     7    3    8 1
     8    3    4 1
     9    4    5 1
    10    4    7 1
    11    5   22 1
    12    5    6 2
    13    8    9 1
    14    8   23 1
    15    8   24 1
    16    9   10 1
    17   10   11 1
    18   10   25 1
    19   10   26 1
    20   11   12 1
    21   11   27 1
    22   11   28 1
    23   12   13 1
    24   12   29 1
    25   13   14 2
    26   13   16 1
    27   14   15 1
    28   15   30 1
    29   15   31 1
    30   15   32 1
    31   16   17 1
    32   16   33 1
    33   17   18 3
@<TRIPOS>MOLECULE
ZINC18115268
   33    33     0     0     0
SMALL
USER_CHARGES

@<TRIPOS>ATOM
      1 C1         -0.2313    1.5566   -0.1028 C.3       1 <0>        -0.0729
      2 C2         -0.2662    0.0503   -0.1299 C.2       1 <0>         0.0391
      3 C3         -0.2574   -0.7218   -1.2333 C.2       1 <0>        -0.0280
      4 N1         -0.2977   -2.0220   -0.8072 N.pl3     1 <0>        -0.5622
      5 H1         -0.3024   -2.8121   -1.3698 H         1 <0>         0.4216
      6 C4         -0.3298   -1.9991    0.5427 C.2       1 <0>         0.2056
      7 N2         -0.3057   -0.7566    0.9408 N.2       1 <0>        -0.4917
      8 C5         -0.2122   -0.2458   -2.6624 C.3       1 <0>        -0.0052
      9 S1          1.5152   -0.0938   -3.1949 S.3       1 <0>        -0.2237
     10 C6          1.3964    0.4805   -4.9115 C.3       1 <0>        -0.1124
     11 C7          2.8023    0.6527   -5.4901 C.3       1 <0>         0.1312
     12 N3          2.7063    1.1165   -6.8764 N.pl3     1 <0>        -0.6991
     13 C8          3.8420    1.3415   -7.6015 C.2       1 <0>         0.6905
     14 N4          3.7554    1.7599   -8.8520 N.2       1 <0>        -0.5816
     15 C9          4.8756    2.1151   -9.5267 C.1       1 <0>         0.3975
     16 N5          5.8147    2.4129  -10.0922 N.1       1 <0>        -0.4856
     17 N6          5.0671    1.1341   -7.0339 N.pl3     1 <0>        -0.7461
     18 C10         6.2847    1.4646   -7.7784 C.3       1 <0>         0.0697
     19 H2          0.8043    1.8956   -0.0762 H         1 <0>         0.0748
     20 H3         -0.7187    1.9475   -0.9960 H         1 <0>         0.0676
     21 H4         -0.7542    1.9163    0.7833 H         1 <0>         0.0733
     22 H5         -0.3654   -2.8657    1.1862 H         1 <0>         0.2131
     23 H6         -0.7274   -0.9635   -3.3009 H         1 <0>         0.0909
     24 H7         -0.7024    0.7249   -2.7377 H         1 <0>         0.1080
     25 H8          0.8474   -0.2524   -5.5026 H         1 <0>         0.0947
     26 H9          0.8724    1.4359   -4.9395 H         1 <0>         0.0976
     27 H10         3.3512    1.3857   -4.8989 H         1 <0>         0.0839
     28 H11         3.3262   -0.3027   -5.4620 H         1 <0>         0.0811
     29 H12         1.8364    1.2638   -7.2794 H         1 <0>         0.4280
     30 H13         5.1307    0.7679   -6.1379 H         1 <0>         0.4035
     31 H14         6.2842    2.5269   -8.0226 H         1 <0>         0.0744
     32 H15         7.1578    1.2325   -7.1685 H         1 <0>         0.0877
     33 H16         6.3182    0.8804   -8.6980 H         1 <0>         0.0744
@<TRIPOS>BOND
     1    1    2 1
     2    1   19 1
     3    1   20 1
     4    1   21 1
     5    2    7 1
     6    2    3 2
     7    3    4 1
     8    3    8 1
     9    4    5 1
    10    4    6 1
    11    6    7 2
    12    6   22 1
    13    8    9 1
    14    8   23 1
    15    8   24 1
    16    9   10 1
    17   10   11 1
    18   10   25 1
    19   10   26 1
    20   11   12 1
    21   11   27 1
    22   11   28 1
    23   12   13 1
    24   12   29 1
    25   13   14 2
    26   13   17 1
    27   14   15 1
    28   15   16 3
    29   17   18 1
    30   17   30 1
    31   18   31 1
    32   18   32 1
    33   18   33 1
@<TRIPOS>MOLECULE
ZINC18115268
   33    33     0     0     0
SMALL
USER_CHARGES

@<TRIPOS>ATOM
      1 C1         -0.0184    1.5028    0.0103 C.3       1 <0>        -0.0728
      2 C2          0.0021   -0.0041    0.0020 C.2       1 <0>         0.0390
      3 C3          0.0078   -0.7894   -1.0919 C.2       1 <0>        -0.0274
      4 N1          0.0283   -2.0846   -0.6496 N.pl3     1 <0>        -0.5622
      5 H1          0.0368   -2.8816   -1.2024 H         1 <0>         0.4215
      6 C4          0.0343   -2.0456    0.7003 C.2       1 <0>         0.2055
      7 N2          0.0236   -0.7980    1.0829 N.2       1 <0>        -0.4914
      8 C5         -0.0061   -0.3305   -2.5273 C.3       1 <0>        -0.0061
      9 S1          1.6984   -0.1218   -3.1119 S.3       1 <0>        -0.2224
     10 C6          1.5088    0.4256   -4.8309 C.3       1 <0>        -0.1131
     11 C7          2.8900    0.6421   -5.4525 C.3       1 <0>         0.1232
     12 N3          2.7369    1.0841   -6.8408 N.pl3     1 <0>        -0.7460
     13 C8          3.8420    1.3415   -7.6015 C.2       1 <0>         0.6876
     14 N4          3.7038    1.7403   -8.8538 N.2       1 <0>        -0.5720
     15 C9          2.4661    1.8938   -9.3833 C.1       1 <0>         0.3811
     16 N5          1.4284    2.0226   -9.8273 N.1       1 <0>        -0.4749
     17 N6          5.0898    1.1867   -7.0676 N.pl3     1 <0>        -0.7017
     18 C10         6.2749    1.4628   -7.8834 C.3       1 <0>         0.1002
     19 H2          1.0042    1.8801    0.0026 H         1 <0>         0.0748
     20 H3         -0.5455    1.8639   -0.8728 H         1 <0>         0.0672
     21 H4         -0.5286    1.8543    0.9071 H         1 <0>         0.0735
     22 H5          0.0496   -2.9046    1.3548 H         1 <0>         0.2133
     23 H6         -0.5124   -1.0749   -3.1419 H         1 <0>         0.0904
     24 H7         -0.5340    0.6203   -2.5997 H         1 <0>         0.1075
     25 H8          0.9707   -0.3347   -5.3971 H         1 <0>         0.0915
     26 H9          0.9490    1.3606   -4.8549 H         1 <0>         0.0942
     27 H10         3.4281    1.4023   -4.8864 H         1 <0>         0.0838
     28 H11         3.4498   -0.2929   -5.4286 H         1 <0>         0.0820
     29 H12         1.8508    1.1940   -7.2199 H         1 <0>         0.4170
     30 H13         5.1912    0.8940   -6.1484 H         1 <0>         0.4150
     31 H14         6.2560    2.5020   -8.2117 H         1 <0>         0.0706
     32 H15         7.1728    1.2850   -7.2916 H         1 <0>         0.0810
     33 H16         6.2777    0.8068   -8.7539 H         1 <0>         0.0703
@<TRIPOS>BOND
     1    1    2 1
     2    1   19 1
     3    1   20 1
     4    1   21 1
     5    2    7 1
     6    2    3 2
     7    3    4 1
     8    3    8 1
     9    4    5 1
    10    4    6 1
    11    6    7 2
    12    6   22 1
    13    8    9 1
    14    8   23 1
    15    8   24 1
    16    9   10 1
    17   10   11 1
    18   10   25 1
    19   10   26 1
    20   11   12 1
    21   11   27 1
    22   11   28 1
    23   12   13 1
    24   12   29 1
    25   13   14 2
    26   13   17 1
    27   14   15 1
    28   15   16 3
    29   17   18 1
    30   17   30 1
    31   18   31 1
    32   18   32 1
    33   18   33 1
@<TRIPOS>MOLECULE
ZINC18115268
   34    34     0     0     0
SMALL
USER_CHARGES

@<TRIPOS>ATOM
      1 C1         -0.3642    1.0562   -0.1351 C.3       1 <0>        -0.1037
      2 C2         -0.1563   -0.4363   -0.1547 C.2       1 <0>         0.0883
      3 C3          0.0009   -1.2106   -1.2452 C.2       1 <0>         0.0366
      4 N1          0.1580   -2.4780   -0.8351 N.pl3     1 <0>        -0.4666
      5 C4          0.1041   -2.5184    0.4682 C.cat     1 <0>         0.3136
      6 N2         -0.0849   -1.2645    0.9328 N.pl3     1 <0>        -0.5108
      7 H1         -0.1586   -1.0005    1.8632 H         1 <0>         0.4669
      8 C5          0.0003   -0.7364   -2.6757 C.3       1 <0>        -0.0404
      9 S1          1.6924   -0.3113   -3.1724 S.3       1 <0>        -0.2307
     10 C6          1.5206    0.2332   -4.8942 C.3       1 <0>        -0.0778
     11 C7          2.8931    0.6267   -5.4440 C.3       1 <0>         0.0964
     12 N3          2.7544    1.0665   -6.8345 N.2       1 <0>        -0.6377
     13 C8          3.0461    2.2929   -7.1619 C.2       1 <0>         0.6399
     14 N4          3.6056    3.1377   -6.2329 N.pl3     1 <0>        -0.7603
     15 C9          3.8463    4.5426   -6.5715 C.3       1 <0>         0.0589
     16 N5          2.7936    2.7442   -8.4409 N.pl3     1 <0>        -0.5838
     17 C10         3.0971    4.0201   -8.7814 C.1       1 <0>         0.4132
     18 N6          3.3516    5.0898   -9.0669 N.1       1 <0>        -0.3936
     19 H2          0.6027    1.5572   -0.0891 H         1 <0>         0.1091
     20 H3         -0.8891    1.3618   -1.0401 H         1 <0>         0.1062
     21 H4         -0.9567    1.3290    0.7382 H         1 <0>         0.0956
     22 H5          0.1991   -3.4068    1.0748 H         1 <0>         0.2697
     23 H6         -0.3797   -1.5284   -3.3209 H         1 <0>         0.1143
     24 H7         -0.6369    0.1433   -2.7665 H         1 <0>         0.1258
     25 H8          1.1087   -0.5792   -5.4928 H         1 <0>         0.0988
     26 H9          0.8515    1.0926   -4.9385 H         1 <0>         0.0869
     27 H10         3.3050    1.4392   -4.8454 H         1 <0>         0.0431
     28 H11         3.5622   -0.2326   -5.3998 H         1 <0>         0.0878
     29 H12         3.8410    2.8037   -5.3532 H         1 <0>         0.4166
     30 H13         2.9013    5.0217   -6.8277 H         1 <0>         0.0642
     31 H14         4.2915    5.0513   -5.7164 H         1 <0>         0.0859
     32 H15         4.5252    4.6001   -7.4223 H         1 <0>         0.0689
     33 H16         2.3988    2.1481   -9.0964 H         1 <0>         0.4524
     34 H17         0.2904   -3.2437   -1.4156 H         1 <0>         0.4663
@<TRIPOS>BOND
     1    1    2 1
     2    1   19 1
     3    1   20 1
     4    1   21 1
     5    2    6 1
     6    2    3 2
     7    3    4 1
     8    3    8 1
     9    4    5 2
    10    4   34 1
    11    5    6 1
    12    5   22 1
    13    6    7 1
    14    8    9 1
    15    8   23 1
    16    8   24 1
    17    9   10 1
    18   10   11 1
    19   10   25 1
    20   10   26 1
    21   11   12 1
    22   11   27 1
    23   11   28 1
    24   12   13 2
    25   13   14 1
    26   13   16 1
    27   14   15 1
    28   14   29 1
    29   15   30 1
    30   15   31 1
    31   15   32 1
    32   16   17 1
    33   16   33 1
    34   17   18 3
@<TRIPOS>MOLECULE
ZINC18115268
   33    33     0     0     0
SMALL
USER_CHARGES

@<TRIPOS>ATOM
      1 C1         -0.0464    1.5641   -0.3229 C.3       1 <0>        -0.0712
      2 C2         -0.7905    1.8824   -1.5941 C.2       1 <0>         0.0343
      3 C3         -0.2464    2.0065   -2.8197 C.2       1 <0>        -0.0221
      4 N1         -1.2706    2.2965   -3.6802 N.pl3     1 <0>        -0.5619
      5 C4         -2.4058    2.3396   -2.9500 C.2       1 <0>         0.2019
      6 N2         -2.1117    2.0860   -1.7041 N.2       1 <0>        -0.4919
      7 H1         -1.1951    2.4436   -4.6360 H         1 <0>         0.4214
      8 C5          1.2102    1.8556   -3.1754 C.3       1 <0>        -0.0044
      9 S1          1.5543    0.1244   -3.5940 S.3       1 <0>        -0.2478
     10 C6          3.3240    0.1125   -3.9922 C.3       1 <0>        -0.0835
     11 C7          3.7526   -1.3072   -4.3683 C.3       1 <0>         0.0981
     12 N3          5.1818   -1.3168   -4.6899 N.2       1 <0>        -0.6325
     13 C8          6.0089   -2.0092   -3.9600 C.2       1 <0>         0.6314
     14 N4          5.5282   -2.8320   -2.9692 N.pl3     1 <0>        -0.7614
     15 C9          6.4605   -3.5376   -2.0865 C.3       1 <0>         0.0613
     16 N5          7.3676   -1.9168   -4.1810 N.pl3     1 <0>        -0.5853
     17 C10         8.2281   -2.6370   -3.4216 C.1       1 <0>         0.4178
     18 N6          8.9495   -3.2409   -2.7849 N.1       1 <0>        -0.4033
     19 H2         -0.0080    0.4835   -0.1852 H         1 <0>         0.0736
     20 H3          0.9677    1.9585   -0.3871 H         1 <0>         0.0666
     21 H4         -0.5607    2.0201    0.5231 H         1 <0>         0.0722
     22 H5         -3.3939    2.5456   -3.3342 H         1 <0>         0.2124
     23 H6          1.4429    2.4895   -4.0310 H         1 <0>         0.0887
     24 H7          1.8245    2.1528   -2.3254 H         1 <0>         0.1043
     25 H8          3.5122    0.7830   -4.8308 H         1 <0>         0.0904
     26 H9          3.8938    0.4464   -3.1251 H         1 <0>         0.0794
     27 H10         3.5643   -1.9777   -3.5298 H         1 <0>         0.0426
     28 H11         3.1828   -1.6411   -5.2355 H         1 <0>         0.0872
     29 H12         4.5717   -2.9454   -2.8546 H         1 <0>         0.4184
     30 H13         5.8991   -4.1371   -1.3698 H         1 <0>         0.0845
     31 H14         7.1019   -4.1882   -2.6809 H         1 <0>         0.0661
     32 H15         7.0740   -2.8124   -1.5519 H         1 <0>         0.0619
     33 H16         7.7068   -1.3362   -4.8801 H         1 <0>         0.4510
@<TRIPOS>BOND
     1    1   19 1
     2    1   20 1
     3    1   21 1
     4    1    2 1
     5    2    6 1
     6    2    3 2
     7    3    8 1
     8    3    4 1
     9    4    5 1
    10    4    7 1
    11    5   22 1
    12    5    6 2
    13    8    9 1
    14    8   23 1
    15    8   24 1
    16    9   10 1
    17   10   11 1
    18   10   25 1
    19   10   26 1
    20   11   12 1
    21   11   27 1
    22   11   28 1
    23   12   13 2
    24   13   14 1
    25   13   16 1
    26   14   15 1
    27   14   29 1
    28   15   30 1
    29   15   31 1
    30   15   32 1
    31   16   17 1
    32   16   33 1
    33   17   18 3
@<TRIPOS>MOLECULE
ZINC18115268
   33    33     0     0     0
SMALL
USER_CHARGES

@<TRIPOS>ATOM
      1 C1         -0.3642    1.0562   -0.1351 C.3       1 <0>        -0.0806
      2 C2         -0.1563   -0.4363   -0.1547 C.2       1 <0>         0.0012
      3 C3          0.0009   -1.2106   -1.2452 C.2       1 <0>         0.0105
      4 N1          0.1580   -2.4780   -0.8351 N.2       1 <0>        -0.4771
      5 C4          0.1041   -2.5184    0.4682 C.2       1 <0>         0.1895
      6 N2         -0.0849   -1.2645    0.9328 N.pl3     1 <0>        -0.5675
      7 C5          0.0003   -0.7364   -2.6757 C.3       1 <0>         0.0071
      8 S1          1.6924   -0.3113   -3.1724 S.3       1 <0>        -0.2471
      9 C6          1.5206    0.2332   -4.8942 C.3       1 <0>        -0.0839
     10 C7          2.8931    0.6267   -5.4440 C.3       1 <0>         0.0985
     11 N3          2.7544    1.0665   -6.8345 N.2       1 <0>        -0.6299
     12 C8          3.0461    2.2929   -7.1619 C.2       1 <0>         0.6291
     13 N4          3.6056    3.1377   -6.2329 N.pl3     1 <0>        -0.7621
     14 C9          3.8463    4.5426   -6.5715 C.3       1 <0>         0.0619
     15 N5          2.7936    2.7442   -8.4409 N.pl3     1 <0>        -0.5855
     16 C10         3.0971    4.0201   -8.7814 C.1       1 <0>         0.4186
     17 N6          3.3516    5.0898   -9.0669 N.1       1 <0>        -0.4054
     18 H1          0.6027    1.5572   -0.0891 H         1 <0>         0.0793
     19 H2         -0.8891    1.3618   -1.0401 H         1 <0>         0.0821
     20 H3         -0.9567    1.3290    0.7382 H         1 <0>         0.0666
     21 H4          0.1991   -3.4068    1.0748 H         1 <0>         0.2116
     22 H5         -0.3797   -1.5284   -3.3209 H         1 <0>         0.0946
     23 H6         -0.6369    0.1433   -2.7665 H         1 <0>         0.0903
     24 H7          1.1087   -0.5792   -5.4928 H         1 <0>         0.0910
     25 H8          0.8515    1.0926   -4.9385 H         1 <0>         0.0765
     26 H9          3.3050    1.4392   -4.8454 H         1 <0>         0.0411
     27 H10         3.5622   -0.2326   -5.3998 H         1 <0>         0.0883
     28 H11         3.8410    2.8037   -5.3532 H         1 <0>         0.4183
     29 H12         2.9013    5.0217   -6.8277 H         1 <0>         0.0614
     30 H13         4.2915    5.0513   -5.7164 H         1 <0>         0.0835
     31 H14         4.5252    4.6001   -7.4223 H         1 <0>         0.0658
     32 H15         2.3988    2.1481   -9.0964 H         1 <0>         0.4510
     33 H16        -0.1586   -1.0005    1.8632 H         1 <0>         0.4215
@<TRIPOS>BOND
     1    1    2 1
     2    1   18 1
     3    1   19 1
     4    1   20 1
     5    2    6 1
     6    2    3 2
     7    3    4 1
     8    3    7 1
     9    4    5 2
    10    5    6 1
    11    5   21 1
    12    6   33 1
    13    7    8 1
    14    7   22 1
    15    7   23 1
    16    8    9 1
    17    9   10 1
    18    9   24 1
    19    9   25 1
    20   10   11 1
    21   10   26 1
    22   10   27 1
    23   11   12 2
    24   12   13 1
    25   12   15 1
    26   13   14 1
    27   13   28 1
    28   14   29 1
    29   14   30 1
    30   14   31 1
    31   15   16 1
    32   15   32 1
    33   16   17 3
@<TRIPOS>MOLECULE
ZINC18115268
   33    33     0     0     0
SMALL
USER_CHARGES

@<TRIPOS>ATOM
      1 C1         -0.4661    1.1866   -0.1622 C.3       1 <0>        -0.0808
      2 C2         -0.2855   -0.3096   -0.1656 C.2       1 <0>         0.0013
      3 C3         -0.1306   -1.0970   -1.2470 C.2       1 <0>         0.0103
      4 N1         -0.0014   -2.3631   -0.8234 N.2       1 <0>        -0.4771
      5 C4         -0.0704   -2.3901    0.4795 C.2       1 <0>         0.1895
      6 N2         -0.2415   -1.1286    0.9303 N.pl3     1 <0>        -0.5674
      7 C5         -0.1066   -0.6365   -2.6817 C.3       1 <0>         0.0072
      8 S1          1.5984   -0.2473   -3.1634 S.3       1 <0>        -0.2472
      9 C6          1.4558    0.2839   -4.8920 C.3       1 <0>        -0.0848
     10 C7          2.8413    0.6469   -5.4300 C.3       1 <0>         0.0930
     11 N3          2.7261    1.0759   -6.8260 N.2       1 <0>        -0.6229
     12 C8          3.0461    2.2929   -7.1619 C.2       1 <0>         0.6322
     13 N4          2.8244    2.7326   -8.4453 N.pl3     1 <0>        -0.7165
     14 C9          3.1844    4.1016   -8.8231 C.3       1 <0>         0.0688
     15 N5          3.6076    3.1407   -6.2296 N.pl3     1 <0>        -0.6338
     16 C10         3.8302    4.4401   -6.5428 C.1       1 <0>         0.4107
     17 N6          4.0169    5.5295   -6.8053 N.1       1 <0>        -0.4099
     18 H1          0.5094    1.6702   -0.1101 H         1 <0>         0.0795
     19 H2         -0.9752    1.4931   -1.0759 H         1 <0>         0.0821
     20 H3         -1.0630    1.4785    0.7018 H         1 <0>         0.0667
     21 H4          0.0015   -3.2743    1.0955 H         1 <0>         0.2116
     22 H5         -0.4939   -1.4276   -3.3238 H         1 <0>         0.0947
     23 H6         -0.7264    0.2538   -2.7879 H         1 <0>         0.0905
     24 H7          1.0356   -0.5265   -5.4876 H         1 <0>         0.0915
     25 H8          0.8031    1.1549   -4.9518 H         1 <0>         0.0771
     26 H9          3.2615    1.4573   -4.8344 H         1 <0>         0.0377
     27 H10         3.4939   -0.2241   -5.3702 H         1 <0>         0.0900
     28 H11         2.4296    2.1365   -9.1008 H         1 <0>         0.4266
     29 H12         4.2540    4.2500   -8.6750 H         1 <0>         0.0616
     30 H13         2.9365    4.2662   -9.8717 H         1 <0>         0.0895
     31 H14         2.6305    4.8070   -8.2037 H         1 <0>         0.0655
     32 H15         3.8430    2.8067   -5.3499 H         1 <0>         0.4412
     33 H16        -0.3205   -0.8544    1.8573 H         1 <0>         0.4215
@<TRIPOS>BOND
     1    1    2 1
     2    1   18 1
     3    1   19 1
     4    1   20 1
     5    2    6 1
     6    2    3 2
     7    3    4 1
     8    3    7 1
     9    4    5 2
    10    5    6 1
    11    5   21 1
    12    6   33 1
    13    7    8 1
    14    7   22 1
    15    7   23 1
    16    8    9 1
    17    9   10 1
    18    9   24 1
    19    9   25 1
    20   10   11 1
    21   10   26 1
    22   10   27 1
    23   11   12 2
    24   12   13 1
    25   12   15 1
    26   13   14 1
    27   13   28 1
    28   14   29 1
    29   14   30 1
    30   14   31 1
    31   15   16 1
    32   15   32 1
    33   16   17 3
@<TRIPOS>MOLECULE
ZINC18115268
   34    34     0     0     0
SMALL
USER_CHARGES

@<TRIPOS>ATOM
      1 C1         -0.2305    1.5570   -0.1028 C.3       1 <0>        -0.1054
      2 C2         -0.2654    0.0506   -0.1299 C.2       1 <0>         0.0930
      3 C3         -0.2570   -0.7330   -1.2251 C.2       1 <0>         0.0307
      4 N1         -0.2971   -2.0113   -0.8210 N.pl3     1 <0>        -0.4669
      5 C4         -0.3301   -2.0496    0.4830 C.cat     1 <0>         0.3165
      6 N2         -0.3058   -0.7843    0.9540 N.pl3     1 <0>        -0.5108
      7 H1         -0.3170   -0.5169    1.8864 H         1 <0>         0.4678
      8 C5         -0.2106   -0.2570   -2.6543 C.3       1 <0>        -0.0413
      9 S1          1.5173   -0.1064   -3.1856 S.3       1 <0>        -0.2044
     10 C6          1.4000    0.4680   -4.9023 C.3       1 <0>        -0.1066
     11 C7          2.8064    0.6390   -5.4800 C.3       1 <0>         0.1307
     12 N3          2.7117    1.1029   -6.8664 N.pl3     1 <0>        -0.7022
     13 C8          3.8480    1.3270   -7.5908 C.2       1 <0>         0.6879
     14 N4          3.7625    1.7454   -8.8414 N.2       1 <0>        -0.5740
     15 C9          4.8834    2.0997   -9.5153 C.1       1 <0>         0.3931
     16 N5          5.8231    2.3968  -10.0803 N.1       1 <0>        -0.4737
     17 N6          5.0725    1.1185   -7.0225 N.pl3     1 <0>        -0.7457
     18 C10         6.2909    1.4480   -7.7662 C.3       1 <0>         0.0680
     19 H2          0.8051    1.8960   -0.0762 H         1 <0>         0.1103
     20 H3         -0.7179    1.9478   -0.9960 H         1 <0>         0.1072
     21 H4         -0.7535    1.9166    0.7833 H         1 <0>         0.0968
     22 H5         -0.3667   -2.9451    1.0857 H         1 <0>         0.2703
     23 H6         -0.7260   -0.9743   -3.2930 H         1 <0>         0.1165
     24 H7         -0.6999    0.7140   -2.7299 H         1 <0>         0.1296
     25 H8          0.8508   -0.2646   -5.4938 H         1 <0>         0.1033
     26 H9          0.8769    1.4238   -4.9307 H         1 <0>         0.1054
     27 H10         3.3556    1.3715   -4.8885 H         1 <0>         0.0843
     28 H11         3.3296   -0.3168   -5.4517 H         1 <0>         0.0821
     29 H12         1.8421    1.2509   -7.2700 H         1 <0>         0.4289
     30 H13         5.1354    0.7523   -6.1265 H         1 <0>         0.4011
     31 H14         6.3245    0.8638   -8.6858 H         1 <0>         0.0760
     32 H15         6.2914    2.5103   -8.0104 H         1 <0>         0.0759
     33 H16         7.1634    1.2152   -7.1557 H         1 <0>         0.0891
     34 H17        -0.3013   -2.7852   -1.4058 H         1 <0>         0.4664
@<TRIPOS>BOND
     1    1    2 1
     2    1   19 1
     3    1   20 1
     4    1   21 1
     5    2    6 1
     6    2    3 2
     7    3    4 1
     8    3    8 1
     9    4    5 2
    10    4   34 1
    11    5    6 1
    12    5   22 1
    13    6    7 1
    14    8    9 1
    15    8   23 1
    16    8   24 1
    17    9   10 1
    18   10   11 1
    19   10   25 1
    20   10   26 1
    21   11   12 1
    22   11   27 1
    23   11   28 1
    24   12   13 1
    25   12   29 1
    26   13   14 2
    27   13   17 1
    28   14   15 1
    29   15   16 3
    30   17   18 1
    31   17   30 1
    32   18   31 1
    33   18   32 1
    34   18   33 1
@<TRIPOS>MOLECULE
ZINC18115268
   33    33     0     0     0
SMALL
USER_CHARGES

@<TRIPOS>ATOM
      1 C1          0.0576    1.6155   -0.2016 C.3       1 <0>        -0.0714
      2 C2         -0.6976    1.9606   -1.4592 C.2       1 <0>         0.0344
      3 C3         -0.1672    2.0910   -2.6902 C.2       1 <0>        -0.0223
      4 N1         -1.1976    2.4072   -3.5339 N.pl3     1 <0>        -0.5619
      5 C4         -2.3226    2.4591   -2.7886 C.2       1 <0>         0.2019
      6 N2         -2.0167    2.1861   -1.5497 N.2       1 <0>        -0.4918
      7 H1         -1.1320    2.5647   -4.4888 H         1 <0>         0.4214
      8 C5          1.2822    1.9218   -3.0664 C.3       1 <0>        -0.0043
      9 S1          1.5937    0.1906   -3.5099 S.3       1 <0>        -0.2479
     10 C6          3.3578    0.1560   -3.9310 C.3       1 <0>        -0.0843
     11 C7          3.7592   -1.2656   -4.3294 C.3       1 <0>         0.0926
     12 N3          5.1839   -1.2935   -4.6696 N.2       1 <0>        -0.6254
     13 C8          6.0089   -2.0092   -3.9600 C.2       1 <0>         0.6345
     14 N4          7.3605   -1.9417   -4.2018 N.pl3     1 <0>        -0.7158
     15 C9          8.2885   -2.7466   -3.4036 C.3       1 <0>         0.0682
     16 N5          5.5265   -2.8349   -2.9657 N.pl3     1 <0>        -0.6336
     17 C10         6.3887   -3.4875   -2.1492 C.1       1 <0>         0.4099
     18 N6          7.1116   -4.0346   -1.4647 N.1       1 <0>        -0.4075
     19 H2          0.0808    0.5329   -0.0772 H         1 <0>         0.0737
     20 H3          1.0769    1.9948   -0.2742 H         1 <0>         0.0666
     21 H4         -0.4387    2.0692    0.6563 H         1 <0>         0.0722
     22 H5         -3.3122    2.6852   -3.1575 H         1 <0>         0.2124
     23 H6          1.5139    2.5622   -3.9174 H         1 <0>         0.0888
     24 H7          1.9118    2.1992   -2.2209 H         1 <0>         0.1045
     25 H8          3.5458    0.8336   -4.7639 H         1 <0>         0.0909
     26 H9          3.9437    0.4705   -3.0674 H         1 <0>         0.0800
     27 H10         3.5712   -1.9431   -3.4965 H         1 <0>         0.0392
     28 H11         3.1732   -1.5801   -5.1930 H         1 <0>         0.0889
     29 H12         7.6997   -1.3611   -4.9008 H         1 <0>         0.4267
     30 H13         9.3095   -2.5620   -3.7376 H         1 <0>         0.0900
     31 H14         8.1951   -2.4734   -2.3525 H         1 <0>         0.0661
     32 H15         8.0514   -3.8034   -3.5268 H         1 <0>         0.0621
     33 H16         4.5700   -2.9484   -2.8511 H         1 <0>         0.4413
@<TRIPOS>BOND
     1    1   19 1
     2    1   20 1
     3    1   21 1
     4    1    2 1
     5    2    6 1
     6    2    3 2
     7    3    8 1
     8    3    4 1
     9    4    5 1
    10    4    7 1
    11    5   22 1
    12    5    6 2
    13    8    9 1
    14    8   23 1
    15    8   24 1
    16    9   10 1
    17   10   11 1
    18   10   25 1
    19   10   26 1
    20   11   12 1
    21   11   27 1
    22   11   28 1
    23   12   13 2
    24   13   14 1
    25   13   16 1
    26   14   15 1
    27   14   29 1
    28   15   30 1
    29   15   31 1
    30   15   32 1
    31   16   17 1
    32   16   33 1
    33   17   18 3
@<TRIPOS>MOLECULE
ZINC18115268
   34    34     0     0     0
SMALL
USER_CHARGES

@<TRIPOS>ATOM
      1 C1         -0.4661    1.1866   -0.1622 C.3       1 <0>        -0.1038
      2 C2         -0.2855   -0.3096   -0.1656 C.2       1 <0>         0.0885
      3 C3         -0.1306   -1.0970   -1.2470 C.2       1 <0>         0.0363
      4 N1         -0.0014   -2.3631   -0.8234 N.pl3     1 <0>        -0.4665
      5 C4         -0.0704   -2.3901    0.4795 C.cat     1 <0>         0.3136
      6 N2         -0.2415   -1.1286    0.9303 N.pl3     1 <0>        -0.5108
      7 H1         -0.3205   -0.8544    1.8573 H         1 <0>         0.4669
      8 C5         -0.1066   -0.6365   -2.6817 C.3       1 <0>        -0.0403
      9 S1          1.5984   -0.2473   -3.1634 S.3       1 <0>        -0.2309
     10 C6          1.4558    0.2839   -4.8920 C.3       1 <0>        -0.0786
     11 C7          2.8413    0.6469   -5.4300 C.3       1 <0>         0.0912
     12 N3          2.7261    1.0759   -6.8260 N.2       1 <0>        -0.6312
     13 C8          3.0461    2.2929   -7.1619 C.2       1 <0>         0.6417
     14 N4          2.8244    2.7326   -8.4453 N.pl3     1 <0>        -0.7120
     15 C9          3.1844    4.1016   -8.8231 C.3       1 <0>         0.0654
     16 N5          3.6076    3.1407   -6.2296 N.pl3     1 <0>        -0.6334
     17 C10         3.8302    4.4401   -6.5428 C.1       1 <0>         0.4045
     18 N6          4.0169    5.5295   -6.8053 N.1       1 <0>        -0.3971
     19 H2          0.5094    1.6702   -0.1101 H         1 <0>         0.1092
     20 H3         -0.9752    1.4931   -1.0759 H         1 <0>         0.1063
     21 H4         -1.0630    1.4785    0.7018 H         1 <0>         0.0956
     22 H5          0.0015   -3.2743    1.0955 H         1 <0>         0.2697
     23 H6         -0.4939   -1.4276   -3.3238 H         1 <0>         0.1143
     24 H7         -0.7264    0.2538   -2.7879 H         1 <0>         0.1260
     25 H8          1.0356   -0.5265   -5.4876 H         1 <0>         0.0992
     26 H9          0.8031    1.1549   -4.9518 H         1 <0>         0.0875
     27 H10         3.2615    1.4573   -4.8344 H         1 <0>         0.0398
     28 H11         3.4939   -0.2241   -5.3702 H         1 <0>         0.0894
     29 H12         2.4296    2.1365   -9.1008 H         1 <0>         0.4284
     30 H13         4.2540    4.2500   -8.6750 H         1 <0>         0.0641
     31 H14         2.9365    4.2662   -9.8717 H         1 <0>         0.0936
     32 H15         2.6305    4.8070   -8.2037 H         1 <0>         0.0674
     33 H16         3.8430    2.8067   -5.3499 H         1 <0>         0.4395
     34 H17         0.1233   -3.1366   -1.3952 H         1 <0>         0.4663
@<TRIPOS>BOND
     1    1    2 1
     2    1   19 1
     3    1   20 1
     4    1   21 1
     5    2    6 1
     6    2    3 2
     7    3    4 1
     8    3    8 1
     9    4    5 2
    10    4   34 1
    11    5    6 1
    12    5   22 1
    13    6    7 1
    14    8    9 1
    15    8   23 1
    16    8   24 1
    17    9   10 1
    18   10   11 1
    19   10   25 1
    20   10   26 1
    21   11   12 1
    22   11   27 1
    23   11   28 1
    24   12   13 2
    25   13   14 1
    26   13   16 1
    27   14   15 1
    28   14   29 1
    29   15   30 1
    30   15   31 1
    31   15   32 1
    32   16   17 1
    33   16   33 1
    34   17   18 3
@<TRIPOS>MOLECULE
ZINC18115268
   33    33     0     0     0
SMALL
USER_CHARGES

@<TRIPOS>ATOM
      1 C1         -0.0365    1.5010    0.0011 C.3       1 <0>        -0.0820
      2 C2         -0.0079   -0.0057   -0.0034 C.2       1 <0>         0.0046
      3 C3          0.0049   -0.8052   -1.0870 C.2       1 <0>         0.0062
      4 N1          0.0299   -2.0776   -0.6636 N.2       1 <0>        -0.4775
      5 C4          0.0331   -2.0970    0.6412 C.2       1 <0>         0.1912
      6 N2          0.0160   -0.8246    1.0932 N.pl3     1 <0>        -0.5667
      7 C5         -0.0069   -0.3499   -2.5235 C.3       1 <0>         0.0056
      8 S1          1.6984   -0.1349   -3.1036 S.3       1 <0>        -0.2246
      9 C6          1.5114    0.4074   -4.8246 C.3       1 <0>        -0.1100
     10 C7          2.8934    0.6285   -5.4426 C.3       1 <0>         0.1240
     11 N3          2.7424    1.0664   -6.8325 N.pl3     1 <0>        -0.7512
     12 C8          3.8492    1.4270   -7.5637 C.2       1 <0>         0.6199
     13 N4          3.7071    1.9124   -8.7639 N.2       1 <0>        -0.6375
     14 C9          2.3670    2.1805   -9.2916 C.3       1 <0>         0.0441
     15 N5          5.1106    1.2747   -7.0262 N.pl3     1 <0>        -0.5929
     16 C10         6.2016    1.6301   -7.7469 C.1       1 <0>         0.4348
     17 N6          7.1163    1.9281   -8.3511 N.1       1 <0>        -0.3988
     18 H1          0.9841    1.8838   -0.0052 H         1 <0>         0.0805
     19 H2         -0.5635    1.8571   -0.8841 H         1 <0>         0.0825
     20 H3         -0.5506    1.8520    0.8958 H         1 <0>         0.0676
     21 H4          0.0507   -2.9838    1.2575 H         1 <0>         0.2122
     22 H5         -0.5079   -1.0981   -3.1377 H         1 <0>         0.0956
     23 H6         -0.5389    0.5984   -2.5998 H         1 <0>         0.0930
     24 H7          0.9784   -0.3568   -5.3904 H         1 <0>         0.0906
     25 H8          0.9474    1.3397   -4.8525 H         1 <0>         0.0901
     26 H9          3.4264    1.3927   -4.8768 H         1 <0>         0.0785
     27 H10         3.4574   -0.3038   -5.4147 H         1 <0>         0.0765
     28 H11         1.8614    1.1020   -7.2368 H         1 <0>         0.4170
     29 H12         1.8229    1.2418   -9.3956 H         1 <0>         0.0440
     30 H13         1.8312    2.8370   -8.6060 H         1 <0>         0.0436
     31 H14         2.4498    2.6623  -10.2658 H         1 <0>         0.0807
     32 H15         5.2165    0.9132   -6.1323 H         1 <0>         0.4360
     33 H16         0.0181   -0.5434    2.0216 H         1 <0>         0.4225
@<TRIPOS>BOND
     1    1    2 1
     2    1   18 1
     3    1   19 1
     4    1   20 1
     5    2    6 1
     6    2    3 2
     7    3    4 1
     8    3    7 1
     9    4    5 2
    10    5    6 1
    11    5   21 1
    12    6   33 1
    13    7    8 1
    14    7   22 1
    15    7   23 1
    16    8    9 1
    17    9   10 1
    18    9   24 1
    19    9   25 1
    20   10   11 1
    21   10   26 1
    22   10   27 1
    23   11   12 1
    24   11   28 1
    25   12   13 2
    26   12   15 1
    27   13   14 1
    28   14   29 1
    29   14   30 1
    30   14   31 1
    31   15   16 1
    32   15   32 1
    33   16   17 3
@<TRIPOS>MOLECULE
ZINC18115268
   33    33     0     0     0
SMALL
USER_CHARGES

@<TRIPOS>ATOM
      1 C1         -0.0364    1.5010    0.0011 C.3       1 <0>        -0.0727
      2 C2         -0.0079   -0.0057   -0.0033 C.2       1 <0>         0.0386
      3 C3          0.0047   -0.7937   -1.0953 C.2       1 <0>        -0.0274
      4 N1          0.0310   -2.0877   -0.6496 N.pl3     1 <0>        -0.5622
      5 H1          0.0451   -2.8860   -1.2004 H         1 <0>         0.4215
      6 C4          0.0337   -2.0453    0.7002 C.2       1 <0>         0.2052
      7 N2          0.0154   -0.7968    1.0796 N.2       1 <0>        -0.4916
      8 C5         -0.0083   -0.3385   -2.5318 C.3       1 <0>        -0.0058
      9 S1          1.6964   -0.1220   -3.1130 S.3       1 <0>        -0.2251
     10 C6          1.5079    0.4200   -4.8338 C.3       1 <0>        -0.1097
     11 C7          2.8893    0.6423   -5.4527 C.3       1 <0>         0.1238
     12 N3          2.7371    1.0801   -6.8425 N.pl3     1 <0>        -0.7516
     13 C8          3.8432    1.4416   -7.5744 C.2       1 <0>         0.6197
     14 N4          3.6999    1.9268   -8.7745 N.2       1 <0>        -0.6359
     15 C9          2.3592    2.1939   -9.3014 C.3       1 <0>         0.0438
     16 N5          5.1050    1.2903   -7.0376 N.pl3     1 <0>        -0.5928
     17 C10         6.1953    1.6466   -7.7590 C.1       1 <0>         0.4341
     18 N6          7.1093    1.9453   -8.3638 N.1       1 <0>        -0.3972
     19 H2          0.9842    1.8838   -0.0052 H         1 <0>         0.0750
     20 H3         -0.5635    1.8571   -0.8841 H         1 <0>         0.0671
     21 H4         -0.5506    1.8521    0.8959 H         1 <0>         0.0732
     22 H5          0.0520   -2.9025    1.3568 H         1 <0>         0.2131
     23 H6         -0.5092   -1.0871   -3.1457 H         1 <0>         0.0896
     24 H7         -0.5412    0.6093   -2.6078 H         1 <0>         0.1068
     25 H8          0.9752   -0.3445   -5.3993 H         1 <0>         0.0900
     26 H9          0.9431    1.3519   -4.8614 H         1 <0>         0.0931
     27 H10         3.4220    1.4069   -4.8872 H         1 <0>         0.0801
     28 H11         3.4541   -0.2896   -5.4251 H         1 <0>         0.0757
     29 H12         1.8558    1.1149   -7.2462 H         1 <0>         0.4170
     30 H13         2.4411    2.6757  -10.2757 H         1 <0>         0.0813
     31 H14         1.8159    1.2547   -9.4050 H         1 <0>         0.0437
     32 H15         1.8233    2.8499   -8.6154 H         1 <0>         0.0441
     33 H16         5.2118    0.9289   -6.1438 H         1 <0>         0.4357
@<TRIPOS>BOND
     1    1    2 1
     2    1   19 1
     3    1   20 1
     4    1   21 1
     5    2    7 1
     6    2    3 2
     7    3    4 1
     8    3    8 1
     9    4    5 1
    10    4    6 1
    11    6    7 2
    12    6   22 1
    13    8    9 1
    14    8   23 1
    15    8   24 1
    16    9   10 1
    17   10   11 1
    18   10   25 1
    19   10   26 1
    20   11   12 1
    21   11   27 1
    22   11   28 1
    23   12   13 1
    24   12   29 1
    25   13   14 2
    26   13   16 1
    27   14   15 1
    28   15   30 1
    29   15   31 1
    30   15   32 1
    31   16   17 1
    32   16   33 1
    33   17   18 3
@<TRIPOS>MOLECULE
ZINC13519013
   25    26     0     0     0
SMALL
USER_CHARGES
2-[(1R,2R)-2-(1H-imidazol-4-yl)cyclopropyl]ethanamine
@<TRIPOS>ATOM
      1 C1          1.9721    1.6218    2.3022 C.2       1 <0>        -0.0510
      2 C2          2.1321    0.7830    1.2609 C.2       1 <0>         0.0221
      3 N1          3.1482   -0.0445    1.5470 N.2       1 <0>        -0.4875
      4 C3          3.6204    0.2461    2.7283 C.2       1 <0>         0.1926
      5 N2          2.9122    1.2779    3.2358 N.pl3     1 <0>        -0.5712
      6 H1          3.0490    1.7100    4.1272 H         1 <0>         0.4315
      7 C4          1.3165    0.7789   -0.0063 C.3       1 <0>        -0.0519
      8 H2          1.8888    0.7918   -0.9339 H         1 <0>         0.1233
      9 C5         -0.0187    1.5258    0.0104 C.3       1 <0>        -0.1634
     10 C6          0.0021   -0.0041    0.0020 C.3       1 <0>        -0.1513
     11 H3         -0.2904   -0.5063   -0.9201 H         1 <0>         0.1189
     12 C7         -0.3843   -0.7229    1.2962 C.3       1 <0>        -0.1153
     13 C8         -1.6548   -1.5432    1.0641 C.3       1 <0>        -0.0023
     14 H4          1.2412    2.4126    2.3856 H         1 <0>         0.1748
     15 H5          4.4413   -0.2557    3.2190 H         1 <0>         0.2114
     16 H6         -0.3248    2.0300   -0.9061 H         1 <0>         0.1090
     17 H7         -0.3072    2.0201    0.9381 H         1 <0>         0.0988
     18 H8          0.4259   -1.3860    1.5993 H         1 <0>         0.0903
     19 H9         -0.5647    0.0124    2.0803 H         1 <0>         0.0845
     20 H10        -2.4651   -0.8802    0.7610 H         1 <0>         0.1361
     21 H11        -1.4744   -2.2785    0.2800 H         1 <0>         0.1330
     22 H12        -2.1356   -1.5777    3.0656 H         1 <0>         0.4356
     23 H13        -2.8627   -2.7825    2.1793 H         1 <0>         0.4404
     24 N3         -2.0054   -2.2480    2.3098 N.4       1 <0>        -0.6476
     25 H14        -1.2446   -2.8908    2.5595 H         1 <0>         0.4395
@<TRIPOS>BOND
     1    1    5 1
     2    1    2 2
     3    1   14 1
     4    2    3 1
     5    2    7 1
     6    3    4 2
     7    4    5 1
     8    4   15 1
     9    5    6 1
    10    7    8 1
    11    7   10 1
    12    7    9 1
    13    9   10 1
    14    9   16 1
    15    9   17 1
    16   10   11 1
    17   10   12 1
    18   12   13 1
    19   12   18 1
    20   12   19 1
    21   13   20 1
    22   13   21 1
    23   13   24 1
    24   22   24 1
    25   23   24 1
    26   24   25 1
@<TRIPOS>MOLECULE
ZINC13519013
   26    27     0     0     0
SMALL
USER_CHARGES
2-[(1R,2R)-2-(1H-imidazol-4-yl)cyclopropyl]ethanamine
@<TRIPOS>ATOM
      1 C1          1.9721    1.6218    2.3022 C.2       1 <0>         0.0315
      2 C2          2.1321    0.7830    1.2609 C.2       1 <0>         0.0559
      3 C3          3.6204    0.2461    2.7283 C.cat     1 <0>         0.3136
      4 N1          2.9122    1.2779    3.2358 N.pl3     1 <0>        -0.5133
      5 H1          3.0490    1.7100    4.1272 H         1 <0>         0.4796
      6 C4          1.3165    0.7789   -0.0063 C.3       1 <0>        -0.1066
      7 H2          1.8888    0.7918   -0.9339 H         1 <0>         0.1480
      8 C5         -0.0187    1.5258    0.0104 C.3       1 <0>        -0.1382
      9 C6          0.0021   -0.0041    0.0020 C.3       1 <0>        -0.1403
     10 H3         -0.2904   -0.5063   -0.9201 H         1 <0>         0.1364
     11 C7         -0.3843   -0.7229    1.2962 C.3       1 <0>        -0.1242
     12 C8         -1.6548   -1.5432    1.0641 C.3       1 <0>        -0.0031
     13 H4          1.2412    2.4126    2.3856 H         1 <0>         0.2241
     14 H5          4.4413   -0.2557    3.2190 H         1 <0>         0.2687
     15 H6         -0.3248    2.0300   -0.9061 H         1 <0>         0.1277
     16 H7         -0.3072    2.0201    0.9381 H         1 <0>         0.1104
     17 H8          0.4259   -1.3860    1.5993 H         1 <0>         0.0836
     18 H9         -0.5647    0.0124    2.0803 H         1 <0>         0.0903
     19 H10        -2.4651   -0.8802    0.7610 H         1 <0>         0.1430
     20 H11        -1.4744   -2.2785    0.2800 H         1 <0>         0.1378
     21 H12        -2.1356   -1.5777    3.0656 H         1 <0>         0.4374
     22 H13        -2.8627   -2.7825    2.1793 H         1 <0>         0.4484
     23 N2         -2.0054   -2.2480    2.3098 N.4       1 <0>        -0.6489
     24 H14        -1.2446   -2.8908    2.5595 H         1 <0>         0.4387
     25 N3          3.1477   -0.0435    1.5478 N.pl3     1 <0>        -0.4834
     26 H15         3.4987   -0.7882    0.9341 H         1 <0>         0.4831
@<TRIPOS>BOND
     1    1    4 1
     2    1    2 2
     3    1   13 1
     4    2    6 1
     5    2   25 1
     6    3    4 1
     7    3   14 1
     8    3   25 2
     9    4    5 1
    10    6    7 1
    11    6    9 1
    12    6    8 1
    13    8    9 1
    14    8   15 1
    15    8   16 1
    16    9   10 1
    17    9   11 1
    18   11   12 1
    19   11   17 1
    20   11   18 1
    21   12   19 1
    22   12   20 1
    23   12   23 1
    24   21   23 1
    25   22   23 1
    26   23   24 1
    27   25   26 1
@<TRIPOS>MOLECULE
ZINC13519013
   25    26     0     0     0
SMALL
USER_CHARGES

@<TRIPOS>ATOM
      1 C1          0.1142    1.3852    0.9525 C.2       1 <0>        -0.0153
      2 C2          1.1199    1.8238    0.1717 C.2       1 <0>        -0.0084
      3 N1          1.5717    0.7431   -0.5365 N.pl3     1 <0>        -0.5663
      4 C3          0.8257   -0.3190   -0.1636 C.2       1 <0>         0.1941
      5 N2         -0.0439    0.0725    0.7272 N.2       1 <0>        -0.4896
      6 C4          1.6465    3.2336    0.0926 C.3       1 <0>        -0.0735
      7 H1          2.7258    3.3392    0.2030 H         1 <0>         0.1226
      8 C5          0.7659    4.3495    0.6585 C.3       1 <0>        -0.1479
      9 C6          0.9354    4.2012   -0.8556 C.3       1 <0>        -0.1544
     10 H2          1.5467    4.9436   -1.3686 H         1 <0>         0.1208
     11 C7         -0.2560    3.6634   -1.6508 C.3       1 <0>        -0.1168
     12 C8         -0.7466    4.7376   -2.6235 C.3       1 <0>        -0.0061
     13 N3         -1.8905    4.2213   -3.3870 N.4       1 <0>        -0.6386
     14 H3         -0.4612    1.9845    1.6426 H         1 <0>         0.1683
     15 H4          0.9313   -1.3257   -0.5402 H         1 <0>         0.2123
     16 H5         -0.1943    4.0639    1.0881 H         1 <0>         0.1066
     17 H6          1.2658    5.1894    1.1409 H         1 <0>         0.1125
     18 H7          0.0499    2.7792   -2.2101 H         1 <0>         0.0850
     19 H8         -1.0610    3.3991   -0.9651 H         1 <0>         0.0919
     20 H9         -1.0524    5.6218   -2.0642 H         1 <0>         0.1370
     21 H10         0.0584    5.0019   -3.3092 H         1 <0>         0.1338
     22 H11        -1.6073    3.4028   -3.9047 H         1 <0>         0.4348
     23 H12        -2.6357    3.9766   -2.7523 H         1 <0>         0.4363
     24 H13        -2.2140    4.9297   -4.0285 H         1 <0>         0.4394
     25 H14         2.2930    0.7406   -1.1851 H         1 <0>         0.4213
@<TRIPOS>BOND
     1    1    5 1
     2    1    2 2
     3    1   14 1
     4    2    3 1
     5    2    6 1
     6    3    4 1
     7    3   25 1
     8    4    5 2
     9    4   15 1
    10    6    7 1
    11    6    9 1
    12    6    8 1
    13    8    9 1
    14    8   16 1
    15    8   17 1
    16    9   10 1
    17    9   11 1
    18   11   12 1
    19   11   18 1
    20   11   19 1
    21   12   13 1
    22   12   20 1
    23   12   21 1
    24   13   22 1
    25   13   23 1
    26   13   24 1
@<TRIPOS>MOLECULE
ZINC35923465
   68    73     0     0     0
SMALL
USER_CHARGES

@<TRIPOS>ATOM
      1 C1         -0.0187    1.5258    0.0104 C.3       1 <0>        -0.1399
      2 C2          0.0021   -0.0041    0.0020 C.3       1 <0>        -0.0330
      3 C3          0.7421   -0.5109    1.2415 C.3       1 <0>        -0.1400
      4 C4         -1.4333   -0.5336    0.0129 C.3       1 <0>        -0.1471
      5 C5          0.7074   -0.4901   -1.2379 C.ar      1 <0>        -0.0514
      6 C6          0.0327   -1.2849   -2.1473 C.ar      1 <0>        -0.1208
      7 C7          0.6729   -1.7334   -3.2842 C.ar      1 <0>        -0.0652
      8 C8          2.0037   -1.3835   -3.5159 C.ar      1 <0>        -0.0350
      9 C9          2.6784   -0.5812   -2.5949 C.ar      1 <0>        -0.0996
     10 C10         2.0252   -0.1349   -1.4646 C.ar      1 <0>        -0.1136
     11 C11         2.6963   -1.8613   -4.7323 C.2       1 <0>         0.3203
     12 N1          3.9979   -1.5854   -5.0581 N.pl3     1 <0>        -0.5983
     13 H1          4.6200   -1.0504   -4.5407 H         1 <0>         0.4215
     14 C12         4.2591   -2.2118   -6.2610 C.ar      1 <0>         0.0575
     15 C13         5.3795   -2.2966   -7.0783 C.ar      1 <0>        -0.1201
     16 C14         5.3243   -3.0198   -8.2508 C.ar      1 <0>        -0.0895
     17 C15         4.1560   -3.6667   -8.6256 C.ar      1 <0>        -0.1364
     18 C16         3.0289   -3.5956   -7.8280 C.ar      1 <0>         0.2275
     19 C17         3.0707   -2.8631   -6.6299 C.ar      1 <0>         0.0438
     20 N2          2.1593   -2.6168   -5.6579 N.2       1 <0>        -0.4644
     21 N3          1.8559   -4.2490   -8.2106 N.pl3     1 <0>        -0.6713
     22 C18         0.8508   -3.5703   -9.0427 C.3       1 <0>         0.1563
     23 C19        -0.5173   -3.7136   -8.3675 C.3       1 <0>         0.0421
     24 N4         -0.7843   -5.1342   -8.1059 N.3       1 <0>        -0.5277
     25 C20         0.1951   -5.6962   -7.1663 C.3       1 <0>         0.0363
     26 C21         1.5953   -5.6362   -7.7974 C.3       1 <0>         0.1574
     27 C22        -2.1556   -5.3309   -7.6171 C.3       1 <0>         0.0905
     28 C23        -2.4742   -6.8036   -7.5939 C.ar      1 <0>        -0.0510
     29 C24        -3.0298   -7.4040   -8.7228 C.ar      1 <0>        -0.0750
     30 C25        -3.3287   -8.7313   -8.7346 C.ar      1 <0>        -0.0847
     31 C26        -3.0752   -9.5128   -7.5937 C.ar      1 <0>         0.0786
     32 C27        -2.5101   -8.9022   -6.4455 C.ar      1 <0>         0.0801
     33 C28        -2.2102   -7.5289   -6.4734 C.ar      1 <0>        -0.0799
     34 N5         -2.2668   -9.6405   -5.3575 N.ar      1 <0>        -0.4256
     35 C29        -2.5533  -10.9225   -5.3632 C.ar      1 <0>         0.0746
     36 C30        -3.1094  -11.5239   -6.4940 C.ar      1 <0>         0.0742
     37 N6         -3.3577  -10.8197   -7.5748 N.ar      1 <0>        -0.4252
     38 H2          1.0039    1.9031    0.0027 H         1 <0>         0.0574
     39 H3         -0.5459    1.8868   -0.8726 H         1 <0>         0.0575
     40 H4         -0.5289    1.8773    0.9072 H         1 <0>         0.0612
     41 H5          0.2319   -0.1594    2.1383 H         1 <0>         0.0612
     42 H6          0.7568   -1.6008    1.2356 H         1 <0>         0.0576
     43 H7          1.7647   -0.1336    1.2338 H         1 <0>         0.0574
     44 H8         -1.9605   -0.1726   -0.8702 H         1 <0>         0.0601
     45 H9         -1.4185   -1.6235    0.0069 H         1 <0>         0.0602
     46 H10        -1.9435   -0.1821    0.9097 H         1 <0>         0.0609
     47 H11        -0.9973   -1.5550   -1.9668 H         1 <0>         0.1343
     48 H12         0.1454   -2.3544   -3.9930 H         1 <0>         0.1354
     49 H13         3.7086   -0.3071   -2.7684 H         1 <0>         0.1190
     50 H14         2.5450    0.4897   -0.7531 H         1 <0>         0.1280
     51 H15         6.2935   -1.7957   -6.7953 H         1 <0>         0.1230
     52 H16         6.1978   -3.0827   -8.8828 H         1 <0>         0.1326
     53 H17         4.1264   -4.2295   -9.5469 H         1 <0>         0.1310
     54 H18         1.1046   -2.5143   -9.1353 H         1 <0>         0.0688
     55 H19         0.8217   -4.0307  -10.0303 H         1 <0>         0.0580
     56 H20        -0.5177   -3.1640   -7.4262 H         1 <0>         0.0438
     57 H21        -1.2904   -3.3130   -9.0233 H         1 <0>         0.0781
     58 H22         0.1848   -5.1191   -6.2417 H         1 <0>         0.0439
     59 H23        -0.0612   -6.7335   -6.9509 H         1 <0>         0.0782
     60 H24         1.6364   -6.2914   -8.6675 H         1 <0>         0.0570
     61 H25         2.3415   -5.9468   -7.0661 H         1 <0>         0.0673
     62 H26        -2.2441   -4.9240   -6.6098 H         1 <0>         0.0477
     63 H27        -2.8541   -4.8184   -8.2787 H         1 <0>         0.0893
     64 H28        -3.2262   -6.8066   -9.6009 H         1 <0>         0.1379
     65 H29        -3.7592   -9.1824   -9.6164 H         1 <0>         0.1408
     66 H30        -1.7755   -7.0510   -5.6080 H         1 <0>         0.1361
     67 H31        -2.3564  -11.5178   -4.4839 H         1 <0>         0.1750
     68 H32        -3.3379  -12.5793   -6.4799 H         1 <0>         0.1752
@<TRIPOS>BOND
     1    1    2 1
     2    1   38 1
     3    1   39 1
     4    1   40 1
     5    2    3 1
     6    2    4 1
     7    2    5 1
     8    3   41 1
     9    3   42 1
    10    3   43 1
    11    4   44 1
    12    4   45 1
    13    4   46 1
    14    5   10 ar
    15    5    6 ar
    16    6    7 ar
    17    6   47 1
    18    7    8 ar
    19    7   48 1
    20    8    9 ar
    21    8   11 1
    22    9   10 ar
    23    9   49 1
    24   10   50 1
    25   11   20 2
    26   11   12 1
    27   12   13 1
    28   12   14 1
    29   14   19 ar
    30   14   15 ar
    31   15   16 ar
    32   15   51 1
    33   16   17 ar
    34   16   52 1
    35   17   18 ar
    36   17   53 1
    37   18   19 ar
    38   18   21 1
    39   19   20 1
    40   21   26 1
    41   21   22 1
    42   22   23 1
    43   22   54 1
    44   22   55 1
    45   23   24 1
    46   23   56 1
    47   23   57 1
    48   24   25 1
    49   24   27 1
    50   25   26 1
    51   25   58 1
    52   25   59 1
    53   26   60 1
    54   26   61 1
    55   27   28 1
    56   27   62 1
    57   27   63 1
    58   28   33 ar
    59   28   29 ar
    60   29   30 ar
    61   29   64 1
    62   30   31 ar
    63   30   65 1
    64   31   37 ar
    65   31   32 ar
    66   32   33 ar
    67   32   34 ar
    68   33   66 1
    69   34   35 ar
    70   35   36 ar
    71   35   67 1
    72   36   37 ar
    73   36   68 1
@<TRIPOS>MOLECULE
ZINC35923465
   69    74     0     0     0
SMALL
USER_CHARGES

@<TRIPOS>ATOM
      1 C1         -0.0187    1.5258    0.0104 C.3       1 <0>        -0.1403
      2 C2          0.0021   -0.0041    0.0020 C.3       1 <0>        -0.0351
      3 C3          0.7421   -0.5109    1.2415 C.3       1 <0>        -0.1402
      4 C4         -1.4333   -0.5336    0.0129 C.3       1 <0>        -0.1497
      5 C5          0.7074   -0.4901   -1.2379 C.ar      1 <0>        -0.0422
      6 C6          0.0327   -1.2848   -2.1473 C.ar      1 <0>        -0.1174
      7 C7          0.6729   -1.7330   -3.2844 C.ar      1 <0>        -0.0606
      8 C8          2.0035   -1.3831   -3.5161 C.ar      1 <0>        -0.0474
      9 C9          2.6784   -0.5813   -2.5950 C.ar      1 <0>        -0.1000
     10 C10         2.0252   -0.1349   -1.4646 C.ar      1 <0>        -0.1148
     11 C11         2.6961   -1.8605   -4.7329 C.2       1 <0>         0.3383
     12 N1          2.1566   -2.6110   -5.6621 N.2       1 <0>        -0.4727
     13 C12         3.0688   -2.8617   -6.6323 C.ar      1 <0>         0.0600
     14 C13         3.0260   -3.5919   -7.8266 C.ar      1 <0>        -0.0496
     15 C14         4.1339   -3.6674   -8.6214 C.ar      1 <0>        -0.1207
     16 C15         5.3106   -3.0272   -8.2607 C.ar      1 <0>        -0.0893
     17 C16         5.3796   -2.2990   -7.0845 C.ar      1 <0>         0.1463
     18 C17         4.2570   -2.2113   -6.2624 C.ar      1 <0>         0.0494
     19 N2          3.9943   -1.5804   -5.0607 N.pl3     1 <0>        -0.5967
     20 N3          6.5677   -1.6558   -6.7239 N.pl3     1 <0>        -0.6741
     21 C18         7.5854   -2.3447   -5.9152 C.3       1 <0>         0.1173
     22 C19         7.9673   -1.4384   -4.7402 C.3       1 <0>        -0.0239
     23 N4          8.3849   -0.1266   -5.2507 N.4       1 <0>        -0.3792
     24 C20         7.2529    0.5370   -5.9098 C.3       1 <0>        -0.0315
     25 C21         6.8381   -0.2733   -7.1475 C.3       1 <0>         0.1204
     26 C22         8.8549    0.7044   -4.1342 C.3       1 <0>         0.0416
     27 C23         9.3979    2.0043   -4.6694 C.ar      1 <0>        -0.1373
     28 C24        10.7463    2.0964   -5.0115 C.ar      1 <0>        -0.0999
     29 C25        11.2677    3.2552   -5.4977 C.ar      1 <0>        -0.0580
     30 C26        10.4383    4.3790   -5.6592 C.ar      1 <0>         0.0932
     31 C27         9.0669    4.2853   -5.3112 C.ar      1 <0>         0.0685
     32 C28         8.5638    3.0691   -4.8168 C.ar      1 <0>        -0.0437
     33 N5          8.2732    5.3507   -5.4627 N.ar      1 <0>        -0.4213
     34 C29         8.7713    6.4721   -5.9317 C.ar      1 <0>         0.0937
     35 C30        10.1217    6.5642   -6.2748 C.ar      1 <0>         0.1030
     36 N6         10.9214    5.5315   -6.1350 N.ar      1 <0>        -0.4231
     37 H1          1.0039    1.9031    0.0027 H         1 <0>         0.0558
     38 H2         -0.5459    1.8868   -0.8726 H         1 <0>         0.0584
     39 H3         -0.5289    1.8773    0.9072 H         1 <0>         0.0641
     40 H4          0.2319   -0.1594    2.1383 H         1 <0>         0.0641
     41 H5          0.7568   -1.6008    1.2356 H         1 <0>         0.0584
     42 H6          1.7647   -0.1336    1.2338 H         1 <0>         0.0558
     43 H7         -1.9605   -0.1726   -0.8702 H         1 <0>         0.0615
     44 H8         -1.4185   -1.6235    0.0069 H         1 <0>         0.0615
     45 H9         -1.9435   -0.1821    0.9097 H         1 <0>         0.0638
     46 H10        -0.9971   -1.5553   -1.9667 H         1 <0>         0.1393
     47 H11         0.1452   -2.3537   -3.9935 H         1 <0>         0.1409
     48 H12         3.7084   -0.3069   -2.7686 H         1 <0>         0.1105
     49 H13         2.5451    0.4894   -0.7530 H         1 <0>         0.1285
     50 H14         2.1165   -4.0957   -8.1190 H         1 <0>         0.1375
     51 H15         4.0937   -4.2322   -9.5411 H         1 <0>         0.1385
     52 H16         6.1779   -3.0972   -8.9004 H         1 <0>         0.1336
     53 H17         7.1794   -3.2830   -5.5372 H         1 <0>         0.1174
     54 H18         8.4660   -2.5430   -6.5261 H         1 <0>         0.0835
     55 H19         7.1074   -1.3153   -4.0818 H         1 <0>         0.1240
     56 H20         8.7889   -1.8905   -4.1846 H         1 <0>         0.1419
     57 H21         6.4147    0.6004   -5.2160 H         1 <0>         0.1244
     58 H22         7.5481    1.5406   -6.2160 H         1 <0>         0.1369
     59 H23         7.6446   -0.2659   -7.8807 H         1 <0>         0.0829
     60 H24         5.9378    0.1586   -7.5846 H         1 <0>         0.1157
     61 H25         8.0243    0.9083   -3.4584 H         1 <0>         0.1372
     62 H26         9.6413    0.1768   -3.5946 H         1 <0>         0.1452
     63 H27        11.3864    1.2353   -4.8884 H         1 <0>         0.1444
     64 H28        12.3143    3.3118   -5.7581 H         1 <0>         0.1528
     65 H29         7.5205    2.9815   -4.5517 H         1 <0>         0.1464
     66 H30         8.1293    7.3320   -6.0536 H         1 <0>         0.1875
     67 H31        10.5129    7.4946   -6.6591 H         1 <0>         0.1880
     68 H32         4.6149   -1.0417   -4.5454 H         1 <0>         0.4118
     69 H33         9.1347   -0.2486   -5.9148 H         1 <0>         0.4248
@<TRIPOS>BOND
     1    1    2 1
     2    1   37 1
     3    1   38 1
     4    1   39 1
     5    2    3 1
     6    2    4 1
     7    2    5 1
     8    3   40 1
     9    3   41 1
    10    3   42 1
    11    4   43 1
    12    4   44 1
    13    4   45 1
    14    5   10 ar
    15    5    6 ar
    16    6    7 ar
    17    6   46 1
    18    7    8 ar
    19    7   47 1
    20    8    9 ar
    21    8   11 1
    22    9   10 ar
    23    9   48 1
    24   10   49 1
    25   11   19 1
    26   11   12 2
    27   12   13 1
    28   13   18 ar
    29   13   14 ar
    30   14   15 ar
    31   14   50 1
    32   15   16 ar
    33   15   51 1
    34   16   17 ar
    35   16   52 1
    36   17   18 ar
    37   17   20 1
    38   18   19 1
    39   19   68 1
    40   20   25 1
    41   20   21 1
    42   21   22 1
    43   21   53 1
    44   21   54 1
    45   22   23 1
    46   22   55 1
    47   22   56 1
    48   23   24 1
    49   23   26 1
    50   23   69 1
    51   24   25 1
    52   24   57 1
    53   24   58 1
    54   25   59 1
    55   25   60 1
    56   26   27 1
    57   26   61 1
    58   26   62 1
    59   27   32 ar
    60   27   28 ar
    61   28   29 ar
    62   28   63 1
    63   29   30 ar
    64   29   64 1
    65   30   36 ar
    66   30   31 ar
    67   31   32 ar
    68   31   33 ar
    69   32   65 1
    70   33   34 ar
    71   34   35 ar
    72   34   66 1
    73   35   36 ar
    74   35   67 1
@<TRIPOS>MOLECULE
ZINC42887577
   51    55     0     0     0
SMALL
USER_CHARGES

@<TRIPOS>ATOM
      1 C1         -0.0518    1.5017   -0.1148 C.3       1 <0>        -0.1240
      2 C2          1.3896    2.0009   -0.1884 C.3       1 <0>        -0.1233
      3 C3          2.1792    1.5324    1.0162 C.3       1 <0>        -0.1236
      4 C4          2.0195    0.0939    1.3795 C.3       1 <0>         0.0936
      5 H1          2.2717   -0.0155    2.4343 H         1 <0>         0.0954
      6 C5          0.6350   -0.5290    1.1646 C.3       1 <0>        -0.0591
      7 H2         -0.0167   -0.3840    2.0262 H         1 <0>         0.1072
      8 C6         -0.0335   -0.0263   -0.0957 C.3       1 <0>        -0.1163
      9 C7          1.0170   -1.9803    0.9762 C.2       1 <0>        -0.3344
     10 C8          2.3328   -2.0225    0.6739 C.2       1 <0>         0.2511
     11 O1          2.8682   -0.7933    0.6365 O.3       1 <0>        -0.2589
     12 C9          3.0235   -3.3350    0.3757 C.3       1 <0>        -0.0898
     13 C10         2.3849   -4.4569    1.1913 C.3       1 <0>        -0.0540
     14 C11         0.8856   -4.4170    1.1377 C.ar      1 <0>        -0.2237
     15 C12         0.2049   -3.1948    1.0601 C.ar      1 <0>         0.3605
     16 N1         -1.1238   -3.1799    1.0574 N.ar      1 <0>        -0.5496
     17 C13        -1.8045   -4.3176    1.0919 C.ar      1 <0>         0.6483
     18 N2         -1.1964   -5.4936    1.1387 N.ar      1 <0>        -0.5521
     19 C14         0.1326   -5.5842    1.1657 C.ar      1 <0>         0.5268
     20 N3          0.7537   -6.8224    1.2213 N.pl3     1 <0>        -0.6706
     21 C15         1.1158   -7.4297    2.5114 C.3       1 <0>         0.1172
     22 C16         0.5808   -8.8652    2.5396 C.3       1 <0>        -0.0241
     23 N4          1.0770   -9.5946    1.3658 N.4       1 <0>        -0.5044
     24 C17         0.5361   -8.9955    0.1392 C.3       1 <0>        -0.0241
     25 C18         1.0638   -7.5690   -0.0077 C.3       1 <0>         0.1164
     26 N5         -3.1878   -4.2751    1.0794 N.pl3     1 <0>        -0.7861
     27 H3         -0.5233    1.8744    0.7945 H         1 <0>         0.0723
     28 H4         -0.6061    1.8511   -0.9859 H         1 <0>         0.0790
     29 H5          1.8567    1.6173   -1.0955 H         1 <0>         0.0679
     30 H6          1.3913    3.0905   -0.2174 H         1 <0>         0.0831
     31 H7          3.2358    1.7200    0.8248 H         1 <0>         0.0919
     32 H8          1.8815    2.1354    1.8741 H         1 <0>         0.0970
     33 H9         -1.0557   -0.4014   -0.1447 H         1 <0>         0.0613
     34 H10         0.5270   -0.3925   -0.9558 H         1 <0>         0.0705
     35 H11         2.9287   -3.5606   -0.6864 H         1 <0>         0.1212
     36 H12         4.0793   -3.2553    0.6345 H         1 <0>         0.1271
     37 H13         2.7271   -5.4157    0.8020 H         1 <0>         0.1112
     38 H14         2.7040   -4.3648    2.2295 H         1 <0>         0.1008
     39 H15         2.2003   -7.4408    2.6194 H         1 <0>         0.1031
     40 H16         0.6696   -6.8565    3.3241 H         1 <0>         0.1198
     41 H17         0.9220   -9.3625    3.4475 H         1 <0>         0.1503
     42 H18        -0.5090   -8.8474    2.5225 H         1 <0>         0.1373
     43 H19         2.0848   -9.5495    1.3446 H         1 <0>         0.4310
     44 H20         0.8444   -9.5888   -0.7216 H         1 <0>         0.1504
     45 H21        -0.5523   -8.9737    0.1947 H         1 <0>         0.1374
     46 H22         0.5833   -7.0878   -0.8596 H         1 <0>         0.1202
     47 H23         2.1430   -7.5944   -0.1584 H         1 <0>         0.1025
     48 H24        -3.6465   -3.4211    1.0456 H         1 <0>         0.4335
     49 H25        -3.6986   -5.0994    1.1043 H         1 <0>         0.4469
     50 H26         0.7871  -10.5594    1.4236 H         1 <0>         0.4402
     51 H27        -1.5976   -2.3339    1.0303 H         1 <0>         0.4460
@<TRIPOS>BOND
     1    1    8 1
     2    1    2 1
     3    1   27 1
     4    1   28 1
     5    2    3 1
     6    2   29 1
     7    2   30 1
     8    3    4 1
     9    3   31 1
    10    3   32 1
    11    4    5 1
    12    4   11 1
    13    4    6 1
    14    6    7 1
    15    6    8 1
    16    6    9 1
    17    8   33 1
    18    8   34 1
    19    9   15 1
    20    9   10 2
    21   10   11 1
    22   10   12 1
    23   12   13 1
    24   12   35 1
    25   12   36 1
    26   13   14 1
    27   13   37 1
    28   13   38 1
    29   14   19 ar
    30   14   15 ar
    31   15   16 ar
    32   16   17 ar
    33   16   51 1
    34   17   18 ar
    35   17   26 1
    36   18   19 ar
    37   19   20 1
    38   20   25 1
    39   20   21 1
    40   21   22 1
    41   21   39 1
    42   21   40 1
    43   22   23 1
    44   22   41 1
    45   22   42 1
    46   23   24 1
    47   23   43 1
    48   23   50 1
    49   24   25 1
    50   24   44 1
    51   24   45 1
    52   25   46 1
    53   25   47 1
    54   26   48 1
    55   26   49 1
@<TRIPOS>MOLECULE
ZINC42887577
   50    54     0     0     0
SMALL
USER_CHARGES

@<TRIPOS>ATOM
      1 C1         -0.0518    1.5017   -0.1148 C.3       1 <0>        -0.1220
      2 C2          1.3896    2.0009   -0.1884 C.3       1 <0>        -0.1192
      3 C3          2.1792    1.5324    1.0162 C.3       1 <0>        -0.1147
      4 C4          2.0195    0.0939    1.3795 C.3       1 <0>         0.0898
      5 H1          2.2717   -0.0155    2.4343 H         1 <0>         0.0758
      6 C5          0.6350   -0.5290    1.1646 C.3       1 <0>        -0.0477
      7 H2         -0.0167   -0.3840    2.0262 H         1 <0>         0.0960
      8 C6         -0.0335   -0.0263   -0.0957 C.3       1 <0>        -0.1049
      9 C7          1.0170   -1.9803    0.9762 C.2       1 <0>        -0.2453
     10 C8          2.3328   -2.0225    0.6739 C.2       1 <0>         0.1401
     11 O1          2.8682   -0.7933    0.6365 O.3       1 <0>        -0.2869
     12 C9          3.0235   -3.3350    0.3757 C.3       1 <0>        -0.0663
     13 C10         2.3849   -4.4569    1.1913 C.3       1 <0>        -0.0450
     14 C11         0.8856   -4.4170    1.1377 C.ar      1 <0>        -0.2541
     15 C12         0.2049   -3.1948    1.0601 C.ar      1 <0>         0.3245
     16 N1         -1.1238   -3.1799    1.0574 N.ar      1 <0>        -0.5564
     17 C13        -1.8045   -4.3176    1.0919 C.ar      1 <0>         0.5906
     18 N2         -1.1964   -5.4936    1.1387 N.ar      1 <0>        -0.6006
     19 C14         0.1326   -5.5842    1.1657 C.ar      1 <0>         0.4501
     20 N3          0.7537   -6.8224    1.2213 N.pl3     1 <0>        -0.6608
     21 C15         1.1158   -7.4297    2.5114 C.3       1 <0>         0.1219
     22 C16         0.5808   -8.8652    2.5396 C.3       1 <0>        -0.0241
     23 N4          1.0770   -9.5946    1.3658 N.4       1 <0>        -0.5018
     24 C17         0.5361   -8.9955    0.1392 C.3       1 <0>        -0.0239
     25 C18         1.0638   -7.5690   -0.0077 C.3       1 <0>         0.1212
     26 N5         -3.1878   -4.2751    1.0794 N.pl3     1 <0>        -0.8176
     27 H3         -0.5233    1.8744    0.7945 H         1 <0>         0.0664
     28 H4         -0.6061    1.8511   -0.9859 H         1 <0>         0.0695
     29 H5          1.8567    1.6173   -1.0955 H         1 <0>         0.0639
     30 H6          1.3913    3.0905   -0.2174 H         1 <0>         0.0723
     31 H7          3.2358    1.7200    0.8248 H         1 <0>         0.0806
     32 H8          1.8815    2.1354    1.8741 H         1 <0>         0.0857
     33 H9         -1.0557   -0.4014   -0.1447 H         1 <0>         0.0725
     34 H10         0.5270   -0.3925   -0.9558 H         1 <0>         0.0586
     35 H11         2.9287   -3.5606   -0.6864 H         1 <0>         0.0972
     36 H12         4.0793   -3.2553    0.6345 H         1 <0>         0.1003
     37 H13         2.7271   -5.4157    0.8020 H         1 <0>         0.0853
     38 H14         2.7040   -4.3648    2.2295 H         1 <0>         0.0768
     39 H15         2.2003   -7.4408    2.6194 H         1 <0>         0.0885
     40 H16         0.6696   -6.8565    3.3241 H         1 <0>         0.1147
     41 H17         0.9220   -9.3625    3.4475 H         1 <0>         0.1413
     42 H18        -0.5090   -8.8474    2.5225 H         1 <0>         0.1345
     43 H19         2.0848   -9.5495    1.3446 H         1 <0>         0.4272
     44 H20         0.8444   -9.5888   -0.7216 H         1 <0>         0.1416
     45 H21        -0.5523   -8.9737    0.1947 H         1 <0>         0.1346
     46 H22         0.5833   -7.0878   -0.8596 H         1 <0>         0.1152
     47 H23         2.1430   -7.5944   -0.1584 H         1 <0>         0.0877
     48 H24        -3.6465   -3.4211    1.0456 H         1 <0>         0.4194
     49 H25        -3.6986   -5.0994    1.1043 H         1 <0>         0.4149
     50 H26         0.7871  -10.5594    1.4236 H         1 <0>         0.4326
@<TRIPOS>BOND
     1    1    8 1
     2    1    2 1
     3    1   27 1
     4    1   28 1
     5    2    3 1
     6    2   29 1
     7    2   30 1
     8    3    4 1
     9    3   31 1
    10    3   32 1
    11    4    5 1
    12    4   11 1
    13    4    6 1
    14    6    7 1
    15    6    8 1
    16    6    9 1
    17    8   33 1
    18    8   34 1
    19    9   15 1
    20    9   10 2
    21   10   11 1
    22   10   12 1
    23   12   13 1
    24   12   35 1
    25   12   36 1
    26   13   14 1
    27   13   37 1
    28   13   38 1
    29   14   19 ar
    30   14   15 ar
    31   15   16 ar
    32   16   17 ar
    33   17   18 ar
    34   17   26 1
    35   18   19 ar
    36   19   20 1
    37   20   25 1
    38   20   21 1
    39   21   22 1
    40   21   39 1
    41   21   40 1
    42   22   23 1
    43   22   41 1
    44   22   42 1
    45   23   24 1
    46   23   43 1
    47   23   50 1
    48   24   25 1
    49   24   44 1
    50   24   45 1
    51   25   46 1
    52   25   47 1
    53   26   48 1
    54   26   49 1
@<TRIPOS>MOLECULE
ZINC42887577
   51    55     0     0     0
SMALL
USER_CHARGES

@<TRIPOS>ATOM
      1 C1         -0.0530    1.5009   -0.1188 C.3       1 <0>        -0.1241
      2 C2          1.3884    2.0000   -0.1944 C.3       1 <0>        -0.1226
      3 C3          2.1794    1.5322    1.0096 C.3       1 <0>        -0.1211
      4 C4          2.0201    0.0940    1.3739 C.3       1 <0>         0.0885
      5 H1          2.2735   -0.0148    2.4285 H         1 <0>         0.0910
      6 C5          0.6353   -0.5290    1.1610 C.3       1 <0>        -0.0474
      7 H2         -0.0154   -0.3835    2.0233 H         1 <0>         0.1079
      8 C6         -0.0346   -0.0270   -0.0987 C.3       1 <0>        -0.1091
      9 C7          1.0170   -1.9805    0.9730 C.2       1 <0>        -0.2880
     10 C8          2.3324   -2.0229    0.6692 C.2       1 <0>         0.2249
     11 O1          2.8679   -0.7937    0.6305 O.3       1 <0>        -0.2629
     12 C9          3.0227   -3.3356    0.3710 C.3       1 <0>        -0.0848
     13 C10         2.3850   -4.4570    1.1880 C.3       1 <0>        -0.0597
     14 C11         0.8856   -4.4170    1.1361 C.ar      1 <0>        -0.1763
     15 C12         0.2049   -3.1948    1.0586 C.ar      1 <0>         0.3893
     16 N1         -1.1238   -3.1799    1.0574 N.ar      1 <0>        -0.5112
     17 C13        -1.8045   -4.3176    1.0935 C.ar      1 <0>         0.6478
     18 N2         -1.1964   -5.4935    1.1402 N.ar      1 <0>        -0.5789
     19 C14         0.1326   -5.5842    1.1657 C.ar      1 <0>         0.4358
     20 N3          0.7537   -6.8224    1.2213 N.pl3     1 <0>        -0.6731
     21 C15         1.1158   -7.4297    2.5114 C.3       1 <0>         0.1064
     22 C16         0.5808   -8.8652    2.5396 C.3       1 <0>        -0.0246
     23 N4          1.0770   -9.5946    1.3658 N.4       1 <0>        -0.5057
     24 C17         0.5361   -8.9955    0.1392 C.3       1 <0>        -0.0245
     25 C18         1.0638   -7.5690   -0.0077 C.3       1 <0>         0.1048
     26 N5         -3.1878   -4.2750    1.0825 N.pl3     1 <0>        -0.7858
     27 H3         -0.5234    1.8742    0.7909 H         1 <0>         0.0704
     28 H4         -0.6083    1.8498   -0.9894 H         1 <0>         0.0754
     29 H5          1.8544    1.6159   -1.1017 H         1 <0>         0.0659
     30 H6          1.3901    3.0896   -0.2240 H         1 <0>         0.0797
     31 H7          3.2357    1.7197    0.8169 H         1 <0>         0.0881
     32 H8          1.8828    2.1357    1.8674 H         1 <0>         0.0950
     33 H9         -1.0570   -0.4021   -0.1463 H         1 <0>         0.0741
     34 H10         0.5248   -0.3938   -0.9593 H         1 <0>         0.0610
     35 H11         2.9266   -3.5619   -0.6909 H         1 <0>         0.1187
     36 H12         4.0788   -3.2558    0.6285 H         1 <0>         0.1259
     37 H13         2.7267   -5.4161    0.7988 H         1 <0>         0.1069
     38 H14         2.7053   -4.3643    2.2258 H         1 <0>         0.1056
     39 H15         2.2003   -7.4408    2.6194 H         1 <0>         0.1105
     40 H16         0.6696   -6.8565    3.3241 H         1 <0>         0.1251
     41 H17         0.9220   -9.3625    3.4475 H         1 <0>         0.1558
     42 H18        -0.5090   -8.8474    2.5225 H         1 <0>         0.1333
     43 H19         2.0848   -9.5495    1.3446 H         1 <0>         0.4347
     44 H20         0.8444   -9.5888   -0.7216 H         1 <0>         0.1561
     45 H21        -0.5523   -8.9737    0.1947 H         1 <0>         0.1330
     46 H22         0.5833   -7.0878   -0.8596 H         1 <0>         0.1249
     47 H23         2.1430   -7.5944   -0.1584 H         1 <0>         0.1103
     48 H24        -3.6465   -3.4210    1.0488 H         1 <0>         0.4503
     49 H25        -3.6987   -5.0992    1.1085 H         1 <0>         0.4297
     50 H26         0.7871  -10.5594    1.4236 H         1 <0>         0.4428
     51 H27        -1.7289   -6.3042    1.1559 H         1 <0>         0.4302
@<TRIPOS>BOND
     1    1    8 1
     2    1    2 1
     3    1   27 1
     4    1   28 1
     5    2    3 1
     6    2   29 1
     7    2   30 1
     8    3    4 1
     9    3   31 1
    10    3   32 1
    11    4    5 1
    12    4   11 1
    13    4    6 1
    14    6    7 1
    15    6    8 1
    16    6    9 1
    17    8   33 1
    18    8   34 1
    19    9   15 1
    20    9   10 2
    21   10   11 1
    22   10   12 1
    23   12   13 1
    24   12   35 1
    25   12   36 1
    26   13   14 1
    27   13   37 1
    28   13   38 1
    29   14   19 ar
    30   14   15 ar
    31   15   16 ar
    32   16   17 ar
    33   17   18 ar
    34   17   26 1
    35   18   19 ar
    36   18   51 1
    37   19   20 1
    38   20   25 1
    39   20   21 1
    40   21   22 1
    41   21   39 1
    42   21   40 1
    43   22   23 1
    44   22   41 1
    45   22   42 1
    46   23   24 1
    47   23   43 1
    48   23   50 1
    49   24   25 1
    50   24   44 1
    51   24   45 1
    52   25   46 1
    53   25   47 1
    54   26   48 1
    55   26   49 1
@<TRIPOS>MOLECULE
ZINC18217584
   18    18     0     0     0
SMALL
USER_CHARGES

@<TRIPOS>ATOM
      1 C1         -0.0165    1.3646    0.0095 C.2       1 <0>        -0.0270
      2 C2          1.2671    1.7717   -0.0005 C.2       1 <0>        -0.0303
      3 N1          2.0482    0.6814   -0.0138 N.2       1 <0>        -0.4943
      4 C3          1.2973   -0.3859   -0.0124 C.2       1 <0>         0.2060
      5 N2          0.0021   -0.0041    0.0020 N.pl3     1 <0>        -0.5630
      6 H1         -0.7708   -0.5902    0.0065 H         1 <0>         0.4305
      7 C4          1.7427    3.2017    0.0026 C.3       1 <0>        -0.0519
      8 C5          2.7000    3.4183    1.1763 C.3       1 <0>        -0.0028
      9 N3          3.1635    4.8122    1.1794 N.4       1 <0>        -0.6379
     10 H2         -0.8922    1.9965    0.0253 H         1 <0>         0.1810
     11 H3          1.6529   -1.4057   -0.0218 H         1 <0>         0.2158
     12 H4          2.2605    3.4145   -0.9326 H         1 <0>         0.0964
     13 H5          0.8868    3.8690    0.1039 H         1 <0>         0.0968
     14 H6          2.1821    3.2055    2.1116 H         1 <0>         0.1320
     15 H7          3.5559    2.7510    1.0750 H         1 <0>         0.1402
     16 H8          3.7948    4.9550    1.9534 H         1 <0>         0.4390
     17 H9          3.6429    5.0092    0.3137 H         1 <0>         0.4357
     18 H10         2.3712    5.4299    1.2732 H         1 <0>         0.4338
@<TRIPOS>BOND
     1    1    5 1
     2    1    2 2
     3    1   10 1
     4    2    3 1
     5    2    7 1
     6    3    4 2
     7    4    5 1
     8    4   11 1
     9    5    6 1
    10    7    8 1
    11    7   12 1
    12    7   13 1
    13    8    9 1
    14    8   14 1
    15    8   15 1
    16    9   16 1
    17    9   17 1
    18    9   18 1
