@<TRIPOS>MOLECULE
ZINC02566243
   22    23     0     0     0
SMALL
USER_CHARGES
2-methoxynaphthalene-1,4-dione
@<TRIPOS>ATOM
      1 C1         -3.6019    7.4673    0.0758 C.3       1 <0>         0.0161
      2 O1         -3.6799    6.0405    0.0688 O.3       1 <0>        -0.2865
      3 C2         -2.5095    5.3613    0.0540 C.2       1 <0>         0.1088
      4 C3         -1.3440    6.0404    0.0460 C.2       1 <0>        -0.2930
      5 C4         -0.0602    5.3331    0.0304 C.2       1 <0>         0.4341
      6 O2          0.9807    5.9616    0.0242 O.2       1 <0>        -0.4346
      7 C5         -0.0320    3.8530    0.0221 C.ar      1 <0>        -0.1197
      8 C6          1.1743    3.1651    0.0074 C.ar      1 <0>        -0.0679
      9 C7          1.1769    1.7785    0.0004 C.ar      1 <0>        -0.0924
     10 C8         -0.0126    1.0758    0.0080 C.ar      1 <0>        -0.1002
     11 C9         -1.2246    1.7480    0.0174 C.ar      1 <0>        -0.0601
     12 C10        -1.2428    3.1381    0.0299 C.ar      1 <0>        -0.1217
     13 C11        -2.5219    3.8792    0.0461 C.2       1 <0>         0.4374
     14 O3         -3.5765    3.2773    0.0533 O.2       1 <0>        -0.3966
     15 H1         -3.0606    7.7973    0.9624 H         1 <0>         0.0670
     16 H2         -3.0776    7.8069   -0.8174 H         1 <0>         0.0670
     17 H3         -4.6082    7.8861    0.0877 H         1 <0>         0.1127
     18 H4         -1.3569    7.1203    0.0516 H         1 <0>         0.1561
     19 H5          2.1076    3.7085    0.0017 H         1 <0>         0.1457
     20 H6          2.1154    1.2440   -0.0115 H         1 <0>         0.1406
     21 H7          0.0021   -0.0041    0.0020 H         1 <0>         0.1414
     22 H8         -2.1517    1.1939    0.0187 H         1 <0>         0.1461
@<TRIPOS>BOND
     1    1    2 1
     2    1   15 1
     3    1   16 1
     4    1   17 1
     5    2    3 1
     6    3   13 1
     7    3    4 2
     8    4    5 1
     9    4   18 1
    10    5    6 2
    11    5    7 1
    12    7   12 ar
    13    7    8 ar
    14    8    9 ar
    15    8   19 1
    16    9   10 ar
    17    9   20 1
    18   10   11 ar
    19   10   21 1
    20   11   12 ar
    21   11   22 1
    22   12   13 1
    23   13   14 2
@<TRIPOS>MOLECULE
ZINC00096711
   22    22     0     0     0
SMALL
USER_CHARGES

@<TRIPOS>ATOM
      1 C1         -0.0167    1.3780    0.0096 C.ar      1 <0>        -0.1106
      2 C2          1.1709    2.0861    0.0021 C.ar      1 <0>        -0.0750
      3 C3          2.3773    1.4123   -0.0135 C.ar      1 <0>        -0.1063
      4 C4          2.3967    0.0287   -0.0210 C.ar      1 <0>        -0.0124
      5 C5          1.2083   -0.6792   -0.0130 C.ar      1 <0>        -0.1020
      6 C6          0.0021   -0.0041    0.0020 C.ar      1 <0>        -0.0781
      7 C7          1.2286   -2.1860   -0.0218 C.3       1 <0>        -0.0866
      8 S1          1.2540   -2.8003    1.6849 S.3       1 <0>         0.0603
      9 C8          1.2758   -4.5531    1.5067 C.cat     1 <0>         0.4838
     10 N1          1.8726   -5.3093    2.4281 N.pl3     1 <0>        -0.7365
     11 N2          0.6957   -5.1230    0.4505 N.pl3     1 <0>        -0.7650
     12 Cl1         3.9119   -0.8184   -0.0411 Cl        1 <0>        -0.0524
     13 H1         -0.9592    1.9049    0.0259 H         1 <0>         0.1425
     14 H2          1.1556    3.1659    0.0080 H         1 <0>         0.1450
     15 H3          3.3048    1.9655   -0.0201 H         1 <0>         0.1460
     16 H4         -0.9258   -0.5566    0.0079 H         1 <0>         0.1407
     17 H5          0.3384   -2.5584   -0.5287 H         1 <0>         0.1209
     18 H6          2.1181   -2.5344   -0.5466 H         1 <0>         0.1272
     19 H7          2.2948   -4.8946    3.1967 H         1 <0>         0.4513
     20 H8          0.2614   -4.5727   -0.2199 H         1 <0>         0.4426
     21 H9          0.7077   -6.0879    0.3525 H         1 <0>         0.4316
     22 H10         1.8846   -6.2742    2.3300 H         1 <0>         0.4328
@<TRIPOS>BOND
     1    1    6 ar
     2    1    2 ar
     3    1   13 1
     4    2    3 ar
     5    2   14 1
     6    3    4 ar
     7    3   15 1
     8    4    5 ar
     9    4   12 1
    10    5    6 ar
    11    5    7 1
    12    6   16 1
    13    7    8 1
    14    7   17 1
    15    7   18 1
    16    8    9 1
    17    9   10 2
    18    9   11 1
    19   10   19 1
    20   10   22 1
    21   11   20 1
    22   11   21 1
@<TRIPOS>MOLECULE
ZINC00096804
   22    22     0     0     0
SMALL
USER_CHARGES
(3-chlorophenyl)methylsulfanylformamidine
@<TRIPOS>ATOM
      1 C1          1.1746    1.7831    0.0004 C.ar      1 <0>        -0.1008
      2 C2          1.1560    3.1656    0.0081 C.ar      1 <0>        -0.0881
      3 C3         -0.0498    3.8410    0.0228 C.ar      1 <0>        -0.0963
      4 C4         -1.2380    3.1346    0.0299 C.ar      1 <0>        -0.0855
      5 C5         -1.2201    1.7515    0.0174 C.ar      1 <0>        -0.0354
      6 C6         -0.0126    1.0758    0.0080 C.ar      1 <0>        -0.0822
      7 Cl1        -2.7119    0.8636    0.0190 Cl        1 <0>        -0.0464
      8 C7         -0.0692    5.3479    0.0306 C.3       1 <0>        -0.1033
      9 S1         -0.0930    5.9598   -1.6726 S.3       1 <0>         0.0722
     10 C8         -0.1126    7.6962   -1.3737 C.cat     1 <0>         0.4782
     11 N1         -0.1071    8.1473   -0.1499 N.pl3     1 <0>        -0.7888
     12 N2         -0.1338    8.5760   -2.4310 N.pl3     1 <0>        -0.8029
     13 H1          2.1171    1.2559   -0.0118 H         1 <0>         0.1450
     14 H2          2.0841    3.7180    0.0022 H         1 <0>         0.1370
     15 H3         -2.1802    3.6625    0.0414 H         1 <0>         0.1404
     16 H4          0.0021   -0.0041    0.0020 H         1 <0>         0.1451
     17 H5         -0.9671    5.7003    0.5594 H         1 <0>         0.1248
     18 H6          0.8290    5.7235    0.5427 H         1 <0>         0.1260
     19 H7         -0.1193    9.2313    0.0368 H         1 <0>         0.4608
     20 H8         -0.1460    9.6600   -2.2444 H         1 <0>         0.4565
     21 H9         -0.1385    8.1955   -3.4631 H         1 <0>         0.4751
     22 H10        -0.0902    7.4438    0.6955 H         1 <0>         0.4687
@<TRIPOS>BOND
     1    1    6 ar
     2    1    2 ar
     3    1   13 1
     4    2    3 ar
     5    2   14 1
     6    3    4 ar
     7    3    8 1
     8    4    5 ar
     9    4   15 1
    10    5    6 ar
    11    5    7 1
    12    6   16 1
    13    8    9 1
    14    8   17 1
    15    8   18 1
    16    9   10 1
    17   10   11 2
    18   10   12 1
    19   11   19 1
    20   11   22 1
    21   12   20 1
    22   12   21 1
@<TRIPOS>MOLECULE
ZINC04536563
   22    22     0     0     0
SMALL
USER_CHARGES
(4-chlorophenyl)methylsulfanylformamidine
@<TRIPOS>ATOM
      1 C1         -0.3597    2.7789    1.8184 C.ar      1 <0>        -0.0778
      2 C2         -1.0101    3.2279    2.9523 C.ar      1 <0>        -0.1081
      3 C3         -2.0123    2.4636    3.5229 C.ar      1 <0>        -0.0108
      4 C4         -2.3667    1.2529    2.9547 C.ar      1 <0>        -0.1081
      5 C5         -1.7194    0.8077    1.8175 C.ar      1 <0>        -0.0778
      6 C6         -0.7181    1.5718    1.2479 C.ar      1 <0>        -0.1072
      7 C7         -0.0127    1.0858    0.0080 C.3       1 <0>        -0.1032
      8 S1         -0.8881    1.6854   -1.4584 S.3       1 <0>         0.0708
      9 C8          0.1221    0.9900   -2.7235 C.cat     1 <0>         0.4781
     10 N1          1.1649    0.2740   -2.4055 N.pl3     1 <0>        -0.7889
     11 N2         -0.1891    1.2022   -4.0466 N.pl3     1 <0>        -0.8032
     12 Cl1        -2.8253    3.0237    4.9508 Cl        1 <0>        -0.0438
     13 H1          0.4257    3.3734    1.3755 H         1 <0>         0.1396
     14 H2         -0.7330    4.1730    3.3954 H         1 <0>         0.1455
     15 H3         -3.1492    0.6560    3.3994 H         1 <0>         0.1455
     16 H4         -1.9962   -0.1372    1.3737 H         1 <0>         0.1396
     17 H5          1.0193    1.4666    0.0002 H         1 <0>         0.1245
     18 H6          0.0023   -0.0141    0.0019 H         1 <0>         0.1245
     19 H7          1.7956   -0.1601   -3.1953 H         1 <0>         0.4606
     20 H8          0.4416    0.7681   -4.8364 H         1 <0>         0.4563
     21 H9         -1.0686    1.8060   -4.3148 H         1 <0>         0.4751
     22 H10         1.4137    0.1043   -1.3475 H         1 <0>         0.4687
@<TRIPOS>BOND
     1    1    6 ar
     2    1    2 ar
     3    1   13 1
     4    2    3 ar
     5    2   14 1
     6    3    4 ar
     7    3   12 1
     8    4    5 ar
     9    4   15 1
    10    5    6 ar
    11    5   16 1
    12    6    7 1
    13    7    8 1
    14    7   17 1
    15    7   18 1
    16    8    9 1
    17    9   10 2
    18    9   11 1
    19   10   19 1
    20   10   22 1
    21   11   20 1
    22   11   21 1
@<TRIPOS>MOLECULE
ZINC04013946
   22    22     0     0     0
SMALL
USER_CHARGES
(4-fluorophenyl)methylsulfanylformamidine
@<TRIPOS>ATOM
      1 C1         -0.3594    2.7790    1.8183 C.ar      1 <0>        -0.0601
      2 C2         -1.0088    3.2279    2.9525 C.ar      1 <0>        -0.1524
      3 C3         -2.0119    2.4633    3.5237 C.ar      1 <0>         0.1337
      4 C4         -2.3667    1.2519    2.9546 C.ar      1 <0>        -0.1523
      5 C5         -1.7194    0.8075    1.8173 C.ar      1 <0>        -0.0601
      6 C6         -0.7181    1.5718    1.2479 C.ar      1 <0>        -0.1233
      7 C7         -0.0127    1.0858    0.0080 C.3       1 <0>        -0.1005
      8 S1         -0.8881    1.6854   -1.4584 S.3       1 <0>         0.0685
      9 C8          0.1221    0.9900   -2.7235 C.cat     1 <0>         0.4782
     10 N1          1.1649    0.2740   -2.4055 N.pl3     1 <0>        -0.7890
     11 N2         -0.1891    1.2022   -4.0466 N.pl3     1 <0>        -0.8034
     12 F1         -2.6442    2.8989    4.6352 F         1 <0>        -0.1251
     13 H1          0.4258    3.3733    1.3749 H         1 <0>         0.1406
     14 H2         -0.7313    4.1730    3.3956 H         1 <0>         0.1480
     15 H3         -3.1491    0.6548    3.3991 H         1 <0>         0.1480
     16 H4         -1.9962   -0.1372    1.3730 H         1 <0>         0.1406
     17 H5          1.0193    1.4666    0.0002 H         1 <0>         0.1241
     18 H6          0.0023   -0.0141    0.0019 H         1 <0>         0.1241
     19 H7          1.7956   -0.1601   -3.1953 H         1 <0>         0.4605
     20 H8          0.4416    0.7681   -4.8364 H         1 <0>         0.4562
     21 H9         -1.0686    1.8060   -4.3148 H         1 <0>         0.4750
     22 H10         1.4137    0.1043   -1.3475 H         1 <0>         0.4688
@<TRIPOS>BOND
     1    1    6 ar
     2    1    2 ar
     3    1   13 1
     4    2    3 ar
     5    2   14 1
     6    3    4 ar
     7    3   12 1
     8    4    5 ar
     9    4   15 1
    10    5    6 ar
    11    5   16 1
    12    6    7 1
    13    7    8 1
    14    7   17 1
    15    7   18 1
    16    8    9 1
    17    9   10 2
    18    9   11 1
    19   10   19 1
    20   10   22 1
    21   11   20 1
    22   11   21 1
@<TRIPOS>MOLECULE
ZINC04642956
   22    22     0     0     0
SMALL
USER_CHARGES
(4-bromophenyl)methylsulfanylformamidine
@<TRIPOS>ATOM
      1 C1         -0.3597    2.7789    1.8185 C.ar      1 <0>        -0.0848
      2 C2         -1.0096    3.2273    2.9529 C.ar      1 <0>        -0.0883
      3 C3         -2.0117    2.4631    3.5233 C.ar      1 <0>        -0.0678
      4 C4         -2.3663    1.2529    2.9550 C.ar      1 <0>        -0.0883
      5 C5         -1.7194    0.8077    1.8176 C.ar      1 <0>        -0.0848
      6 C6         -0.7181    1.5718    1.2479 C.ar      1 <0>        -0.0959
      7 C7         -0.0127    1.0858    0.0080 C.3       1 <0>        -0.1052
      8 S1         -0.8881    1.6854   -1.4584 S.3       1 <0>         0.0725
      9 C8          0.1221    0.9900   -2.7235 C.cat     1 <0>         0.4780
     10 N1          1.1649    0.2740   -2.4055 N.pl3     1 <0>        -0.7888
     11 N2         -0.1891    1.2022   -4.0466 N.pl3     1 <0>        -0.8030
     12 Br1        -2.8968    3.0729    5.0791 Br        1 <0>        -0.0231
     13 H1          0.4255    3.3735    1.3755 H         1 <0>         0.1394
     14 H2         -0.7326    4.1724    3.3961 H         1 <0>         0.1447
     15 H3         -3.1489    0.6560    3.3998 H         1 <0>         0.1447
     16 H4         -1.9965   -0.1370    1.3736 H         1 <0>         0.1394
     17 H5          1.0193    1.4666    0.0002 H         1 <0>         0.1251
     18 H6          0.0023   -0.0141    0.0019 H         1 <0>         0.1251
     19 H7          1.7956   -0.1601   -3.1953 H         1 <0>         0.4608
     20 H8          0.4416    0.7681   -4.8364 H         1 <0>         0.4565
     21 H9         -1.0686    1.8060   -4.3148 H         1 <0>         0.4751
     22 H10         1.4137    0.1043   -1.3475 H         1 <0>         0.4687
@<TRIPOS>BOND
     1    1    6 ar
     2    1    2 ar
     3    1   13 1
     4    2    3 ar
     5    2   14 1
     6    3    4 ar
     7    3   12 1
     8    4    5 ar
     9    4   15 1
    10    5    6 ar
    11    5   16 1
    12    6    7 1
    13    7    8 1
    14    7   17 1
    15    7   18 1
    16    8    9 1
    17    9   10 2
    18    9   11 1
    19   10   19 1
    20   10   22 1
    21   11   20 1
    22   11   21 1
@<TRIPOS>MOLECULE
ZINC00096836
   25    25     0     0     0
SMALL
USER_CHARGES
p-tolylmethylsulfanylformamidine
@<TRIPOS>ATOM
      1 C1         -2.7170    2.9491    4.7629 C.3       1 <0>        -0.1308
      2 C2         -2.0116    2.4630    3.5230 C.ar      1 <0>        -0.0498
      3 C3         -2.3665    1.2538    2.9550 C.ar      1 <0>        -0.1195
      4 C4         -1.7194    0.8079    1.8177 C.ar      1 <0>        -0.0857
      5 C5         -0.7181    1.5718    1.2479 C.ar      1 <0>        -0.1183
      6 C6         -0.3599    2.7788    1.8186 C.ar      1 <0>        -0.0857
      7 C7         -1.0099    3.2267    2.9534 C.ar      1 <0>        -0.1200
      8 C8         -0.0127    1.0858    0.0080 C.3       1 <0>        -0.0986
      9 S1         -0.8881    1.6854   -1.4584 S.3       1 <0>         0.0663
     10 C9          0.1221    0.9900   -2.7235 C.cat     1 <0>         0.4775
     11 N1          1.1649    0.2740   -2.4055 N.pl3     1 <0>        -0.7892
     12 N2         -0.1891    1.2022   -4.0466 N.pl3     1 <0>        -0.8043
     13 H1         -3.4761    2.2127    5.0654 H         1 <0>         0.0728
     14 H2         -3.2041    3.9129    4.5536 H         1 <0>         0.0794
     15 H3         -1.9857    3.0764    5.5747 H         1 <0>         0.0798
     16 H4         -3.1490    0.6571    3.4000 H         1 <0>         0.1336
     17 H5         -1.9965   -0.1370    1.3742 H         1 <0>         0.1292
     18 H6          0.4254    3.3735    1.3759 H         1 <0>         0.1292
     19 H7         -0.7329    4.1716    3.3970 H         1 <0>         0.1336
     20 H8          1.0193    1.4666    0.0002 H         1 <0>         0.1210
     21 H9          0.0023   -0.0141    0.0019 H         1 <0>         0.1210
     22 H10         1.7956   -0.1601   -3.1953 H         1 <0>         0.4597
     23 H11         0.4416    0.7681   -4.8364 H         1 <0>         0.4554
     24 H12        -1.0686    1.8060   -4.3148 H         1 <0>         0.4746
     25 H13         1.4137    0.1043   -1.3475 H         1 <0>         0.4688
@<TRIPOS>BOND
     1    1    2 1
     2    1   13 1
     3    1   14 1
     4    1   15 1
     5    2    7 ar
     6    2    3 ar
     7    3    4 ar
     8    3   16 1
     9    4    5 ar
    10    4   17 1
    11    5    6 ar
    12    5    8 1
    13    6    7 ar
    14    6   18 1
    15    7   19 1
    16    8    9 1
    17    8   20 1
    18    8   21 1
    19    9   10 1
    20   10   11 2
    21   10   12 1
    22   11   22 1
    23   11   25 1
    24   12   23 1
    25   12   24 1
@<TRIPOS>MOLECULE
ZINC04013988
   25    25     0     0     0
SMALL
USER_CHARGES
[4-(trifluoromethyl)phenyl]methylsulfanylformamidine
@<TRIPOS>ATOM
      1 C1          0.0021   -0.0041    0.0020 C.ar      1 <0>        -0.0922
      2 C2         -0.0167    1.3781    0.0096 C.ar      1 <0>        -0.0659
      3 C3          1.1709    2.0855    0.0021 C.ar      1 <0>        -0.1533
      4 C4          2.3773    1.4107   -0.0145 C.ar      1 <0>        -0.0660
      5 C5          2.3961    0.0285   -0.0212 C.ar      1 <0>        -0.0922
      6 C6          1.2084   -0.6789   -0.0132 C.ar      1 <0>        -0.0773
      7 C7          1.2289   -2.1857   -0.0205 C.3       1 <0>        -0.1103
      8 S1          1.2201   -2.7810   -1.7298 S.3       1 <0>         0.0764
      9 C8          1.2465   -4.5201   -1.4482 C.cat     1 <0>         0.4784
     10 N1          1.2649   -4.9832   -0.2291 N.pl3     1 <0>        -0.7886
     11 N2          1.2478   -5.3895   -2.5143 N.pl3     1 <0>        -0.8022
     12 C9          1.1505    3.5924    0.0099 C.3       1 <0>         0.5047
     13 F1          1.1565    4.0520    1.3313 F         1 <0>        -0.1701
     14 F2          2.2801    4.0775   -0.6577 F         1 <0>        -0.1716
     15 F3         -0.0041    4.0464   -0.6365 F         1 <0>        -0.1716
     16 H1         -0.9258   -0.5567    0.0083 H         1 <0>         0.1434
     17 H2         -0.9592    1.9054    0.0170 H         1 <0>         0.1486
     18 H3          3.3052    1.9634   -0.0201 H         1 <0>         0.1486
     19 H4          3.3386   -0.4987   -0.0324 H         1 <0>         0.1434
     20 H5          2.1371   -2.5425    0.4873 H         1 <0>         0.1275
     21 H6          0.3411   -2.5671    0.5051 H         1 <0>         0.1275
     22 H7          1.2814   -6.0690   -0.0534 H         1 <0>         0.4615
     23 H8          1.2643   -6.4752   -2.3386 H         1 <0>         0.4571
     24 H9          1.2324   -4.9989   -3.5425 H         1 <0>         0.4754
     25 H10         1.2639   -4.2880    0.6234 H         1 <0>         0.4687
@<TRIPOS>BOND
     1    1    6 ar
     2    1    2 ar
     3    1   16 1
     4    2    3 ar
     5    2   17 1
     6    3    4 ar
     7    3   12 1
     8    4    5 ar
     9    4   18 1
    10    5    6 ar
    11    5   19 1
    12    6    7 1
    13    7    8 1
    14    7   20 1
    15    7   21 1
    16    8    9 1
    17    9   10 2
    18    9   11 1
    19   10   22 1
    20   10   25 1
    21   11   23 1
    22   11   24 1
    23   12   13 1
    24   12   14 1
    25   12   15 1
@<TRIPOS>MOLECULE
ZINC17002865
   26    26     0     0     0
SMALL
USER_CHARGES
(4-methoxyphenyl)methylsulfanylformamidine
@<TRIPOS>ATOM
      1 C1         -2.2321    4.1612    5.1743 C.3       1 <0>         0.0182
      2 O1         -2.6493    2.9025    4.6418 O.3       1 <0>        -0.3085
      3 C2         -2.0129    2.4640    3.5240 C.ar      1 <0>         0.1620
      4 C3         -2.3676    1.2501    2.9535 C.ar      1 <0>        -0.1515
      5 C4         -1.7195    0.8068    1.8169 C.ar      1 <0>        -0.0488
      6 C5         -0.7181    1.5718    1.2479 C.ar      1 <0>        -0.1524
      7 C6         -0.3589    2.7793    1.8178 C.ar      1 <0>        -0.0466
      8 C7         -1.0078    3.2297    2.9511 C.ar      1 <0>        -0.2095
      9 C8         -0.0127    1.0858    0.0080 C.3       1 <0>        -0.0925
     10 S1         -0.8881    1.6854   -1.4584 S.3       1 <0>         0.0614
     11 C9          0.1221    0.9900   -2.7235 C.cat     1 <0>         0.4777
     12 N1          1.1649    0.2740   -2.4055 N.pl3     1 <0>        -0.7894
     13 N2         -0.1891    1.2022   -4.0466 N.pl3     1 <0>        -0.8048
     14 H1         -2.8244    4.3942    6.0714 H         1 <0>         0.1111
     15 H2         -2.3845    4.9471    4.4199 H         1 <0>         0.0621
     16 H3         -1.1662    4.1111    5.4415 H         1 <0>         0.0624
     17 H4         -3.1495    0.6521    3.3978 H         1 <0>         0.1426
     18 H5         -1.9954   -0.1379    1.3722 H         1 <0>         0.1366
     19 H6          0.4269    3.3727    1.3742 H         1 <0>         0.1321
     20 H7         -0.7300    4.1750    3.3933 H         1 <0>         0.1394
     21 H8          1.0193    1.4666    0.0002 H         1 <0>         0.1199
     22 H9          0.0023   -0.0141    0.0019 H         1 <0>         0.1207
     23 H10         1.7956   -0.1601   -3.1953 H         1 <0>         0.4594
     24 H11         0.4416    0.7681   -4.8364 H         1 <0>         0.4550
     25 H12        -1.0686    1.8060   -4.3148 H         1 <0>         0.4744
     26 H13         1.4137    0.1043   -1.3475 H         1 <0>         0.4688
@<TRIPOS>BOND
     1    1    2 1
     2    1   14 1
     3    1   15 1
     4    1   16 1
     5    2    3 1
     6    3    8 ar
     7    3    4 ar
     8    4    5 ar
     9    4   17 1
    10    5    6 ar
    11    5   18 1
    12    6    7 ar
    13    6    9 1
    14    7    8 ar
    15    7   19 1
    16    8   20 1
    17    9   10 1
    18    9   21 1
    19    9   22 1
    20   10   11 1
    21   11   12 2
    22   11   13 1
    23   12   23 1
    24   12   26 1
    25   13   24 1
    26   13   25 1
@<TRIPOS>MOLECULE
ZINC04322084
   23    23     0     0     0
SMALL
USER_CHARGES
(4-cyanophenyl)methylsulfanylformamidine
@<TRIPOS>ATOM
      1 C1          0.0021   -0.0041    0.0020 C.ar      1 <0>        -0.0903
      2 C2         -0.0166    1.3753    0.0096 C.ar      1 <0>        -0.0689
      3 C3          1.1849    2.0866    0.0020 C.ar      1 <0>         0.0114
      4 C4          2.3980    1.3953   -0.0133 C.ar      1 <0>        -0.0689
      5 C5          2.4021    0.0159   -0.0203 C.ar      1 <0>        -0.0903
      6 C6          1.2078   -0.6827   -0.0127 C.ar      1 <0>        -0.0833
      7 C7          1.2202   -2.1896   -0.0199 C.3       1 <0>        -0.1093
      8 S1          1.2089   -2.7849   -1.7292 S.3       1 <0>         0.0742
      9 C8          1.2260   -4.5242   -1.4476 C.cat     1 <0>         0.4781
     10 N1          1.2415   -4.9873   -0.2284 N.pl3     1 <0>        -0.7888
     11 N2          1.2231   -5.3936   -2.5136 N.pl3     1 <0>        -0.8030
     12 C9          1.1731    3.5185    0.0093 C.1       1 <0>         0.2319
     13 N3          1.1637    4.6545    0.0151 N.1       1 <0>        -0.3811
     14 H1         -0.9265   -0.5555    0.0079 H         1 <0>         0.1416
     15 H2         -0.9585    1.9038    0.0169 H         1 <0>         0.1452
     16 H3          3.3309    1.9394   -0.0197 H         1 <0>         0.1452
     17 H4          3.3396   -0.5201   -0.0314 H         1 <0>         0.1416
     18 H5          2.1262   -2.5512    0.4883 H         1 <0>         0.1265
     19 H6          0.3301   -2.5661    0.5054 H         1 <0>         0.1266
     20 H7          1.2522   -6.0731   -0.0526 H         1 <0>         0.4610
     21 H8          1.2338   -6.4794   -2.3378 H         1 <0>         0.4567
     22 H9          1.2101   -5.0030   -3.5418 H         1 <0>         0.4752
     23 H10         1.2439   -4.2921    0.6240 H         1 <0>         0.4688
@<TRIPOS>BOND
     1    1    6 ar
     2    1    2 ar
     3    1   14 1
     4    2    3 ar
     5    2   15 1
     6    3    4 ar
     7    3   12 1
     8    4    5 ar
     9    4   16 1
    10    5    6 ar
    11    5   17 1
    12    6    7 1
    13    7    8 1
    14    7   18 1
    15    7   19 1
    16    8    9 1
    17    9   10 2
    18    9   11 1
    19   10   20 1
    20   10   23 1
    21   11   21 1
    22   11   22 1
    23   12   13 3
@<TRIPOS>MOLECULE
ZINC04014085
   24    24     0     0     0
SMALL
USER_CHARGES
(4-nitrophenyl)methylsulfanylformamidine
@<TRIPOS>ATOM
      1 C1          0.0021   -0.0041    0.0020 C.ar      1 <0>        -0.0906
      2 C2         -0.0167    1.3781    0.0096 C.ar      1 <0>        -0.0512
      3 C3          1.1709    2.0855    0.0021 C.ar      1 <0>        -0.0181
      4 C4          2.3773    1.4107   -0.0145 C.ar      1 <0>        -0.0512
      5 C5          2.3960    0.0285   -0.0212 C.ar      1 <0>        -0.0906
      6 C6          1.2084   -0.6789   -0.0132 C.ar      1 <0>        -0.0589
      7 C7          1.2289   -2.1857   -0.0205 C.3       1 <0>        -0.1164
      8 S1          1.2201   -2.7810   -1.7298 S.3       1 <0>         0.0810
      9 C8          1.2465   -4.5201   -1.4482 C.cat     1 <0>         0.4795
     10 N1          1.2649   -4.9832   -0.2291 N.pl3     1 <0>        -0.7880
     11 N2          1.2478   -5.3895   -2.5143 N.pl3     1 <0>        -0.8004
     12 N3          1.1509    3.5656    0.0098 N.pl3     1 <0>         0.0155
     13 O1          0.0879    4.1601    0.0228 O.2       1 <0>        -0.1405
     14 O2          2.1973    4.1889    0.0031 O.3       1 <0>        -0.1404
     15 H1         -0.9258   -0.5567    0.0083 H         1 <0>         0.1549
     16 H2         -0.9592    1.9054    0.0170 H         1 <0>         0.1654
     17 H3          3.3051    1.9634   -0.0201 H         1 <0>         0.1653
     18 H4          3.3385   -0.4987   -0.0324 H         1 <0>         0.1549
     19 H5          2.1371   -2.5425    0.4873 H         1 <0>         0.1319
     20 H6          0.3411   -2.5671    0.5051 H         1 <0>         0.1319
     21 H7          1.2814   -6.0690   -0.0534 H         1 <0>         0.4629
     22 H8          1.2643   -6.4752   -2.3386 H         1 <0>         0.4585
     23 H9          1.2324   -4.9989   -3.5425 H         1 <0>         0.4761
     24 H10         1.2639   -4.2880    0.6234 H         1 <0>         0.4685
@<TRIPOS>BOND
     1    1    6 ar
     2    1    2 ar
     3    1   15 1
     4    2    3 ar
     5    2   16 1
     6    3    4 ar
     7    3   12 1
     8    4    5 ar
     9    4   17 1
    10    5    6 ar
    11    5   18 1
    12    6    7 1
    13    7    8 1
    14    7   19 1
    15    7   20 1
    16    8    9 1
    17    9   10 2
    18    9   11 1
    19   10   21 1
    20   10   24 1
    21   11   22 1
    22   11   23 1
    23   12   13 2
    24   12   14 1
@<TRIPOS>MOLECULE
ZINC04013992
   22    22     0     0     0
SMALL
USER_CHARGES
(3,4-dichlorophenyl)methylsulfanylformamidine
@<TRIPOS>ATOM
      1 C1         -0.3596    2.7787    1.8183 C.ar      1 <0>        -0.0749
      2 C2         -1.0092    3.2280    2.9529 C.ar      1 <0>        -0.0946
      3 C3         -2.0112    2.4647    3.5241 C.ar      1 <0>        -0.0100
      4 C4         -2.3668    1.2530    2.9556 C.ar      1 <0>        -0.0340
      5 C5         -1.7195    0.8076    1.8175 C.ar      1 <0>        -0.0727
      6 C6         -0.7181    1.5718    1.2479 C.ar      1 <0>        -0.0940
      7 C7         -0.0127    1.0858    0.0080 C.3       1 <0>        -0.1053
      8 S1         -0.8881    1.6854   -1.4584 S.3       1 <0>         0.0745
      9 C8          0.1221    0.9900   -2.7235 C.cat     1 <0>         0.4787
     10 N1          1.1649    0.2740   -2.4055 N.pl3     1 <0>        -0.7886
     11 N2         -0.1891    1.2022   -4.0466 N.pl3     1 <0>        -0.8023
     12 Cl1        -3.6247    0.2940    3.6709 Cl        1 <0>        -0.0248
     13 Cl2        -2.8231    3.0255    4.9523 Cl        1 <0>        -0.0220
     14 H1          0.4257    3.3731    1.3749 H         1 <0>         0.1468
     15 H2         -0.7314    4.1731    3.3957 H         1 <0>         0.1551
     16 H3         -1.9960   -0.1375    1.3738 H         1 <0>         0.1496
     17 H4          1.0193    1.4666    0.0002 H         1 <0>         0.1287
     18 H5          0.0023   -0.0141    0.0019 H         1 <0>         0.1273
     19 H6          1.7956   -0.1601   -3.1953 H         1 <0>         0.4614
     20 H7          0.4416    0.7681   -4.8364 H         1 <0>         0.4570
     21 H8         -1.0686    1.8060   -4.3148 H         1 <0>         0.4754
     22 H9          1.4137    0.1043   -1.3475 H         1 <0>         0.4687
@<TRIPOS>BOND
     1    1    6 ar
     2    1    2 ar
     3    1   14 1
     4    2    3 ar
     5    2   15 1
     6    3    4 ar
     7    3   13 1
     8    4    5 ar
     9    4   12 1
    10    5    6 ar
    11    5   16 1
    12    6    7 1
    13    7    8 1
    14    7   17 1
    15    7   18 1
    16    8    9 1
    17    9   10 2
    18    9   11 1
    19   10   19 1
    20   10   22 1
    21   11   20 1
    22   11   21 1
@<TRIPOS>MOLECULE
ZINC00404320
   16    16     0     0     0
SMALL
USER_CHARGES
(4-chlorophenyl)methanethiol
@<TRIPOS>ATOM
      1 C1         -0.3597    2.7789    1.8184 C.ar      1 <0>        -0.0849
      2 C2         -1.0101    3.2279    2.9523 C.ar      1 <0>        -0.1105
      3 C3         -2.0123    2.4636    3.5229 C.ar      1 <0>        -0.0276
      4 C4         -2.3667    1.2529    2.9547 C.ar      1 <0>        -0.1105
      5 C5         -1.7194    0.8077    1.8175 C.ar      1 <0>        -0.0849
      6 C6         -0.7181    1.5718    1.2479 C.ar      1 <0>        -0.0743
      7 C7         -0.0127    1.0858    0.0080 C.3       1 <0>        -0.0286
      8 S1         -0.8901    1.6867   -1.4616 S.3       1 <0>        -0.2387
      9 Cl1        -2.8253    3.0237    4.9508 Cl        1 <0>        -0.0661
     10 H1          0.4257    3.3734    1.3755 H         1 <0>         0.1359
     11 H2         -0.7330    4.1730    3.3954 H         1 <0>         0.1371
     12 H3         -3.1492    0.6560    3.3994 H         1 <0>         0.1371
     13 H4         -1.9962   -0.1372    1.3737 H         1 <0>         0.1360
     14 H5          0.0021   -0.0041    0.0020 H         1 <0>         0.0959
     15 H6          1.0099    1.4631    0.0003 H         1 <0>         0.0959
     16 H7         -0.1764    1.1953   -2.4903 H         1 <0>         0.0883
@<TRIPOS>BOND
     1    1    6 ar
     2    1    2 ar
     3    1   10 1
     4    2    3 ar
     5    2   11 1
     6    3    4 ar
     7    3    9 1
     8    4    5 ar
     9    4   12 1
    10    5    6 ar
    11    5   13 1
    12    6    7 1
    13    7    8 1
    14    7   14 1
    15    7   15 1
    16    8   16 1
@<TRIPOS>MOLECULE
ZINC00409159
   16    16     0     0     0
SMALL
USER_CHARGES
(2-chlorophenyl)methanethiol
@<TRIPOS>ATOM
      1 C1          2.0208    5.3783   -1.1857 C.ar      1 <0>        -0.1151
      2 C2          2.0884    6.0616    0.0144 C.ar      1 <0>        -0.0991
      3 C3          2.0428    5.3676    1.2086 C.ar      1 <0>        -0.1112
      4 C4          1.9291    3.9885    1.2030 C.ar      1 <0>        -0.0176
      5 C5          1.8611    3.3055    0.0020 C.ar      1 <0>        -0.0700
      6 C6          1.9120    4.0004   -1.1918 C.ar      1 <0>        -0.0863
      7 C7          1.7378    1.8035   -0.0048 C.3       1 <0>        -0.0339
      8 S1         -0.0162    1.3408    0.0094 S.3       1 <0>        -0.2323
      9 Cl1         1.8725    3.1159    2.7027 Cl        1 <0>        -0.0591
     10 H1          2.0571    5.9211   -2.1186 H         1 <0>         0.1331
     11 H2          2.1771    7.1380    0.0186 H         1 <0>         0.1348
     12 H3          2.0964    5.9013    2.1459 H         1 <0>         0.1368
     13 H4          1.8633    3.4669   -2.1296 H         1 <0>         0.1356
     14 H5          2.2286    1.3946    0.8783 H         1 <0>         0.0985
     15 H6          2.2116    1.4042   -0.9016 H         1 <0>         0.0977
     16 H7          0.0021   -0.0041    0.0020 H         1 <0>         0.0881
@<TRIPOS>BOND
     1    1    6 ar
     2    1    2 ar
     3    1   10 1
     4    2    3 ar
     5    2   11 1
     6    3    4 ar
     7    3   12 1
     8    4    5 ar
     9    4    9 1
    10    5    6 ar
    11    5    7 1
    12    6   13 1
    13    7    8 1
    14    7   14 1
    15    7   15 1
    16    8   16 1
@<TRIPOS>MOLECULE
ZINC03873647
   16    16     0     0     0
SMALL
USER_CHARGES
phenylmethanethiol
@<TRIPOS>ATOM
      1 C1         -0.0559    4.2672    0.0251 C.ar      1 <0>        -0.1118
      2 C2          1.1505    3.5924    0.0100 C.ar      1 <0>        -0.1207
      3 C3          1.1693    2.2102    0.0028 C.ar      1 <0>        -0.0981
      4 C4         -0.0184    1.5028    0.0103 C.ar      1 <0>        -0.0795
      5 C5         -1.2248    2.1776    0.0197 C.ar      1 <0>        -0.0981
      6 C6         -1.2435    3.5598    0.0322 C.ar      1 <0>        -0.1207
      7 C7          0.0021   -0.0041    0.0020 C.3       1 <0>        -0.0262
      8 S1          0.0266   -0.6179    1.7088 S.3       1 <0>        -0.2418
      9 H1         -0.0705    5.3471    0.0311 H         1 <0>         0.1241
     10 H2          2.0784    4.1450    0.0041 H         1 <0>         0.1253
     11 H3          2.1118    1.6830   -0.0091 H         1 <0>         0.1252
     12 H4         -2.1527    1.6249    0.0211 H         1 <0>         0.1251
     13 H5         -2.1860    4.0870    0.0437 H         1 <0>         0.1253
     14 H6         -0.8878   -0.3767   -0.5053 H         1 <0>         0.0930
     15 H7          0.8920   -0.3525   -0.5222 H         1 <0>         0.0930
     16 H8          0.0435   -1.9559    1.5732 H         1 <0>         0.0860
@<TRIPOS>BOND
     1    1    6 ar
     2    1    2 ar
     3    1    9 1
     4    2    3 ar
     5    2   10 1
     6    3    4 ar
     7    3   11 1
     8    4    5 ar
     9    4    7 1
    10    5    6 ar
    11    5   12 1
    12    6   13 1
    13    7    8 1
    14    7   14 1
    15    7   15 1
    16    8   16 1
@<TRIPOS>MOLECULE
ZINC00404004
   16    16     0     0     0
SMALL
USER_CHARGES

@<TRIPOS>ATOM
      1 C1         -0.3594    2.7790    1.8183 C.ar      1 <0>        -0.0679
      2 C2         -1.0088    3.2279    2.9525 C.ar      1 <0>        -0.1540
      3 C3         -2.0119    2.4633    3.5237 C.ar      1 <0>         0.1070
      4 C4         -2.3667    1.2519    2.9546 C.ar      1 <0>        -0.1540
      5 C5         -1.7194    0.8075    1.8173 C.ar      1 <0>        -0.0679
      6 C6         -0.7181    1.5718    1.2479 C.ar      1 <0>        -0.0902
      7 C7         -0.0127    1.0858    0.0080 C.3       1 <0>        -0.0261
      8 S1         -0.8901    1.6867   -1.4616 S.3       1 <0>        -0.2409
      9 F1         -2.6442    2.8989    4.6352 F         1 <0>        -0.1371
     10 H1          0.4258    3.3733    1.3749 H         1 <0>         0.1367
     11 H2         -0.7313    4.1730    3.3956 H         1 <0>         0.1392
     12 H3         -3.1491    0.6548    3.3991 H         1 <0>         0.1392
     13 H4         -1.9962   -0.1372    1.3730 H         1 <0>         0.1367
     14 H5          0.0021   -0.0041    0.0020 H         1 <0>         0.0955
     15 H6          1.0099    1.4631    0.0003 H         1 <0>         0.0956
     16 H7         -0.1764    1.1953   -2.4903 H         1 <0>         0.0881
@<TRIPOS>BOND
     1    1    6 ar
     2    1    2 ar
     3    1   10 1
     4    2    3 ar
     5    2   11 1
     6    3    4 ar
     7    3    9 1
     8    4    5 ar
     9    4   12 1
    10    5    6 ar
    11    5   13 1
    12    6    7 1
    13    7    8 1
    14    7   14 1
    15    7   15 1
    16    8   16 1
@<TRIPOS>MOLECULE
ZINC04282632
   19    19     0     0     0
SMALL
USER_CHARGES
p-tolylmethanethiol
@<TRIPOS>ATOM
      1 C1         -2.7170    2.9491    4.7629 C.3       1 <0>        -0.1183
      2 C2         -2.0116    2.4630    3.5230 C.ar      1 <0>        -0.0771
      3 C3         -2.3665    1.2538    2.9550 C.ar      1 <0>        -0.1219
      4 C4         -1.7194    0.8079    1.8177 C.ar      1 <0>        -0.0931
      5 C5         -0.7181    1.5718    1.2479 C.ar      1 <0>        -0.0855
      6 C6         -0.3599    2.7788    1.8186 C.ar      1 <0>        -0.0931
      7 C7         -1.0099    3.2267    2.9534 C.ar      1 <0>        -0.1219
      8 C8         -0.0127    1.0858    0.0080 C.3       1 <0>        -0.0247
      9 S1         -0.8901    1.6867   -1.4616 S.3       1 <0>        -0.2428
     10 H1         -2.1903    2.5874    5.6459 H         1 <0>         0.0721
     11 H2         -2.7311    4.0390    4.7692 H         1 <0>         0.0678
     12 H3         -3.7398    2.5724    4.7702 H         1 <0>         0.0678
     13 H4         -3.1490    0.6571    3.4000 H         1 <0>         0.1248
     14 H5         -1.9965   -0.1370    1.3742 H         1 <0>         0.1253
     15 H6          0.4254    3.3735    1.3759 H         1 <0>         0.1252
     16 H7         -0.7329    4.1716    3.3970 H         1 <0>         0.1248
     17 H8          0.0021   -0.0041    0.0020 H         1 <0>         0.0924
     18 H9          1.0099    1.4631    0.0003 H         1 <0>         0.0924
     19 H10        -0.1764    1.1953   -2.4903 H         1 <0>         0.0855
@<TRIPOS>BOND
     1    1    2 1
     2    1   10 1
     3    1   11 1
     4    1   12 1
     5    2    7 ar
     6    2    3 ar
     7    3    4 ar
     8    3   13 1
     9    4    5 ar
    10    4   14 1
    11    5    6 ar
    12    5    8 1
    13    6    7 ar
    14    6   15 1
    15    7   16 1
    16    8    9 1
    17    8   17 1
    18    8   18 1
    19    9   19 1
@<TRIPOS>MOLECULE
ZINC00388092
   20    20     0     0     0
SMALL
USER_CHARGES
(4-methoxyphenyl)methanethiol
@<TRIPOS>ATOM
      1 C1         -2.2321    4.1612    5.1743 C.3       1 <0>         0.0257
      2 O1         -2.6493    2.9025    4.6418 O.3       1 <0>        -0.3164
      3 C2         -2.0129    2.4640    3.5240 C.ar      1 <0>         0.1360
      4 C3         -2.3676    1.2501    2.9535 C.ar      1 <0>        -0.1524
      5 C4         -1.7195    0.8068    1.8169 C.ar      1 <0>        -0.0565
      6 C5         -0.7181    1.5718    1.2479 C.ar      1 <0>        -0.1177
      7 C6         -0.3589    2.7793    1.8178 C.ar      1 <0>        -0.0557
      8 C7         -1.0078    3.2297    2.9511 C.ar      1 <0>        -0.2093
      9 C8         -0.0127    1.0858    0.0080 C.3       1 <0>        -0.0193
     10 S1         -0.8901    1.6867   -1.4616 S.3       1 <0>        -0.2463
     11 H1         -2.8190    4.3921    6.0633 H         1 <0>         0.1018
     12 H2         -1.1759    4.1115    5.4391 H         1 <0>         0.0567
     13 H3         -2.3831    4.9400    4.4268 H         1 <0>         0.0573
     14 H4         -3.1495    0.6521    3.3978 H         1 <0>         0.1342
     15 H5         -1.9954   -0.1379    1.3722 H         1 <0>         0.1332
     16 H6          0.4269    3.3727    1.3742 H         1 <0>         0.1284
     17 H7         -0.7300    4.1750    3.3933 H         1 <0>         0.1311
     18 H8          0.0021   -0.0041    0.0020 H         1 <0>         0.0924
     19 H9          1.0099    1.4631    0.0003 H         1 <0>         0.0915
     20 H10        -0.1764    1.1953   -2.4903 H         1 <0>         0.0851
@<TRIPOS>BOND
     1    1    2 1
     2    1   11 1
     3    1   12 1
     4    1   13 1
     5    2    3 1
     6    3    8 ar
     7    3    4 ar
     8    4    5 ar
     9    4   14 1
    10    5    6 ar
    11    5   15 1
    12    6    7 ar
    13    6    9 1
    14    7    8 ar
    15    7   16 1
    16    8   17 1
    17    9   10 1
    18    9   18 1
    19    9   19 1
    20   10   20 1
@<TRIPOS>MOLECULE
ZINC04522200
   16    16     0     0     0
SMALL
USER_CHARGES
(2,4-dichlorophenyl)methanethiol
@<TRIPOS>ATOM
      1 C1          1.2082   -0.6795   -0.0131 C.ar      1 <0>        -0.1050
      2 C2          0.0021   -0.0041    0.0020 C.ar      1 <0>        -0.0727
      3 C3         -0.0167    1.3778    0.0096 C.ar      1 <0>        -0.0647
      4 C4          1.1720    2.0862    0.0021 C.ar      1 <0>        -0.0070
      5 C5          2.3790    1.4110   -0.0130 C.ar      1 <0>        -0.1030
      6 C6          2.3972    0.0276   -0.0206 C.ar      1 <0>        -0.0176
      7 Cl1         3.9117   -0.8207   -0.0390 Cl        1 <0>        -0.0519
      8 Cl2         1.1483    3.8220    0.0110 Cl        1 <0>        -0.0446
      9 C7         -1.3319    2.1133    0.0198 C.3       1 <0>        -0.0363
     10 S1         -1.8516    2.3991    1.7341 S.3       1 <0>        -0.2292
     11 H1          1.2222   -1.7594   -0.0194 H         1 <0>         0.1447
     12 H2         -0.9259   -0.5565    0.0075 H         1 <0>         0.1469
     13 H3          3.3070    1.9635   -0.0193 H         1 <0>         0.1480
     14 H4         -1.2171    3.0702   -0.4894 H         1 <0>         0.1010
     15 H5         -2.0859    1.5167   -0.4937 H         1 <0>         0.1011
     16 H6         -3.0207    3.0533    1.6150 H         1 <0>         0.0903
@<TRIPOS>BOND
     1    1    6 ar
     2    1    2 ar
     3    1   11 1
     4    2    3 ar
     5    2   12 1
     6    3    4 ar
     7    3    9 1
     8    4    5 ar
     9    4    8 1
    10    5    6 ar
    11    5   13 1
    12    6    7 1
    13    9   10 1
    14    9   14 1
    15    9   15 1
    16   10   16 1
@<TRIPOS>MOLECULE
ZINC04802670
   16    16     0     0     0
SMALL
USER_CHARGES
(3,4-dichlorophenyl)methanethiol
@<TRIPOS>ATOM
      1 C1         -0.3596    2.7787    1.8183 C.ar      1 <0>        -0.0811
      2 C2         -1.0092    3.2280    2.9529 C.ar      1 <0>        -0.0977
      3 C3         -2.0112    2.4647    3.5241 C.ar      1 <0>        -0.0252
      4 C4         -2.3668    1.2530    2.9556 C.ar      1 <0>        -0.0319
      5 C5         -1.7195    0.8076    1.8175 C.ar      1 <0>        -0.0780
      6 C6         -0.7181    1.5718    1.2479 C.ar      1 <0>        -0.0613
      7 C7         -0.0127    1.0858    0.0080 C.3       1 <0>        -0.0302
      8 S1         -0.8901    1.6867   -1.4616 S.3       1 <0>        -0.2350
      9 Cl1        -3.6247    0.2940    3.6709 Cl        1 <0>        -0.0428
     10 Cl2        -2.8231    3.0255    4.9523 Cl        1 <0>        -0.0436
     11 H1          0.4257    3.3731    1.3749 H         1 <0>         0.1433
     12 H2         -0.7314    4.1731    3.3957 H         1 <0>         0.1472
     13 H3         -1.9960   -0.1375    1.3738 H         1 <0>         0.1464
     14 H4          0.0021   -0.0041    0.0020 H         1 <0>         0.0989
     15 H5          1.0099    1.4631    0.0003 H         1 <0>         0.1002
     16 H6         -0.1764    1.1953   -2.4903 H         1 <0>         0.0907
@<TRIPOS>BOND
     1    1    6 ar
     2    1    2 ar
     3    1   11 1
     4    2    3 ar
     5    2   12 1
     6    3    4 ar
     7    3   10 1
     8    4    5 ar
     9    4    9 1
    10    5    6 ar
    11    5   13 1
    12    6    7 1
    13    7    8 1
    14    7   14 1
    15    7   15 1
    16    8   16 1
@<TRIPOS>MOLECULE
ZINC04692811
   19    20     0     0     0
SMALL
USER_CHARGES

@<TRIPOS>ATOM
      1 C1         -0.0167    1.3793    0.0096 C.ar      1 <0>        -0.1202
      2 C2          1.1684    2.0932    0.0021 C.ar      1 <0>        -0.1101
      3 C3          2.3774    1.4287   -0.0129 C.ar      1 <0>        -0.1029
      4 C4          2.4032    0.0336   -0.0206 C.ar      1 <0>        -0.0111
      5 C5          1.2044   -0.6805   -0.0130 C.ar      1 <0>        -0.1229
      6 C6          0.0021   -0.0041    0.0020 C.ar      1 <0>        -0.1115
      7 C7          3.6958   -0.6852   -0.0373 C.2       1 <0>         0.0085
      8 C8          4.9372   -0.1282   -0.0406 C.2       1 <0>         0.0013
      9 N1          5.8333   -1.1217   -0.0563 N.2       1 <0>        -0.4927
     10 C9          5.2120   -2.2703   -0.0630 C.2       1 <0>         0.1960
     11 N2          3.8796   -2.0494   -0.0463 N.pl3     1 <0>        -0.5660
     12 H1          3.1834   -2.7248   -0.0436 H         1 <0>         0.4206
     13 H2         -0.9604    1.9041    0.0260 H         1 <0>         0.1254
     14 H3          1.1470    3.1730    0.0078 H         1 <0>         0.1290
     15 H4          3.3018    1.9872   -0.0191 H         1 <0>         0.1296
     16 H5          1.2178   -1.7604   -0.0193 H         1 <0>         0.1151
     17 H6         -0.9265   -0.5556    0.0079 H         1 <0>         0.1256
     18 H7          5.1598    0.9286   -0.0321 H         1 <0>         0.1738
     19 H8          5.6869   -3.2402   -0.0761 H         1 <0>         0.2124
@<TRIPOS>BOND
     1    1    6 ar
     2    1    2 ar
     3    1   13 1
     4    2    3 ar
     5    2   14 1
     6    3    4 ar
     7    3   15 1
     8    4    5 ar
     9    4    7 1
    10    5    6 ar
    11    5   16 1
    12    6   17 1
    13    7   11 1
    14    7    8 2
    15    8    9 1
    16    8   18 1
    17    9   10 2
    18   10   11 1
    19   10   19 1
    20   11   12 1
@<TRIPOS>MOLECULE
ZINC04692811
   20    21     0     0     0
SMALL
USER_CHARGES

@<TRIPOS>ATOM
      1 C1         -0.0167    1.3793    0.0096 C.ar      1 <0>        -0.0826
      2 C2          1.1684    2.0932    0.0021 C.ar      1 <0>        -0.1097
      3 C3          2.3774    1.4287   -0.0129 C.ar      1 <0>        -0.0797
      4 C4          2.4032    0.0336   -0.0206 C.ar      1 <0>        -0.0703
      5 C5          1.2044   -0.6805   -0.0130 C.ar      1 <0>        -0.0970
      6 C6          0.0021   -0.0041    0.0020 C.ar      1 <0>        -0.1098
      7 C7          3.6958   -0.6852   -0.0373 C.2       1 <0>         0.1215
      8 C8          4.9372   -0.1282   -0.0406 C.2       1 <0>         0.0014
      9 N1          5.8333   -1.1217   -0.0563 N.pl3     1 <0>        -0.4677
     10 C9          5.2120   -2.2703   -0.0630 C.cat     1 <0>         0.3055
     11 N2          3.8796   -2.0494   -0.0463 N.pl3     1 <0>        -0.5140
     12 H1          3.1834   -2.7248   -0.0436 H         1 <0>         0.4646
     13 H2         -0.9604    1.9041    0.0260 H         1 <0>         0.1384
     14 H3          1.1470    3.1730    0.0078 H         1 <0>         0.1410
     15 H4          3.3018    1.9872   -0.0191 H         1 <0>         0.1348
     16 H5          1.2178   -1.7604   -0.0193 H         1 <0>         0.1226
     17 H6         -0.9265   -0.5556    0.0079 H         1 <0>         0.1386
     18 H7          5.1598    0.9286   -0.0321 H         1 <0>         0.2256
     19 H8          5.6869   -3.2402   -0.0761 H         1 <0>         0.2682
     20 H9          6.7964   -1.0064   -0.0623 H         1 <0>         0.4685
@<TRIPOS>BOND
     1    1    6 ar
     2    1    2 ar
     3    1   13 1
     4    2    3 ar
     5    2   14 1
     6    3    4 ar
     7    3   15 1
     8    4    5 ar
     9    4    7 1
    10    5    6 ar
    11    5   16 1
    12    6   17 1
    13    7   11 1
    14    7    8 2
    15    8    9 1
    16    8   18 1
    17    9   10 2
    18    9   20 1
    19   10   11 1
    20   10   19 1
    21   11   12 1
@<TRIPOS>MOLECULE
ZINC04692811
   20    21     0     0     0
SMALL
USER_CHARGES

@<TRIPOS>ATOM
      1 C1         -0.0167    1.3790    0.0096 C.ar      1 <0>        -0.0854
      2 C2          1.1686    2.0920    0.0021 C.ar      1 <0>        -0.1080
      3 C3          2.3774    1.4261   -0.0130 C.ar      1 <0>        -0.0830
      4 C4          2.4023    0.0328   -0.0207 C.ar      1 <0>        -0.0667
      5 C5          1.2051   -0.6804   -0.0131 C.ar      1 <0>        -0.1018
      6 C6          0.0021   -0.0041    0.0020 C.ar      1 <0>        -0.1079
      7 C7          3.6986   -0.6887   -0.0375 C.2       1 <0>         0.0902
      8 C8          4.9324   -0.1199   -0.0408 C.2       1 <0>         0.0342
      9 N1          5.8370   -1.1444   -0.0572 N.pl3     1 <0>        -0.5056
     10 H1          6.8031   -1.0572   -0.0630 H         1 <0>         0.4691
     11 C9          5.1385   -2.3010   -0.0636 C.cat     1 <0>         0.3089
     12 N2          3.8641   -2.0271   -0.0464 N.pl3     1 <0>        -0.4777
     13 H2         -0.9603    1.9042    0.0260 H         1 <0>         0.1382
     14 H3          1.1482    3.1718    0.0078 H         1 <0>         0.1406
     15 H4          3.3023    1.9837   -0.0192 H         1 <0>         0.1341
     16 H5          1.2185   -1.7603   -0.0194 H         1 <0>         0.1217
     17 H6         -0.9264   -0.5557    0.0083 H         1 <0>         0.1383
     18 H7          5.1553    0.9369   -0.0320 H         1 <0>         0.2281
     19 H8          5.5668   -3.2923   -0.0763 H         1 <0>         0.2685
     20 H9          3.1485   -2.6819   -0.0431 H         1 <0>         0.4642
@<TRIPOS>BOND
     1    1    6 ar
     2    1    2 ar
     3    1   13 1
     4    2    3 ar
     5    2   14 1
     6    3    4 ar
     7    3   15 1
     8    4    5 ar
     9    4    7 1
    10    5    6 ar
    11    5   16 1
    12    6   17 1
    13    7   12 1
    14    7    8 2
    15    8    9 1
    16    8   18 1
    17    9   10 1
    18    9   11 1
    19   11   12 2
    20   11   19 1
    21   12   20 1
@<TRIPOS>MOLECULE
ZINC00165587
   20    21     0     0     0
SMALL
USER_CHARGES

@<TRIPOS>ATOM
      1 C1         -0.0164    1.3571    0.0095 C.ar      1 <0>        -0.1126
      2 C2          1.1686    2.0905    0.0021 C.ar      1 <0>        -0.1126
      3 C3          2.3785    1.4666   -0.0132 C.ar      1 <0>        -0.1007
      4 C4          2.4367    0.0633   -0.0212 C.ar      1 <0>        -0.0636
      5 C5          1.2319   -0.6823   -0.0132 C.ar      1 <0>        -0.0636
      6 C6          0.0021   -0.0041    0.0020 C.ar      1 <0>        -0.1007
      7 C7          1.2907   -2.0902   -0.0208 C.ar      1 <0>         0.1106
      8 C8          2.5050   -2.7160   -0.0357 C.ar      1 <0>        -0.1294
      9 C9          3.6886   -1.9835   -0.0435 C.ar      1 <0>        -0.1294
     10 C10         3.6704   -0.6175   -0.0366 C.ar      1 <0>         0.1107
     11 O1          4.8362    0.0813   -0.0449 O.3       1 <0>        -0.4922
     12 O2          0.1452   -2.8219   -0.0129 O.3       1 <0>        -0.4922
     13 H1         -0.9633    1.8762    0.0259 H         1 <0>         0.1269
     14 H2          1.1265    3.1696    0.0083 H         1 <0>         0.1269
     15 H3          3.2888    2.0477   -0.0195 H         1 <0>         0.1334
     16 H4         -0.9241   -0.5595    0.0082 H         1 <0>         0.1334
     17 H5          2.5472   -3.7951   -0.0411 H         1 <0>         0.1352
     18 H6          4.6355   -2.5028   -0.0553 H         1 <0>         0.1352
     19 H7          5.1823    0.2794    0.8361 H         1 <0>         0.3924
     20 H8         -0.1952   -3.0292   -0.8939 H         1 <0>         0.3924
@<TRIPOS>BOND
     1    1    6 ar
     2    1    2 ar
     3    1   13 1
     4    2    3 ar
     5    2   14 1
     6    3    4 ar
     7    3   15 1
     8    4   10 ar
     9    4    5 ar
    10    5    6 ar
    11    5    7 ar
    12    6   16 1
    13    7    8 ar
    14    7   12 1
    15    8    9 ar
    16    8   17 1
    17    9   10 ar
    18    9   18 1
    19   10   11 1
    20   11   19 1
    21   12   20 1
@<TRIPOS>MOLECULE
ZINC00165587
   20    21     0     0     0
SMALL
USER_CHARGES

@<TRIPOS>ATOM
      1 C1         -0.0167    1.3797    0.0096 C.ar      1 <0>        -0.0996
      2 C2          1.1651    2.0998    0.0022 C.ar      1 <0>        -0.0996
      3 C3          2.3861    1.4485   -0.0132 C.ar      1 <0>        -0.0718
      4 C4          2.4254    0.0581   -0.0212 C.ar      1 <0>        -0.1278
      5 C5          1.2196   -0.6766   -0.0130 C.ar      1 <0>        -0.1279
      6 C6          0.0021   -0.0041    0.0020 C.ar      1 <0>        -0.0718
      7 C7          1.2721   -2.1506   -0.0197 C.2       1 <0>         0.3953
      8 O1          0.2977   -2.8064    0.2806 O.2       1 <0>        -0.4366
      9 C8          2.5683   -2.8265   -0.4101 C.3       1 <0>        -0.1579
     10 C9          3.7210   -2.1323    0.3286 C.3       1 <0>        -0.1579
     11 C10         3.7112   -0.6645   -0.0386 C.2       1 <0>         0.3953
     12 O2          4.7378   -0.0946   -0.3403 O.2       1 <0>        -0.4366
     13 H1         -0.9618    1.9021    0.0260 H         1 <0>         0.1373
     14 H2          1.1343    3.1793    0.0081 H         1 <0>         0.1373
     15 H3          3.3043    2.0172   -0.0193 H         1 <0>         0.1414
     16 H4         -0.9243   -0.5592    0.0074 H         1 <0>         0.1413
     17 H5          2.5326   -3.8785   -0.1267 H         1 <0>         0.1103
     18 H6          2.7175   -2.7389   -1.4862 H         1 <0>         0.1094
     19 H7          3.5851   -2.2416    1.4046 H         1 <0>         0.1095
     20 H8          4.6694   -2.5784    0.0291 H         1 <0>         0.1103
@<TRIPOS>BOND
     1    1    6 ar
     2    1    2 ar
     3    1   13 1
     4    2    3 ar
     5    2   14 1
     6    3    4 ar
     7    3   15 1
     8    4   11 1
     9    4    5 ar
    10    5    6 ar
    11    5    7 1
    12    6   16 1
    13    7    8 2
    14    7    9 1
    15    9   10 1
    16    9   17 1
    17    9   18 1
    18   10   11 1
    19   10   19 1
    20   10   20 1
    21   11   12 2
@<TRIPOS>MOLECULE
ZINC00338411
   30    32     0     0     0
SMALL
USER_CHARGES
2,2-dimethylbenzo[g]chromene-5,10-dione
@<TRIPOS>ATOM
      1 C1         -4.9173    4.0165   -0.2861 C.3       1 <0>        -0.1375
      2 C2         -3.6037    3.3238   -0.6544 C.3       1 <0>         0.1410
      3 C3         -3.6896    1.8638   -0.2905 C.2       1 <0>        -0.1774
      4 C4         -2.5762    1.1980    0.0312 C.2       1 <0>        -0.0849
      5 C5         -1.2990    1.9341    0.0187 C.2       1 <0>        -0.2004
      6 C6         -1.3298    3.3106    0.0332 C.2       1 <0>         0.1029
      7 O1         -2.5275    3.9437    0.0509 O.3       1 <0>        -0.2759
      8 C7         -0.0761    4.0835    0.0244 C.2       1 <0>         0.4332
      9 O2         -0.1095    5.2984    0.0313 O.2       1 <0>        -0.3976
     10 C8          1.2241    3.3775    0.0077 C.ar      1 <0>        -0.1192
     11 C9          2.4160    4.0936   -0.0006 C.ar      1 <0>        -0.0613
     12 C10         3.6260    3.4182   -0.0149 C.ar      1 <0>        -0.0983
     13 C11         3.6563    2.0369   -0.0206 C.ar      1 <0>        -0.0931
     14 C12         2.4766    1.3090   -0.0133 C.ar      1 <0>        -0.0662
     15 C13         1.2553    1.9719    0.0007 C.ar      1 <0>        -0.1191
     16 C14        -0.0144    1.2108    0.0087 C.2       1 <0>         0.4429
     17 O3          0.0021   -0.0041    0.0020 O.2       1 <0>        -0.4249
     18 C15        -3.3658    3.4553   -2.1601 C.3       1 <0>        -0.1775
     19 H1         -4.8615    5.0702   -0.5595 H         1 <0>         0.0743
     20 H2         -5.7399    3.5448   -0.8235 H         1 <0>         0.0863
     21 H3         -5.0862    3.9281    0.7871 H         1 <0>         0.0712
     22 H4         -4.6444    1.3591   -0.2893 H         1 <0>         0.1430
     23 H5         -2.6113    0.1498    0.2889 H         1 <0>         0.1459
     24 H6          2.3987    5.1734    0.0043 H         1 <0>         0.1464
     25 H7          4.5512    3.9752   -0.0212 H         1 <0>         0.1418
     26 H8          4.6050    1.5210   -0.0307 H         1 <0>         0.1413
     27 H9          2.5066    0.2294   -0.0178 H         1 <0>         0.1463
     28 H10        -2.4279    2.9665   -2.4238 H         1 <0>         0.0598
     29 H11        -4.1862    2.9827   -2.7002 H         1 <0>         0.0825
     30 H12        -3.3138    4.5103   -2.4289 H         1 <0>         0.0745
@<TRIPOS>BOND
     1    1    2 1
     2    1   19 1
     3    1   20 1
     4    1   21 1
     5    2    7 1
     6    2    3 1
     7    2   18 1
     8    3    4 2
     9    3   22 1
    10    4    5 1
    11    4   23 1
    12    5   16 1
    13    5    6 2
    14    6    7 1
    15    6    8 1
    16    8    9 2
    17    8   10 1
    18   10   15 ar
    19   10   11 ar
    20   11   12 ar
    21   11   24 1
    22   12   13 ar
    23   12   25 1
    24   13   14 ar
    25   13   26 1
    26   14   15 ar
    27   14   27 1
    28   15   16 1
    29   16   17 2
    30   18   28 1
    31   18   29 1
    32   18   30 1
@<TRIPOS>MOLECULE
ZINC00066039
   22    24     0     0     0
SMALL
USER_CHARGES

@<TRIPOS>ATOM
      1 C1         -0.0166    1.3734    0.0096 C.ar      1 <0>        -0.1307
      2 C2          1.1715    2.0887    0.0021 C.ar      1 <0>        -0.0444
      3 C3          2.3832    1.4333   -0.0129 C.ar      1 <0>        -0.1365
      4 C4          2.4235    0.0420   -0.0208 C.ar      1 <0>         0.1617
      5 C5          1.2202   -0.6809   -0.0132 C.ar      1 <0>        -0.1308
      6 C6          0.0021   -0.0041    0.0020 C.ar      1 <0>        -0.0402
      7 C7          1.5904   -2.1045   -0.0248 C.ar      1 <0>         0.0046
      8 C8          0.8771   -3.3028   -0.0254 C.ar      1 <0>        -0.0656
      9 C9          1.5770   -4.4906   -0.0396 C.ar      1 <0>         0.0770
     10 N1          2.8983   -4.5024   -0.0520 N.ar      1 <0>        -0.4204
     11 C10         3.6150   -3.3976   -0.0516 C.ar      1 <0>         0.1179
     12 C11         2.9951   -2.1535   -0.0387 C.ar      1 <0>         0.1187
     13 N2          3.4741   -0.8575   -0.0360 N.pl3     1 <0>        -0.5844
     14 H1          4.4129   -0.6134   -0.0440 H         1 <0>         0.4367
     15 H2         -0.9603    1.8984    0.0259 H         1 <0>         0.1455
     16 H3          1.1466    3.1684    0.0077 H         1 <0>         0.1480
     17 H4          3.3028    1.9996   -0.0190 H         1 <0>         0.1416
     18 H5         -0.9250   -0.5581    0.0082 H         1 <0>         0.1413
     19 H6         -0.2028   -3.3005   -0.0146 H         1 <0>         0.1850
     20 H7          1.0369   -5.4259   -0.0402 H         1 <0>         0.2113
     21 H8          4.6932   -3.4586   -0.0613 H         1 <0>         0.2081
     22 H9          3.3575   -5.3568   -0.0614 H         1 <0>         0.4556
@<TRIPOS>BOND
     1    1    6 ar
     2    1    2 ar
     3    1   15 1
     4    2    3 ar
     5    2   16 1
     6    3    4 ar
     7    3   17 1
     8    4   13 1
     9    4    5 ar
    10    5    6 ar
    11    5    7 1
    12    6   18 1
    13    7   12 ar
    14    7    8 ar
    15    8    9 ar
    16    8   19 1
    17    9   10 ar
    18    9   20 1
    19   10   11 ar
    20   10   22 1
    21   11   12 ar
    22   11   21 1
    23   12   13 1
    24   13   14 1
@<TRIPOS>MOLECULE
ZINC00066039
   21    23     0     0     0
SMALL
USER_CHARGES

@<TRIPOS>ATOM
      1 C1         -0.0166    1.3734    0.0096 C.ar      1 <0>        -0.1504
      2 C2          1.1715    2.0887    0.0021 C.ar      1 <0>        -0.0753
      3 C3          2.3832    1.4333   -0.0129 C.ar      1 <0>        -0.1443
      4 C4          2.4235    0.0420   -0.0208 C.ar      1 <0>         0.1470
      5 C5          1.2202   -0.6809   -0.0132 C.ar      1 <0>        -0.1136
      6 C6          0.0021   -0.0041    0.0020 C.ar      1 <0>        -0.0541
      7 C7          1.5904   -2.1045   -0.0248 C.ar      1 <0>        -0.0683
      8 C8          0.8771   -3.3028   -0.0254 C.ar      1 <0>        -0.1121
      9 C9          1.5770   -4.4906   -0.0396 C.ar      1 <0>         0.0572
     10 N1          2.8983   -4.5024   -0.0520 N.ar      1 <0>        -0.4546
     11 C10         3.6150   -3.3976   -0.0520 C.ar      1 <0>         0.0950
     12 C11         2.9951   -2.1535   -0.0387 C.ar      1 <0>         0.0846
     13 N2          3.4741   -0.8575   -0.0360 N.pl3     1 <0>        -0.6069
     14 H1          4.4129   -0.6134   -0.0440 H         1 <0>         0.4211
     15 H2         -0.9603    1.8984    0.0259 H         1 <0>         0.1301
     16 H3          1.1466    3.1684    0.0077 H         1 <0>         0.1323
     17 H4          3.3028    1.9996   -0.0190 H         1 <0>         0.1270
     18 H5         -0.9250   -0.5581    0.0082 H         1 <0>         0.1278
     19 H6         -0.2028   -3.3005   -0.0146 H         1 <0>         0.1384
     20 H7          1.0369   -5.4259   -0.0402 H         1 <0>         0.1615
     21 H8          4.6932   -3.4586   -0.0621 H         1 <0>         0.1578
@<TRIPOS>BOND
     1    1    6 ar
     2    1    2 ar
     3    1   15 1
     4    2    3 ar
     5    2   16 1
     6    3    4 ar
     7    3   17 1
     8    4   13 1
     9    4    5 ar
    10    5    6 ar
    11    5    7 1
    12    6   18 1
    13    7   12 ar
    14    7    8 ar
    15    8    9 ar
    16    8   19 1
    17    9   10 ar
    18    9   20 1
    19   10   11 ar
    20   11   12 ar
    21   11   21 1
    22   12   13 1
    23   13   14 1
@<TRIPOS>MOLECULE
ZINC00135323
   18    19     0     0     0
SMALL
USER_CHARGES

@<TRIPOS>ATOM
      1 C1         -0.0167    1.3822    0.0096 C.ar      1 <0>        -0.0920
      2 C2          1.1647    2.0984    0.0022 C.ar      1 <0>        -0.0920
      3 C3          2.3849    1.4405   -0.0129 C.ar      1 <0>        -0.0577
      4 C4          2.4199    0.0514   -0.0207 C.ar      1 <0>        -0.1205
      5 C5          1.2174   -0.6777   -0.0131 C.ar      1 <0>        -0.1205
      6 C6          0.0021   -0.0041    0.0020 C.ar      1 <0>        -0.0577
      7 C7          1.2654   -2.1560   -0.0209 C.2       1 <0>         0.4335
      8 O1          0.2348   -2.7995   -0.0149 O.2       1 <0>        -0.3903
      9 C8          2.5686   -2.8461   -0.0365 C.2       1 <0>        -0.0717
     10 C9          3.7175   -2.1496   -0.0433 C.2       1 <0>        -0.0717
     11 C10         3.7083   -0.6749   -0.0363 C.2       1 <0>         0.4335
     12 O2          4.7554   -0.0587   -0.0435 O.2       1 <0>        -0.3903
     13 Cl1         5.2326   -2.9968   -0.0604 Cl        1 <0>         0.0052
     14 Cl2         2.6189   -4.5814   -0.0455 Cl        1 <0>         0.0052
     15 H1         -0.9612    1.9057    0.0260 H         1 <0>         0.1444
     16 H2          1.1375    3.1780    0.0079 H         1 <0>         0.1444
     17 H3          3.3052    2.0057   -0.0191 H         1 <0>         0.1492
     18 H4         -0.9247   -0.5586    0.0082 H         1 <0>         0.1492
@<TRIPOS>BOND
     1    1    6 ar
     2    1    2 ar
     3    1   15 1
     4    2    3 ar
     5    2   16 1
     6    3    4 ar
     7    3   17 1
     8    4   11 1
     9    4    5 ar
    10    5    6 ar
    11    5    7 1
    12    6   18 1
    13    7    8 2
    14    7    9 1
    15    9   10 2
    16    9   14 1
    17   10   11 1
    18   10   13 1
    19   11   12 2
@<TRIPOS>MOLECULE
ZINC00388159
   12    12     0     0     0
SMALL
USER_CHARGES
4-chlorobenzenethiol
@<TRIPOS>ATOM
      1 C1         -0.0167    1.3766    0.0096 C.ar      1 <0>        -0.1424
      2 C2          0.0021   -0.0041    0.0020 C.ar      1 <0>        -0.0924
      3 C3          1.2091   -0.6811   -0.0127 C.ar      1 <0>        -0.0936
      4 C4          2.4006    0.0229   -0.0198 C.ar      1 <0>        -0.0924
      5 C5          2.3883    1.4037   -0.0123 C.ar      1 <0>        -0.1424
      6 C6          1.1780    2.0863    0.0020 C.ar      1 <0>         0.1367
      7 Cl1         1.2285   -2.4169   -0.0216 Cl        1 <0>        -0.1099
      8 H1         -0.9589    1.9044    0.0169 H         1 <0>         0.1205
      9 H2         -0.9261   -0.5562    0.0079 H         1 <0>         0.1168
     10 H3          3.3409   -0.5081   -0.0309 H         1 <0>         0.1168
     11 H4          3.3184    1.9526   -0.0175 H         1 <0>         0.1205
     12 S1          1.1583    3.8482    0.0111 S.3       1 <0>        -0.9383
@<TRIPOS>BOND
     1    1    6 ar
     2    1    2 ar
     3    1    8 1
     4    2    3 ar
     5    2    9 1
     6    3    4 ar
     7    3    7 1
     8    4    5 ar
     9    4   10 1
    10    5    6 ar
    11    5   11 1
    12    6   12 1
@<TRIPOS>MOLECULE
ZINC00027317
   17    18     0     0     0
SMALL
USER_CHARGES
4-(2H-triazol-4-yl)pyridine
@<TRIPOS>ATOM
      1 C1          3.0475    3.4488   -0.0035 C.ar      1 <0>        -0.1543
      2 C2          3.4268    4.7753   -0.0049 C.ar      1 <0>         0.1042
      3 N1          2.5243    5.7376    0.0089 N.ar      1 <0>        -0.4826
      4 C3          1.2300    5.4821    0.0194 C.ar      1 <0>         0.1033
      5 C4          0.7647    4.1832    0.0168 C.ar      1 <0>        -0.1491
      6 C5          1.6862    3.1329    0.0024 C.ar      1 <0>         0.0387
      7 C6          1.2316    1.7199   -0.0005 C.2       1 <0>         0.0334
      8 C7          2.0380    0.5669   -0.0144 C.2       1 <0>         0.0006
      9 N2          1.2077   -0.4494   -0.0119 N.2       1 <0>        -0.2789
     10 N3          0.0021   -0.0041    0.0020 N.pl3     1 <0>        -0.2421
     11 H1         -0.8145   -0.5813    0.0067 H         1 <0>         0.4809
     12 N4         -0.0154    1.2817    0.0091 N.2       1 <0>        -0.2638
     13 H2          3.7916    2.6661   -0.0106 H         1 <0>         0.1411
     14 H3          4.4764    5.0294   -0.0135 H         1 <0>         0.1622
     15 H4          0.5254    6.3005    0.0306 H         1 <0>         0.1608
     16 H5         -0.2962    3.9813    0.0255 H         1 <0>         0.1415
     17 H6          3.1172    0.5266   -0.0243 H         1 <0>         0.2040
@<TRIPOS>BOND
     1    1    6 ar
     2    1    2 ar
     3    1   13 1
     4    2    3 ar
     5    2   14 1
     6    3    4 ar
     7    4    5 ar
     8    4   15 1
     9    5    6 ar
    10    5   16 1
    11    6    7 1
    12    7   12 2
    13    7    8 1
    14    8    9 2
    15    8   17 1
    16    9   10 1
    17   10   11 1
    18   10   12 1
@<TRIPOS>MOLECULE
ZINC29134840
   48    51     0     0     0
SMALL
USER_CHARGES
(3S,4R)-4-(benzylamino)-3-hydroxy-2,2-dimethyl-3,4-dihydrobenzo[g]chromene-5,10-dione
@<TRIPOS>ATOM
      1 C1          8.1797    3.5692   -1.9655 C.3       1 <0>        -0.1751
      2 C2          7.1799    3.7505   -3.1094 C.3       1 <0>         0.1239
      3 C3          5.9826    2.8119   -2.9053 C.3       1 <0>         0.0578
      4 H1          5.2360    2.9061   -3.7076 H         1 <0>         0.0724
      5 C4          5.3852    3.1021   -1.5269 C.3       1 <0>         0.1038
      6 H2          6.0353    2.7089   -0.7314 H         1 <0>         0.1172
      7 C5          5.2090    4.5906   -1.3459 C.2       1 <0>        -0.2343
      8 C6          5.8578    5.4785   -2.1235 C.2       1 <0>         0.1067
      9 O1          6.6937    5.0922   -3.1167 O.3       1 <0>        -0.2766
     10 C7          5.6724    6.9395   -1.9129 C.2       1 <0>         0.4349
     11 O2          6.2679    7.7331   -2.6131 O.2       1 <0>        -0.3979
     12 C8          4.7666    7.4262   -0.8543 C.ar      1 <0>        -0.1250
     13 C9          4.5766    8.7872   -0.6436 C.ar      1 <0>        -0.0597
     14 C10         3.7190    9.2153    0.3576 C.ar      1 <0>        -0.1018
     15 C11         3.0526    8.2982    1.1473 C.ar      1 <0>        -0.0918
     16 C12         3.2324    6.9377    0.9488 C.ar      1 <0>        -0.0689
     17 C13         4.0882    6.4931   -0.0505 C.ar      1 <0>        -0.1164
     18 C14         4.2995    5.0493   -0.2844 C.2       1 <0>         0.4278
     19 O3          3.7171    4.2346    0.4052 O.2       1 <0>        -0.3890
     20 N1          4.0797    2.4386   -1.4115 N.3       1 <0>        -0.6282
     21 C15         3.1089    3.0202   -2.3481 C.3       1 <0>         0.0830
     22 C16         1.7904    2.3028   -2.2150 C.ar      1 <0>        -0.0810
     23 C17         1.5255    1.1929   -2.9952 C.ar      1 <0>        -0.1157
     24 C18         0.3162    0.5344   -2.8727 C.ar      1 <0>        -0.1205
     25 C19        -0.6289    0.9870   -1.9713 C.ar      1 <0>        -0.1180
     26 C20        -0.3649    2.0981   -1.1923 C.ar      1 <0>        -0.1202
     27 C21         0.8446    2.7562   -1.3145 C.ar      1 <0>        -0.0911
     28 O4          6.4184    1.4524   -2.9666 O.3       1 <0>        -0.5783
     29 C22         7.8588    3.4394   -4.4447 C.3       1 <0>        -0.1356
     30 H3          8.5514    2.5339   -1.9641 H         1 <0>         0.0893
     31 H4          7.6830    3.7818   -1.0073 H         1 <0>         0.0636
     32 H5          9.0234    4.2615   -2.1028 H         1 <0>         0.0727
     33 H6          5.0959    9.5083   -1.2573 H         1 <0>         0.1451
     34 H7          3.5709   10.2724    0.5215 H         1 <0>         0.1408
     35 H8          2.3868    8.6434    1.9245 H         1 <0>         0.1400
     36 H9          2.7081    6.2259    1.5691 H         1 <0>         0.1452
     37 H10         4.1911    1.3681   -1.6386 H         1 <0>         0.3394
     38 H11         2.9708    4.0869   -2.1176 H         1 <0>         0.0767
     39 H12         3.4825    2.9128   -3.3771 H         1 <0>         0.0402
     40 H13         2.2641    0.8390   -3.6993 H         1 <0>         0.1171
     41 H14         0.1117   -0.3363   -3.4781 H         1 <0>         0.1216
     42 H15        -1.5739    0.4729   -1.8758 H         1 <0>         0.1213
     43 H16        -1.1036    2.4521   -0.4885 H         1 <0>         0.1219
     44 H17         1.0508    3.6244   -0.7062 H         1 <0>         0.1208
     45 H18         5.6922    0.6358   -2.8409 H         1 <0>         0.4108
     46 H19         7.1358    3.5713   -5.2631 H         1 <0>         0.0661
     47 H20         8.2205    2.4006   -4.4388 H         1 <0>         0.0930
     48 H21         8.7082    4.1226   -4.5921 H         1 <0>         0.0720
@<TRIPOS>BOND
     1    1    2 1
     2    1   30 1
     3    1   31 1
     4    1   32 1
     5    2    9 1
     6    2    3 1
     7    2   29 1
     8    3    4 1
     9    3    5 1
    10    3   28 1
    11    5    6 1
    12    5    7 1
    13    5   20 1
    14    7   18 1
    15    7    8 2
    16    8    9 1
    17    8   10 1
    18   10   11 2
    19   10   12 1
    20   12   17 ar
    21   12   13 ar
    22   13   14 ar
    23   13   33 1
    24   14   15 ar
    25   14   34 1
    26   15   16 ar
    27   15   35 1
    28   16   17 ar
    29   16   36 1
    30   17   18 1
    31   18   19 2
    32   20   21 1
    33   20   37 1
    34   21   22 1
    35   21   38 1
    36   21   39 1
    37   22   27 ar
    38   22   23 ar
    39   23   24 ar
    40   23   40 1
    41   24   25 ar
    42   24   41 1
    43   25   26 ar
    44   25   42 1
    45   26   27 ar
    46   26   43 1
    47   27   44 1
    48   28   45 1
    49   29   46 1
    50   29   47 1
    51   29   48 1
@<TRIPOS>MOLECULE
ZINC29134840
   49    52     0     0     0
SMALL
USER_CHARGES
(3S,4R)-4-(benzylamino)-3-hydroxy-2,2-dimethyl-3,4-dihydrobenzo[g]chromene-5,10-dione
@<TRIPOS>ATOM
      1 C1          8.1797    3.5692   -1.9655 C.3       1 <0>        -0.1858
      2 C2          7.1799    3.7505   -3.1094 C.3       1 <0>         0.1265
      3 C3          5.9826    2.8119   -2.9053 C.3       1 <0>         0.0736
      4 H1          5.2360    2.9061   -3.7076 H         1 <0>         0.0976
      5 C4          5.3852    3.1021   -1.5269 C.3       1 <0>         0.0719
      6 H2          6.0353    2.7089   -0.7314 H         1 <0>         0.1612
      7 C5          5.2090    4.5906   -1.3459 C.2       1 <0>        -0.3355
      8 C6          5.8578    5.4785   -2.1235 C.2       1 <0>         0.2008
      9 O1          6.6937    5.0922   -3.1167 O.3       1 <0>        -0.2574
     10 C7          5.6724    6.9395   -1.9129 C.2       1 <0>         0.4225
     11 O2          6.2679    7.7331   -2.6131 O.2       1 <0>        -0.3624
     12 C8          4.7666    7.4262   -0.8543 C.ar      1 <0>        -0.1197
     13 C9          4.5766    8.7872   -0.6436 C.ar      1 <0>        -0.0525
     14 C10         3.7190    9.2153    0.3576 C.ar      1 <0>        -0.0810
     15 C11         3.0526    8.2982    1.1473 C.ar      1 <0>        -0.0883
     16 C12         3.2324    6.9377    0.9488 C.ar      1 <0>        -0.0522
     17 C13         4.0882    6.4931   -0.0505 C.ar      1 <0>        -0.1357
     18 C14         4.2995    5.0493   -0.2844 C.2       1 <0>         0.4627
     19 O3          3.7171    4.2346    0.4052 O.2       1 <0>        -0.4619
     20 N1          4.0797    2.4386   -1.4115 N.4       1 <0>        -0.5322
     21 C15         3.1089    3.0202   -2.3481 C.3       1 <0>         0.0431
     22 C16         1.7904    2.3028   -2.2150 C.ar      1 <0>        -0.1583
     23 C17         1.5255    1.1929   -2.9952 C.ar      1 <0>        -0.0959
     24 C18         0.3162    0.5344   -2.8727 C.ar      1 <0>        -0.1138
     25 C19        -0.6289    0.9870   -1.9713 C.ar      1 <0>        -0.0836
     26 C20        -0.3649    2.0981   -1.1923 C.ar      1 <0>        -0.1128
     27 C21         0.8446    2.7562   -1.3145 C.ar      1 <0>        -0.0886
     28 O4          6.4184    1.4524   -2.9666 O.3       1 <0>        -0.5610
     29 C22         7.8588    3.4394   -4.4447 C.3       1 <0>        -0.1428
     30 H3          8.5514    2.5339   -1.9641 H         1 <0>         0.1017
     31 H4          7.6830    3.7818   -1.0073 H         1 <0>         0.0633
     32 H5          9.0234    4.2615   -2.1028 H         1 <0>         0.0886
     33 H6          5.0959    9.5083   -1.2573 H         1 <0>         0.1529
     34 H7          3.5709   10.2724    0.5215 H         1 <0>         0.1504
     35 H8          2.3868    8.6434    1.9245 H         1 <0>         0.1486
     36 H9          2.7081    6.2259    1.5691 H         1 <0>         0.1498
     37 H10         4.1911    1.3681   -1.6386 H         1 <0>         0.4402
     38 H11         2.9708    4.0869   -2.1176 H         1 <0>         0.1258
     39 H12         3.4825    2.9128   -3.3771 H         1 <0>         0.1301
     40 H13         2.2641    0.8390   -3.6993 H         1 <0>         0.1299
     41 H14         0.1117   -0.3363   -3.4781 H         1 <0>         0.1362
     42 H15        -1.5739    0.4729   -1.8758 H         1 <0>         0.1358
     43 H16        -1.1036    2.4521   -0.4885 H         1 <0>         0.1359
     44 H17         1.0508    3.6244   -0.7062 H         1 <0>         0.1301
     45 H18         5.6922    0.6358   -2.8409 H         1 <0>         0.4177
     46 H19         7.1358    3.5713   -5.2631 H         1 <0>         0.0748
     47 H20         8.2205    2.4006   -4.4388 H         1 <0>         0.1035
     48 H21         8.7082    4.1226   -4.5921 H         1 <0>         0.0855
     49 H22         3.6969    2.5582   -0.3872 H         1 <0>         0.4608
@<TRIPOS>BOND
     1    1    2 1
     2    1   30 1
     3    1   31 1
     4    1   32 1
     5    2    9 1
     6    2    3 1
     7    2   29 1
     8    3    4 1
     9    3    5 1
    10    3   28 1
    11    5    6 1
    12    5    7 1
    13    5   20 1
    14    7   18 1
    15    7    8 2
    16    8    9 1
    17    8   10 1
    18   10   11 2
    19   10   12 1
    20   12   17 ar
    21   12   13 ar
    22   13   14 ar
    23   13   33 1
    24   14   15 ar
    25   14   34 1
    26   15   16 ar
    27   15   35 1
    28   16   17 ar
    29   16   36 1
    30   17   18 1
    31   18   19 2
    32   20   21 1
    33   20   37 1
    34   20   49 1
    35   21   22 1
    36   21   38 1
    37   21   39 1
    38   22   27 ar
    39   22   23 ar
    40   23   24 ar
    41   23   40 1
    42   24   25 ar
    43   24   41 1
    44   25   26 ar
    45   25   42 1
    46   26   27 ar
    47   26   43 1
    48   27   44 1
    49   28   45 1
    50   29   46 1
    51   29   47 1
    52   29   48 1
@<TRIPOS>MOLECULE
ZINC29134842
   48    51     0     0     0
SMALL
USER_CHARGES
(3S,4S)-4-(benzylamino)-3-hydroxy-2,2-dimethyl-3,4-dihydrobenzo[g]chromene-5,10-dione
@<TRIPOS>ATOM
      1 C1          3.2963   -2.1895   -2.0308 C.3       1 <0>        -0.1823
      2 C2          3.6534   -2.2803   -0.5458 C.3       1 <0>         0.1272
      3 C3          2.5285   -2.9953    0.2153 C.3       1 <0>         0.0570
      4 H1          2.4508   -4.0585   -0.0558 H         1 <0>         0.0778
      5 C4          1.2250   -2.2385   -0.0477 C.3       1 <0>         0.1045
      6 H2          0.8688   -2.4232   -1.0719 H         1 <0>         0.1040
      7 C5          1.4406   -0.7577    0.1530 C.2       1 <0>        -0.2247
      8 C6          2.6743   -0.2175    0.1553 C.2       1 <0>         0.1154
      9 O1          3.7907   -0.9681   -0.0019 O.3       1 <0>        -0.2716
     10 C7          2.8534    1.2484    0.3357 C.2       1 <0>         0.4352
     11 O2          3.9691    1.7277    0.3309 O.2       1 <0>        -0.4014
     12 C8          1.6777    2.1209    0.5209 C.ar      1 <0>        -0.1248
     13 C9          1.8233    3.4930    0.6913 C.ar      1 <0>        -0.0610
     14 C10         0.7010    4.2878    0.8634 C.ar      1 <0>        -0.1037
     15 C11        -0.5609    3.7253    0.8666 C.ar      1 <0>        -0.0929
     16 C12        -0.7217    2.3590    0.6930 C.ar      1 <0>        -0.0702
     17 C13         0.3933    1.5486    0.5241 C.ar      1 <0>        -0.1137
     18 C14         0.2523    0.0890    0.3408 C.2       1 <0>         0.4329
     19 O3         -0.8540   -0.4156    0.3448 O.2       1 <0>        -0.3946
     20 N1          0.1903   -2.7113    0.8816 N.3       1 <0>        -0.6301
     21 C15        -0.3906   -3.9798    0.4217 C.3       1 <0>         0.0874
     22 C16        -1.5322   -4.3667    1.3262 C.ar      1 <0>        -0.0799
     23 C17        -1.2965   -5.1514    2.4395 C.ar      1 <0>        -0.1160
     24 C18        -2.3430   -5.5031    3.2714 C.ar      1 <0>        -0.1214
     25 C19        -3.6266   -5.0772    2.9851 C.ar      1 <0>        -0.1184
     26 C20        -3.8631   -4.2965    1.8691 C.ar      1 <0>        -0.1209
     27 C21        -2.8159   -3.9416    1.0394 C.ar      1 <0>        -0.0906
     28 O4          2.8148   -2.9926    1.6153 O.3       1 <0>        -0.5742
     29 C22         4.9646   -3.0502   -0.3757 C.3       1 <0>        -0.1398
     30 H3          3.1916   -3.2030   -2.4454 H         1 <0>         0.0829
     31 H4          4.0935   -1.6543   -2.5675 H         1 <0>         0.0819
     32 H5          2.3471   -1.6459   -2.1471 H         1 <0>         0.0681
     33 H6          2.8074    3.9379    0.6891 H         1 <0>         0.1441
     34 H7          0.8136    5.3538    0.9956 H         1 <0>         0.1396
     35 H8         -1.4282    4.3545    1.0015 H         1 <0>         0.1388
     36 H9         -1.7111    1.9259    0.6923 H         1 <0>         0.1442
     37 H10         0.6340   -2.8666    1.8761 H         1 <0>         0.3308
     38 H11        -0.7617   -3.8615   -0.6070 H         1 <0>         0.0840
     39 H12         0.3788   -4.7655    0.4458 H         1 <0>         0.0391
     40 H13        -0.2942   -5.4872    2.6611 H         1 <0>         0.1171
     41 H14        -2.1584   -6.1134    4.1430 H         1 <0>         0.1210
     42 H15        -4.4448   -5.3548    3.6331 H         1 <0>         0.1207
     43 H16        -4.8659   -3.9641    1.6452 H         1 <0>         0.1215
     44 H17        -3.0007   -3.3319    0.1673 H         1 <0>         0.1225
     45 H18         2.1146   -3.4637    2.3208 H         1 <0>         0.4023
     46 H19         5.2170   -3.1128    0.6931 H         1 <0>         0.0784
     47 H20         5.7695   -2.5267   -0.9125 H         1 <0>         0.0729
     48 H21         4.8500   -4.0646   -0.7854 H         1 <0>         0.0807
@<TRIPOS>BOND
     1    1    2 1
     2    1   30 1
     3    1   31 1
     4    1   32 1
     5    2    9 1
     6    2    3 1
     7    2   29 1
     8    3    4 1
     9    3    5 1
    10    3   28 1
    11    5    6 1
    12    5    7 1
    13    5   20 1
    14    7   18 1
    15    7    8 2
    16    8    9 1
    17    8   10 1
    18   10   11 2
    19   10   12 1
    20   12   17 ar
    21   12   13 ar
    22   13   14 ar
    23   13   33 1
    24   14   15 ar
    25   14   34 1
    26   15   16 ar
    27   15   35 1
    28   16   17 ar
    29   16   36 1
    30   17   18 1
    31   18   19 2
    32   20   21 1
    33   20   37 1
    34   21   22 1
    35   21   38 1
    36   21   39 1
    37   22   27 ar
    38   22   23 ar
    39   23   24 ar
    40   23   40 1
    41   24   25 ar
    42   24   41 1
    43   25   26 ar
    44   25   42 1
    45   26   27 ar
    46   26   43 1
    47   27   44 1
    48   28   45 1
    49   29   46 1
    50   29   47 1
    51   29   48 1
@<TRIPOS>MOLECULE
ZINC29134842
   49    52     0     0     0
SMALL
USER_CHARGES
(3S,4S)-4-(benzylamino)-3-hydroxy-2,2-dimethyl-3,4-dihydrobenzo[g]chromene-5,10-dione
@<TRIPOS>ATOM
      1 C1          3.2963   -2.1895   -2.0308 C.3       1 <0>        -0.1920
      2 C2          3.6534   -2.2803   -0.5458 C.3       1 <0>         0.1280
      3 C3          2.5285   -2.9953    0.2153 C.3       1 <0>         0.0679
      4 H1          2.4508   -4.0585   -0.0558 H         1 <0>         0.1130
      5 C4          1.2250   -2.2385   -0.0477 C.3       1 <0>         0.0746
      6 H2          0.8688   -2.4232   -1.0719 H         1 <0>         0.1545
      7 C5          1.4406   -0.7577    0.1530 C.2       1 <0>        -0.3427
      8 C6          2.6743   -0.2175    0.1553 C.2       1 <0>         0.2180
      9 O1          3.7907   -0.9681   -0.0019 O.3       1 <0>        -0.2509
     10 C7          2.8534    1.2484    0.3357 C.2       1 <0>         0.4217
     11 O2          3.9691    1.7277    0.3309 O.2       1 <0>        -0.3621
     12 C8          1.6777    2.1209    0.5209 C.ar      1 <0>        -0.1173
     13 C9          1.8233    3.4930    0.6913 C.ar      1 <0>        -0.0533
     14 C10         0.7010    4.2878    0.8634 C.ar      1 <0>        -0.0797
     15 C11        -0.5609    3.7253    0.8666 C.ar      1 <0>        -0.0893
     16 C12        -0.7217    2.3590    0.6930 C.ar      1 <0>        -0.0506
     17 C13         0.3933    1.5486    0.5241 C.ar      1 <0>        -0.1366
     18 C14         0.2523    0.0890    0.3408 C.2       1 <0>         0.4688
     19 O3         -0.8540   -0.4156    0.3448 O.2       1 <0>        -0.4621
     20 N1          0.1903   -2.7113    0.8816 N.4       1 <0>        -0.5379
     21 C15        -0.3906   -3.9798    0.4217 C.3       1 <0>         0.0468
     22 C16        -1.5322   -4.3667    1.3262 C.ar      1 <0>        -0.1609
     23 C17        -1.2965   -5.1514    2.4395 C.ar      1 <0>        -0.0964
     24 C18        -2.3430   -5.5031    3.2714 C.ar      1 <0>        -0.1146
     25 C19        -3.6266   -5.0772    2.9851 C.ar      1 <0>        -0.0839
     26 C20        -3.8631   -4.2965    1.8691 C.ar      1 <0>        -0.1135
     27 C21        -2.8159   -3.9416    1.0394 C.ar      1 <0>        -0.0895
     28 O4          2.8148   -2.9926    1.6153 O.3       1 <0>        -0.5591
     29 C22         4.9646   -3.0502   -0.3757 C.3       1 <0>        -0.1472
     30 H3          3.1916   -3.2030   -2.4454 H         1 <0>         0.0976
     31 H4          4.0935   -1.6543   -2.5675 H         1 <0>         0.0973
     32 H5          2.3471   -1.6459   -2.1471 H         1 <0>         0.0683
     33 H6          2.8074    3.9379    0.6891 H         1 <0>         0.1532
     34 H7          0.8136    5.3538    0.9956 H         1 <0>         0.1507
     35 H8         -1.4282    4.3545    1.0015 H         1 <0>         0.1490
     36 H9         -1.7111    1.9259    0.6923 H         1 <0>         0.1502
     37 H10         0.6340   -2.8666    1.8761 H         1 <0>         0.4241
     38 H11        -0.7617   -3.8615   -0.6070 H         1 <0>         0.1356
     39 H12         0.3788   -4.7655    0.4458 H         1 <0>         0.1292
     40 H13        -0.2942   -5.4872    2.6611 H         1 <0>         0.1303
     41 H14        -2.1584   -6.1134    4.1430 H         1 <0>         0.1360
     42 H15        -4.4448   -5.3548    3.6331 H         1 <0>         0.1357
     43 H16        -4.8659   -3.9641    1.6452 H         1 <0>         0.1360
     44 H17        -3.0007   -3.3319    0.1673 H         1 <0>         0.1317
     45 H18         2.1146   -3.4637    2.3208 H         1 <0>         0.4060
     46 H19         5.2170   -3.1128    0.6931 H         1 <0>         0.0861
     47 H20         5.7695   -2.5267   -0.9125 H         1 <0>         0.0864
     48 H21         4.8500   -4.0646   -0.7854 H         1 <0>         0.0933
     49 H22        -0.6111   -1.9609    0.9507 H         1 <0>         0.4497
@<TRIPOS>BOND
     1    1    2 1
     2    1   30 1
     3    1   31 1
     4    1   32 1
     5    2    9 1
     6    2    3 1
     7    2   29 1
     8    3    4 1
     9    3    5 1
    10    3   28 1
    11    5    6 1
    12    5    7 1
    13    5   20 1
    14    7   18 1
    15    7    8 2
    16    8    9 1
    17    8   10 1
    18   10   11 2
    19   10   12 1
    20   12   17 ar
    21   12   13 ar
    22   13   14 ar
    23   13   33 1
    24   14   15 ar
    25   14   34 1
    26   15   16 ar
    27   15   35 1
    28   16   17 ar
    29   16   36 1
    30   17   18 1
    31   18   19 2
    32   20   21 1
    33   20   37 1
    34   20   49 1
    35   21   22 1
    36   21   38 1
    37   21   39 1
    38   22   27 ar
    39   22   23 ar
    40   23   24 ar
    41   23   40 1
    42   24   25 ar
    43   24   41 1
    44   25   26 ar
    45   25   42 1
    46   26   27 ar
    47   26   43 1
    48   27   44 1
    49   28   45 1
    50   29   46 1
    51   29   47 1
    52   29   48 1
@<TRIPOS>MOLECULE
ZINC29134844
   48    51     0     0     0
SMALL
USER_CHARGES
(3R,4R)-4-(benzylamino)-3-hydroxy-2,2-dimethyl-3,4-dihydrobenzo[g]chromene-5,10-dione
@<TRIPOS>ATOM
      1 C1         -1.3328    3.3666    1.4349 C.3       1 <0>        -0.1815
      2 C2         -1.0484    2.5445    0.1762 C.3       1 <0>         0.1195
      3 C3         -0.1185    3.3312   -0.7578 C.3       1 <0>         0.1076
      4 H1         -0.6082    4.2198   -1.1828 H         1 <0>         0.0768
      5 C4          1.1448    3.6909    0.0266 C.3       1 <0>         0.1050
      6 H2          0.9354    4.4884    0.7547 H         1 <0>         0.0821
      7 C5          1.6667    2.4719    0.7485 C.2       1 <0>        -0.2732
      8 C6          0.8898    1.3935    0.9661 C.2       1 <0>         0.1432
      9 O1         -0.3918    1.3286    0.5326 O.3       1 <0>        -0.2677
     10 C7          1.4274    0.2138    1.6958 C.2       1 <0>         0.4308
     11 O2          0.7181   -0.7520    1.8927 O.2       1 <0>        -0.3936
     12 C8          2.8214    0.2149    2.1805 C.ar      1 <0>        -0.1195
     13 C9          3.3438   -0.8782    2.8624 C.ar      1 <0>        -0.0606
     14 C10         4.6566   -0.8492    3.3059 C.ar      1 <0>        -0.0973
     15 C11         5.4487    0.2590    3.0750 C.ar      1 <0>        -0.0939
     16 C12         4.9411    1.3566    2.3965 C.ar      1 <0>        -0.0645
     17 C13         3.6279    1.3424    1.9450 C.ar      1 <0>        -0.1204
     18 C14         3.0604    2.4976    1.2189 C.2       1 <0>         0.4427
     19 O3          3.7506    3.4763    1.0084 O.2       1 <0>        -0.4393
     20 N1          2.1710    4.1850   -0.9012 N.3       1 <0>        -0.6559
     21 C15         2.5506    5.5670   -0.5790 C.3       1 <0>         0.0895
     22 C16         3.5080    6.0814   -1.6229 C.ar      1 <0>        -0.0774
     23 C17         4.8700    5.9181   -1.4520 C.ar      1 <0>        -0.1083
     24 C18         5.7480    6.3865   -2.4114 C.ar      1 <0>        -0.1220
     25 C19         5.2645    7.0254   -3.5378 C.ar      1 <0>        -0.1202
     26 C20         3.9028    7.1934   -3.7062 C.ar      1 <0>        -0.1230
     27 C21         3.0245    6.7216   -2.7486 C.ar      1 <0>        -0.1013
     28 O4          0.2268    2.5266   -1.8872 O.3       1 <0>        -0.5806
     29 C22        -2.3608    2.2310   -0.5450 C.3       1 <0>        -0.1385
     30 H3         -1.8387    4.3024    1.1551 H         1 <0>         0.0846
     31 H4         -0.3851    3.5997    1.9425 H         1 <0>         0.0656
     32 H5         -1.9790    2.7887    2.1120 H         1 <0>         0.0799
     33 H6          2.7290   -1.7471    3.0455 H         1 <0>         0.1463
     34 H7          5.0629   -1.6981    3.8357 H         1 <0>         0.1418
     35 H8          6.4701    0.2706    3.4257 H         1 <0>         0.1408
     36 H9          5.5655    2.2198    2.2190 H         1 <0>         0.1454
     37 H10         3.0653    3.5483   -0.8317 H         1 <0>         0.3546
     38 H11         1.6511    6.2000   -0.5627 H         1 <0>         0.0736
     39 H12         3.0355    5.5935    0.4080 H         1 <0>         0.0551
     40 H13         5.2479    5.4219   -0.5703 H         1 <0>         0.1220
     41 H14         6.8120    6.2556   -2.2797 H         1 <0>         0.1202
     42 H15         5.9506    7.3937   -4.2861 H         1 <0>         0.1198
     43 H16         3.5250    7.6929   -4.5861 H         1 <0>         0.1205
     44 H17         1.9606    6.8528   -2.8802 H         1 <0>         0.1194
     45 H18         0.8902    2.9290   -2.6669 H         1 <0>         0.4182
     46 H19        -2.1505    1.6401   -1.4487 H         1 <0>         0.0799
     47 H20        -2.8569    3.1709   -0.8287 H         1 <0>         0.0824
     48 H21        -3.0186    1.6566    0.1239 H         1 <0>         0.0712
@<TRIPOS>BOND
     1    1    2 1
     2    1   30 1
     3    1   31 1
     4    1   32 1
     5    2    9 1
     6    2    3 1
     7    2   29 1
     8    3    4 1
     9    3    5 1
    10    3   28 1
    11    5    6 1
    12    5    7 1
    13    5   20 1
    14    7   18 1
    15    7    8 2
    16    8    9 1
    17    8   10 1
    18   10   11 2
    19   10   12 1
    20   12   17 ar
    21   12   13 ar
    22   13   14 ar
    23   13   33 1
    24   14   15 ar
    25   14   34 1
    26   15   16 ar
    27   15   35 1
    28   16   17 ar
    29   16   36 1
    30   17   18 1
    31   18   19 2
    32   20   21 1
    33   20   37 1
    34   21   22 1
    35   21   38 1
    36   21   39 1
    37   22   27 ar
    38   22   23 ar
    39   23   24 ar
    40   23   40 1
    41   24   25 ar
    42   24   41 1
    43   25   26 ar
    44   25   42 1
    45   26   27 ar
    46   26   43 1
    47   27   44 1
    48   28   45 1
    49   29   46 1
    50   29   47 1
    51   29   48 1
@<TRIPOS>MOLECULE
ZINC29134844
   49    52     0     0     0
SMALL
USER_CHARGES
(3R,4R)-4-(benzylamino)-3-hydroxy-2,2-dimethyl-3,4-dihydrobenzo[g]chromene-5,10-dione
@<TRIPOS>ATOM
      1 C1         -1.3328    3.3666    1.4349 C.3       1 <0>        -0.1919
      2 C2         -1.0484    2.5445    0.1762 C.3       1 <0>         0.1287
      3 C3         -0.1185    3.3312   -0.7578 C.3       1 <0>         0.0679
      4 H1         -0.6082    4.2198   -1.1828 H         1 <0>         0.1142
      5 C4          1.1448    3.6909    0.0266 C.3       1 <0>         0.0727
      6 H2          0.9354    4.4884    0.7547 H         1 <0>         0.1553
      7 C5          1.6667    2.4719    0.7485 C.2       1 <0>        -0.3422
      8 C6          0.8898    1.3935    0.9661 C.2       1 <0>         0.2148
      9 O1         -0.3918    1.3286    0.5326 O.3       1 <0>        -0.2522
     10 C7          1.4274    0.2138    1.6958 C.2       1 <0>         0.4221
     11 O2          0.7181   -0.7520    1.8927 O.2       1 <0>        -0.3644
     12 C8          2.8214    0.2149    2.1805 C.ar      1 <0>        -0.1195
     13 C9          3.3438   -0.8782    2.8624 C.ar      1 <0>        -0.0536
     14 C10         4.6566   -0.8492    3.3059 C.ar      1 <0>        -0.0824
     15 C11         5.4487    0.2590    3.0750 C.ar      1 <0>        -0.0892
     16 C12         4.9411    1.3566    2.3965 C.ar      1 <0>        -0.0530
     17 C13         3.6279    1.3424    1.9450 C.ar      1 <0>        -0.1354
     18 C14         3.0604    2.4976    1.2189 C.2       1 <0>         0.4610
     19 O3          3.7506    3.4763    1.0084 O.2       1 <0>        -0.4659
     20 N1          2.1710    4.1850   -0.9012 N.4       1 <0>        -0.5258
     21 C15         2.5506    5.5670   -0.5790 C.3       1 <0>         0.0502
     22 C16         3.5080    6.0814   -1.6229 C.ar      1 <0>        -0.1607
     23 C17         4.8700    5.9181   -1.4520 C.ar      1 <0>        -0.0868
     24 C18         5.7480    6.3865   -2.4114 C.ar      1 <0>        -0.1155
     25 C19         5.2645    7.0254   -3.5378 C.ar      1 <0>        -0.0839
     26 C20         3.9028    7.1934   -3.7062 C.ar      1 <0>        -0.1160
     27 C21         3.0245    6.7216   -2.7486 C.ar      1 <0>        -0.0975
     28 O4          0.2268    2.5266   -1.8872 O.3       1 <0>        -0.5600
     29 C22        -2.3608    2.2310   -0.5450 C.3       1 <0>        -0.1474
     30 H3         -1.8387    4.3024    1.1551 H         1 <0>         0.0972
     31 H4         -0.3851    3.5997    1.9425 H         1 <0>         0.0683
     32 H5         -1.9790    2.7887    2.1120 H         1 <0>         0.0971
     33 H6          2.7290   -1.7471    3.0455 H         1 <0>         0.1520
     34 H7          5.0629   -1.6981    3.8357 H         1 <0>         0.1495
     35 H8          6.4701    0.2706    3.4257 H         1 <0>         0.1478
     36 H9          5.5655    2.2198    2.2190 H         1 <0>         0.1492
     37 H10         3.0653    3.5483   -0.8317 H         1 <0>         0.4526
     38 H11         1.6511    6.2000   -0.5627 H         1 <0>         0.1309
     39 H12         3.0355    5.5935    0.4080 H         1 <0>         0.1445
     40 H13         5.2479    5.4219   -0.5703 H         1 <0>         0.1353
     41 H14         6.8120    6.2556   -2.2797 H         1 <0>         0.1352
     42 H15         5.9506    7.3937   -4.2861 H         1 <0>         0.1350
     43 H16         3.5250    7.6929   -4.5861 H         1 <0>         0.1351
     44 H17         1.9606    6.8528   -2.8802 H         1 <0>         0.1293
     45 H18         0.8902    2.9290   -2.6669 H         1 <0>         0.4069
     46 H19        -2.1505    1.6401   -1.4487 H         1 <0>         0.0862
     47 H20        -2.8569    3.1709   -0.8287 H         1 <0>         0.0932
     48 H21        -3.0186    1.6566    0.1239 H         1 <0>         0.0864
     49 H22         1.7801    4.1571   -1.9290 H         1 <0>         0.4247
@<TRIPOS>BOND
     1    1    2 1
     2    1   30 1
     3    1   31 1
     4    1   32 1
     5    2    9 1
     6    2    3 1
     7    2   29 1
     8    3    4 1
     9    3    5 1
    10    3   28 1
    11    5    6 1
    12    5    7 1
    13    5   20 1
    14    7   18 1
    15    7    8 2
    16    8    9 1
    17    8   10 1
    18   10   11 2
    19   10   12 1
    20   12   17 ar
    21   12   13 ar
    22   13   14 ar
    23   13   33 1
    24   14   15 ar
    25   14   34 1
    26   15   16 ar
    27   15   35 1
    28   16   17 ar
    29   16   36 1
    30   17   18 1
    31   18   19 2
    32   20   21 1
    33   20   37 1
    34   20   49 1
    35   21   22 1
    36   21   38 1
    37   21   39 1
    38   22   27 ar
    39   22   23 ar
    40   23   24 ar
    41   23   40 1
    42   24   25 ar
    43   24   41 1
    44   25   26 ar
    45   25   42 1
    46   26   27 ar
    47   26   43 1
    48   27   44 1
    49   28   45 1
    50   29   46 1
    51   29   47 1
    52   29   48 1
@<TRIPOS>MOLECULE
ZINC29134846
   48    51     0     0     0
SMALL
USER_CHARGES
(3R,4S)-4-(benzylamino)-3-hydroxy-2,2-dimethyl-3,4-dihydrobenzo[g]chromene-5,10-dione
@<TRIPOS>ATOM
      1 C1         -1.7317    1.8414    3.5322 C.3       1 <0>        -0.1411
      2 C2         -1.5249    1.5983    2.0359 C.3       1 <0>         0.1270
      3 C3         -0.0441    1.7760    1.6815 C.3       1 <0>         0.0815
      4 H1          0.6120    1.1667    2.3205 H         1 <0>         0.0780
      5 C4          0.1323    1.4460    0.1981 C.3       1 <0>         0.1018
      6 H2          1.1317    1.7454   -0.1505 H         1 <0>         0.0841
      7 C5         -0.9221    2.1584   -0.6145 C.2       1 <0>        -0.2258
      8 C6         -2.0394    2.6505   -0.0457 C.2       1 <0>         0.1312
      9 O1         -2.2756    2.5513    1.2843 O.3       1 <0>        -0.2705
     10 C7         -3.0655    3.3383   -0.8748 C.2       1 <0>         0.4334
     11 O2         -4.0722    3.7745   -0.3544 O.2       1 <0>        -0.3980
     12 C8         -2.8624    3.4909   -2.3285 C.ar      1 <0>        -0.1204
     13 C9         -3.8091    4.1298   -3.1212 C.ar      1 <0>        -0.0611
     14 C10        -3.5919    4.2581   -4.4840 C.ar      1 <0>        -0.0999
     15 C11        -2.4407    3.7555   -5.0592 C.ar      1 <0>        -0.0941
     16 C12        -1.4873    3.1165   -4.2811 C.ar      1 <0>        -0.0675
     17 C13        -1.6908    2.9793   -2.9142 C.ar      1 <0>        -0.1173
     18 C14        -0.6930    2.3014   -2.0607 C.2       1 <0>         0.4432
     19 O3          0.3245    1.8583   -2.5574 O.2       1 <0>        -0.4369
     20 N1          0.0021   -0.0041    0.0020 N.3       1 <0>        -0.6501
     21 C15         1.0541   -0.5114   -0.8890 C.3       1 <0>         0.0769
     22 C16         0.9651   -2.0138   -0.9668 C.ar      1 <0>        -0.0828
     23 C17         1.6739   -2.7953   -0.0736 C.ar      1 <0>        -0.1163
     24 C18         1.5881   -4.1733   -0.1417 C.ar      1 <0>        -0.1202
     25 C19         0.8022   -4.7699   -1.1098 C.ar      1 <0>        -0.1188
     26 C20         0.0979   -3.9884   -2.0066 C.ar      1 <0>        -0.1203
     27 C21         0.1792   -2.6104   -1.9349 C.ar      1 <0>        -0.0963
     28 O4          0.3525    3.1268    1.9264 O.3       1 <0>        -0.5813
     29 C22        -1.9782    0.1823    1.6748 C.3       1 <0>        -0.2005
     30 H3         -1.1513    1.1047    4.1070 H         1 <0>         0.0806
     31 H4         -2.7993    1.7383    3.7763 H         1 <0>         0.0722
     32 H5         -1.3932    2.8560    3.7890 H         1 <0>         0.0763
     33 H6         -4.7105    4.5250   -2.6765 H         1 <0>         0.1454
     34 H7         -4.3270    4.7544   -5.1002 H         1 <0>         0.1408
     35 H8         -2.2818    3.8618   -6.1222 H         1 <0>         0.1398
     36 H9         -0.5893    2.7262   -4.7368 H         1 <0>         0.1443
     37 H10         0.0858   -0.5144    0.9729 H         1 <0>         0.3440
     38 H11         0.9214   -0.0837   -1.8937 H         1 <0>         0.1006
     39 H12         2.0395   -0.2224   -0.4947 H         1 <0>         0.0415
     40 H13         2.2914   -2.3293    0.6799 H         1 <0>         0.1175
     41 H14         2.1380   -4.7839    0.5592 H         1 <0>         0.1212
     42 H15         0.7381   -5.8466   -1.1653 H         1 <0>         0.1211
     43 H16        -0.5161   -4.4546   -2.7630 H         1 <0>         0.1217
     44 H17        -0.3710   -1.9998   -2.6355 H         1 <0>         0.1207
     45 H18         1.3880    3.4406    1.7280 H         1 <0>         0.4125
     46 H19        -1.8276    0.0124    0.5985 H         1 <0>         0.1139
     47 H20        -3.0444    0.0652    1.9189 H         1 <0>         0.0719
     48 H21        -1.3885   -0.5487    2.2475 H         1 <0>         0.0760
@<TRIPOS>BOND
     1    1    2 1
     2    1   30 1
     3    1   31 1
     4    1   32 1
     5    2    9 1
     6    2    3 1
     7    2   29 1
     8    3    4 1
     9    3    5 1
    10    3   28 1
    11    5    6 1
    12    5    7 1
    13    5   20 1
    14    7   18 1
    15    7    8 2
    16    8    9 1
    17    8   10 1
    18   10   11 2
    19   10   12 1
    20   12   17 ar
    21   12   13 ar
    22   13   14 ar
    23   13   33 1
    24   14   15 ar
    25   14   34 1
    26   15   16 ar
    27   15   35 1
    28   16   17 ar
    29   16   36 1
    30   17   18 1
    31   18   19 2
    32   20   21 1
    33   20   37 1
    34   21   22 1
    35   21   38 1
    36   21   39 1
    37   22   27 ar
    38   22   23 ar
    39   23   24 ar
    40   23   40 1
    41   24   25 ar
    42   24   41 1
    43   25   26 ar
    44   25   42 1
    45   26   27 ar
    46   26   43 1
    47   27   44 1
    48   28   45 1
    49   29   46 1
    50   29   47 1
    51   29   48 1
@<TRIPOS>MOLECULE
ZINC29134846
   49    52     0     0     0
SMALL
USER_CHARGES
(3R,4S)-4-(benzylamino)-3-hydroxy-2,2-dimethyl-3,4-dihydrobenzo[g]chromene-5,10-dione
@<TRIPOS>ATOM
      1 C1         -1.7317    1.8414    3.5322 C.3       1 <0>        -0.1474
      2 C2         -1.5249    1.5983    2.0359 C.3       1 <0>         0.1113
      3 C3         -0.0441    1.7760    1.6815 C.3       1 <0>         0.0754
      4 H1          0.6120    1.1667    2.3205 H         1 <0>         0.1087
      5 C4          0.1323    1.4460    0.1981 C.3       1 <0>         0.0689
      6 H2          1.1317    1.7454   -0.1505 H         1 <0>         0.1589
      7 C5         -0.9221    2.1584   -0.6145 C.2       1 <0>        -0.3334
      8 C6         -2.0394    2.6505   -0.0457 C.2       1 <0>         0.2070
      9 O1         -2.2756    2.5513    1.2843 O.3       1 <0>        -0.2484
     10 C7         -3.0655    3.3383   -0.8748 C.2       1 <0>         0.4233
     11 O2         -4.0722    3.7745   -0.3544 O.2       1 <0>        -0.3670
     12 C8         -2.8624    3.4909   -2.3285 C.ar      1 <0>        -0.1242
     13 C9         -3.8091    4.1298   -3.1212 C.ar      1 <0>        -0.0530
     14 C10        -3.5919    4.2581   -4.4840 C.ar      1 <0>        -0.0867
     15 C11        -2.4407    3.7555   -5.0592 C.ar      1 <0>        -0.0867
     16 C12        -1.4873    3.1165   -4.2811 C.ar      1 <0>        -0.0572
     17 C13        -1.6908    2.9793   -2.9142 C.ar      1 <0>        -0.1305
     18 C14        -0.6930    2.3014   -2.0607 C.2       1 <0>         0.4508
     19 O3          0.3245    1.8583   -2.5574 O.2       1 <0>        -0.4435
     20 N1          0.0021   -0.0041    0.0020 N.4       1 <0>        -0.5357
     21 C15         1.0541   -0.5114   -0.8890 C.3       1 <0>         0.0346
     22 C16         0.9651   -2.0138   -0.9668 C.ar      1 <0>        -0.1597
     23 C17         1.6739   -2.7953   -0.0736 C.ar      1 <0>        -0.0961
     24 C18         1.5881   -4.1733   -0.1417 C.ar      1 <0>        -0.1139
     25 C19         0.8022   -4.7699   -1.1098 C.ar      1 <0>        -0.0845
     26 C20         0.0979   -3.9884   -2.0066 C.ar      1 <0>        -0.1131
     27 C21         0.1792   -2.6104   -1.9349 C.ar      1 <0>        -0.0939
     28 O4          0.3525    3.1268    1.9264 O.3       1 <0>        -0.5594
     29 C22        -1.9782    0.1823    1.6748 C.3       1 <0>        -0.2072
     30 H3         -1.1513    1.1047    4.1070 H         1 <0>         0.0931
     31 H4         -2.7993    1.7383    3.7763 H         1 <0>         0.0858
     32 H5         -1.3932    2.8560    3.7890 H         1 <0>         0.0901
     33 H6         -4.7105    4.5250   -2.6765 H         1 <0>         0.1509
     34 H7         -4.3270    4.7544   -5.1002 H         1 <0>         0.1487
     35 H8         -2.2818    3.8618   -6.1222 H         1 <0>         0.1471
     36 H9         -0.5893    2.7262   -4.7368 H         1 <0>         0.1485
     37 H10         0.0858   -0.5144    0.9729 H         1 <0>         0.4419
     38 H11         0.9214   -0.0837   -1.8937 H         1 <0>         0.1477
     39 H12         2.0395   -0.2224   -0.4947 H         1 <0>         0.1341
     40 H13         2.2914   -2.3293    0.6799 H         1 <0>         0.1305
     41 H14         2.1380   -4.7839    0.5592 H         1 <0>         0.1358
     42 H15         0.7381   -5.8466   -1.1653 H         1 <0>         0.1356
     43 H16        -0.5161   -4.4546   -2.7630 H         1 <0>         0.1356
     44 H17        -0.3710   -1.9998   -2.6355 H         1 <0>         0.1294
     45 H18         1.3880    3.4406    1.7280 H         1 <0>         0.4336
     46 H19        -1.8276    0.0124    0.5985 H         1 <0>         0.0496
     47 H20        -3.0444    0.0652    1.9189 H         1 <0>         0.1155
     48 H21        -1.3885   -0.5487    2.2475 H         1 <0>         0.1031
     49 H22        -0.9774   -0.2270   -0.4461 H         1 <0>         0.4459
@<TRIPOS>BOND
     1    1    2 1
     2    1   30 1
     3    1   31 1
     4    1   32 1
     5    2    9 1
     6    2    3 1
     7    2   29 1
     8    3    4 1
     9    3    5 1
    10    3   28 1
    11    5    6 1
    12    5    7 1
    13    5   20 1
    14    7   18 1
    15    7    8 2
    16    8    9 1
    17    8   10 1
    18   10   11 2
    19   10   12 1
    20   12   17 ar
    21   12   13 ar
    22   13   14 ar
    23   13   33 1
    24   14   15 ar
    25   14   34 1
    26   15   16 ar
    27   15   35 1
    28   16   17 ar
    29   16   36 1
    30   17   18 1
    31   18   19 2
    32   20   21 1
    33   20   37 1
    34   20   49 1
    35   21   22 1
    36   21   38 1
    37   21   39 1
    38   22   27 ar
    39   22   23 ar
    40   23   24 ar
    41   23   40 1
    42   24   25 ar
    43   24   41 1
    44   25   26 ar
    45   25   42 1
    46   26   27 ar
    47   26   43 1
    48   27   44 1
    49   28   45 1
    50   29   46 1
    51   29   47 1
    52   29   48 1
@<TRIPOS>MOLECULE
ZINC00526257
   19    20     0     0     0
SMALL
USER_CHARGES

@<TRIPOS>ATOM
      1 C1         -0.0166    1.3735    0.0096 C.ar      1 <0>        -0.0807
      2 C2          1.1695    2.0972    0.0022 C.ar      1 <0>        -0.0758
      3 C3          2.3856    1.4299   -0.0127 C.ar      1 <0>        -0.1119
      4 C4          2.4130    0.0213   -0.0201 C.ar      1 <0>        -0.1608
      5 C5          1.2157   -0.6943   -0.0126 C.ar      1 <0>         0.1640
      6 C6          0.0021   -0.0041    0.0020 C.ar      1 <0>        -0.1269
      7 O1          1.2302   -2.0495   -0.0206 O.3       1 <0>        -0.4763
      8 C7          3.7170   -0.6682   -0.0346 C.2       1 <0>         0.4090
      9 O2          3.7816   -1.8558   -0.2856 O.2       1 <0>        -0.4049
     10 C8          4.9435    0.1011    0.2587 C.2       1 <0>        -0.1378
     11 C9          4.9196    1.4427    0.2653 C.2       1 <0>        -0.1447
     12 C10         3.6665    2.1697   -0.0205 C.2       1 <0>         0.4151
     13 O3          3.6872    3.3611   -0.2587 O.2       1 <0>        -0.4186
     14 H1         -0.9618    1.8957    0.0259 H         1 <0>         0.1441
     15 H2          1.1447    3.1769    0.0076 H         1 <0>         0.1463
     16 H3         -0.9277   -0.5534    0.0081 H         1 <0>         0.1450
     17 H4          1.2430   -2.4478    0.8605 H         1 <0>         0.3989
     18 H5          5.8658   -0.4199    0.4697 H         1 <0>         0.1578
     19 H6          5.8226    1.9944    0.4812 H         1 <0>         0.1581
@<TRIPOS>BOND
     1    1    6 ar
     2    1    2 ar
     3    1   14 1
     4    2    3 ar
     5    2   15 1
     6    3   12 1
     7    3    4 ar
     8    4    5 ar
     9    4    8 1
    10    5    6 ar
    11    5    7 1
    12    6   16 1
    13    7   17 1
    14    8    9 2
    15    8   10 1
    16   10   11 2
    17   10   18 1
    18   11   12 1
    19   11   19 1
    20   12   13 2
@<TRIPOS>MOLECULE
ZINC01628348
   32    34     0     0     0
SMALL
USER_CHARGES
2,2-dimethyl-3,4-dihydrobenzo[g]chromene-5,10-dione
@<TRIPOS>ATOM
      1 C1          3.3354    3.7941   -1.8570 C.3       1 <0>        -0.1780
      2 C2          3.6003    3.6523   -0.3568 C.3       1 <0>         0.1063
      3 C3          2.4845    4.3481    0.4348 C.3       1 <0>        -0.1498
      4 C4          1.1484    3.7439   -0.0017 C.3       1 <0>        -0.0704
      5 C5          1.2397    2.2369    0.0022 C.2       1 <0>        -0.2431
      6 C6          2.4271    1.6013   -0.0068 C.2       1 <0>         0.1103
      7 O1          3.6039    2.2715    0.0045 O.3       1 <0>        -0.2813
      8 C7          2.4846    0.1147   -0.0212 C.2       1 <0>         0.4331
      9 O2          3.5595   -0.4500   -0.0382 O.2       1 <0>        -0.3994
     10 C8          1.2378   -0.6748   -0.0145 C.ar      1 <0>        -0.1212
     11 C9          1.2697   -2.0646   -0.0235 C.ar      1 <0>        -0.0610
     12 C10         0.0827   -2.7802   -0.0139 C.ar      1 <0>        -0.0996
     13 C11        -1.1314   -2.1209    0.0033 C.ar      1 <0>        -0.0936
     14 C12        -1.1787   -0.7351    0.0109 C.ar      1 <0>        -0.0671
     15 C13         0.0021   -0.0041    0.0020 C.ar      1 <0>        -0.1193
     16 C14        -0.0180    1.4735    0.0101 C.2       1 <0>         0.4368
     17 O3         -1.0816    2.0627    0.0184 O.2       1 <0>        -0.4322
     18 C15         4.9507    4.2819   -0.0087 C.3       1 <0>        -0.1393
     19 H1          3.3092    4.8509   -2.1230 H         1 <0>         0.0800
     20 H2          4.1302    3.2987   -2.4147 H         1 <0>         0.0706
     21 H3          2.3782    3.3339   -2.1020 H         1 <0>         0.0654
     22 H4          2.4928    5.4170    0.2216 H         1 <0>         0.0931
     23 H5          2.6317    4.1842    1.5023 H         1 <0>         0.0817
     24 H6          0.9061    4.0892   -1.0068 H         1 <0>         0.0869
     25 H7          0.3654    4.0609    0.6871 H         1 <0>         0.0937
     26 H8          2.2160   -2.5849   -0.0379 H         1 <0>         0.1457
     27 H9          0.1069   -3.8599   -0.0202 H         1 <0>         0.1412
     28 H10        -2.0499   -2.6889    0.0105 H         1 <0>         0.1405
     29 H11        -2.1309   -0.2258    0.0233 H         1 <0>         0.1454
     30 H12         5.1404    4.1679    1.0586 H         1 <0>         0.0696
     31 H13         5.7396    3.7847   -0.5731 H         1 <0>         0.0712
     32 H14         4.9340    5.3415   -0.2637 H         1 <0>         0.0835
@<TRIPOS>BOND
     1    1    2 1
     2    1   19 1
     3    1   20 1
     4    1   21 1
     5    2    7 1
     6    2    3 1
     7    2   18 1
     8    3    4 1
     9    3   22 1
    10    3   23 1
    11    4    5 1
    12    4   24 1
    13    4   25 1
    14    5   16 1
    15    5    6 2
    16    6    7 1
    17    6    8 1
    18    8    9 2
    19    8   10 1
    20   10   15 ar
    21   10   11 ar
    22   11   12 ar
    23   11   26 1
    24   12   13 ar
    25   12   27 1
    26   13   14 ar
    27   13   28 1
    28   14   15 ar
    29   14   29 1
    30   15   16 1
    31   16   17 2
    32   18   30 1
    33   18   31 1
    34   18   32 1
@<TRIPOS>MOLECULE
ZINC00120515
   20    21     0     0     0
SMALL
USER_CHARGES
5-aminoquinolin-8-ol
@<TRIPOS>ATOM
      1 C1          1.1207    5.9107    0.0209 C.ar      1 <0>        -0.1847
      2 C2         -0.0828    5.2625    0.0293 C.ar      1 <0>        -0.0499
      3 C3         -0.0795    3.8574    0.0226 C.ar      1 <0>        -0.1398
      4 C4         -1.2824    3.1208    0.0301 C.ar      1 <0>         0.2340
      5 C5         -1.2337    1.7434    0.0174 C.ar      1 <0>        -0.2054
      6 C6         -0.0126    1.0758    0.0080 C.ar      1 <0>        -0.0720
      7 C7          1.1671    1.7630    0.0004 C.ar      1 <0>         0.0658
      8 C8          1.1605    3.1723    0.0075 C.ar      1 <0>         0.1426
      9 N1          2.3029    3.8662   -0.0001 N.ar      1 <0>        -0.4667
     10 C9          2.3041    5.1775    0.0061 C.ar      1 <0>         0.1372
     11 O1          2.3476    1.0881   -0.0145 O.3       1 <0>        -0.4809
     12 N2         -2.5118    3.7813    0.0446 N.pl3     1 <0>        -0.8668
     13 H1          1.1534    6.9902    0.0253 H         1 <0>         0.1390
     14 H2         -1.0106    5.8151    0.0412 H         1 <0>         0.1334
     15 H3         -2.1528    1.1762    0.0191 H         1 <0>         0.1301
     16 H4          0.0021   -0.0041    0.0020 H         1 <0>         0.1359
     17 H5          3.2479    5.7025   -0.0001 H         1 <0>         0.1612
     18 H6          2.6806    0.8977   -0.9022 H         1 <0>         0.3835
     19 H7         -2.5414    4.7509    0.0494 H         1 <0>         0.3987
     20 H8         -3.3366    3.2708    0.0497 H         1 <0>         0.4049
@<TRIPOS>BOND
     1    1   10 ar
     2    1    2 ar
     3    1   13 1
     4    2    3 ar
     5    2   14 1
     6    3    8 ar
     7    3    4 ar
     8    4    5 ar
     9    4   12 1
    10    5    6 ar
    11    5   15 1
    12    6    7 ar
    13    6   16 1
    14    7    8 ar
    15    7   11 1
    16    8    9 ar
    17    9   10 ar
    18   10   17 1
    19   11   18 1
    20   12   19 1
    21   12   20 1
@<TRIPOS>MOLECULE
ZINC38476029
   20    21     0     0     0
SMALL
USER_CHARGES

@<TRIPOS>ATOM
      1 C1         -0.0166    1.3756    0.0096 C.ar      1 <0>        -0.1237
      2 C2          1.1692    2.0890    0.0021 C.ar      1 <0>        -0.0996
      3 C3          2.3825    1.4267   -0.0135 C.ar      1 <0>        -0.1395
      4 C4          2.4176    0.0421   -0.0213 C.ar      1 <0>         0.1259
      5 C5          1.2204   -0.6831   -0.0133 C.ar      1 <0>        -0.0431
      6 C6          0.0021   -0.0041    0.0020 C.ar      1 <0>        -0.0997
      7 C7          1.2470   -2.1616   -0.0220 C.2       1 <0>         0.0029
      8 C8          2.0934   -2.9565   -0.7314 C.2       1 <0>         0.0180
      9 N1          1.7865   -4.2303   -0.4588 N.2       1 <0>        -0.4952
     10 C9          0.7909   -4.2688    0.3850 C.2       1 <0>         0.1936
     11 N2          0.4244   -3.0043    0.6904 N.pl3     1 <0>        -0.5668
     12 H1         -0.2858   -2.7404    1.2960 H         1 <0>         0.4198
     13 O1          3.6095   -0.6098   -0.0371 O.3       1 <0>        -0.4893
     14 H2         -0.9602    1.9007    0.0260 H         1 <0>         0.1292
     15 H3          1.1467    3.1688    0.0081 H         1 <0>         0.1305
     16 H4          3.3042    1.9896   -0.0200 H         1 <0>         0.1346
     17 H5         -0.9253   -0.5575    0.0083 H         1 <0>         0.1233
     18 H6          2.8746   -2.6193   -1.3965 H         1 <0>         0.1761
     19 H7          0.3364   -5.1660    0.7785 H         1 <0>         0.2111
     20 H8          3.9637   -0.8032    0.8417 H         1 <0>         0.3919
@<TRIPOS>BOND
     1    1    6 ar
     2    1    2 ar
     3    1   14 1
     4    2    3 ar
     5    2   15 1
     6    3    4 ar
     7    3   16 1
     8    4    5 ar
     9    4   13 1
    10    5    6 ar
    11    5    7 1
    12    6   17 1
    13    7   11 1
    14    7    8 2
    15    8    9 1
    16    8   18 1
    17    9   10 2
    18   10   11 1
    19   10   19 1
    20   11   12 1
    21   13   20 1
@<TRIPOS>MOLECULE
ZINC38476029
   19    20     0     0     0
SMALL
USER_CHARGES

@<TRIPOS>ATOM
      1 C1         -0.0166    1.3762    0.0096 C.ar      1 <0>        -0.2756
      2 C2          1.1692    2.0890    0.0021 C.ar      1 <0>        -0.0675
      3 C3          2.3816    1.4254   -0.0134 C.ar      1 <0>        -0.2758
      4 C4          2.4147    0.0404   -0.0211 C.ar      1 <0>         0.2877
      5 C5          1.2184   -0.6825   -0.0131 C.ar      1 <0>        -0.1884
      6 C6          0.0021   -0.0041    0.0020 C.ar      1 <0>        -0.0528
      7 C7          1.2441   -2.1659   -0.0218 C.2       1 <0>         0.1130
      8 C8          0.1611   -2.9862   -0.0210 C.2       1 <0>        -0.1058
      9 N1          0.6392   -4.2675   -0.0316 N.pl3     1 <0>        -0.5827
     10 C9          1.9882   -4.1957   -0.0386 C.2       1 <0>         0.1497
     11 N2          2.3466   -2.9422   -0.0378 N.2       1 <0>        -0.4384
     12 H1          0.1074   -5.0787   -0.0335 H         1 <0>         0.4062
     13 O1          3.6061   -0.6130   -0.0369 O.3       1 <0>        -0.6894
     14 H2         -0.9602    1.9015    0.0259 H         1 <0>         0.0897
     15 H3          1.1474    3.1688    0.0081 H         1 <0>         0.0878
     16 H4          3.3040    1.9871   -0.0199 H         1 <0>         0.0924
     17 H5         -0.9254   -0.5573    0.0082 H         1 <0>         0.0888
     18 H6         -0.8760   -2.6849   -0.0131 H         1 <0>         0.1656
     19 H7          2.6612   -5.0404   -0.0476 H         1 <0>         0.1956
@<TRIPOS>BOND
     1    1    6 ar
     2    1    2 ar
     3    1   14 1
     4    2    3 ar
     5    2   15 1
     6    3    4 ar
     7    3   16 1
     8    4    5 ar
     9    4   13 1
    10    5    6 ar
    11    5    7 1
    12    6   17 1
    13    7   11 1
    14    7    8 2
    15    8    9 1
    16    8   18 1
    17    9   10 1
    18    9   12 1
    19   10   11 2
    20   10   19 1
@<TRIPOS>MOLECULE
ZINC38476029
   21    22     0     0     0
SMALL
USER_CHARGES

@<TRIPOS>ATOM
      1 C1         -0.0166    1.3762    0.0096 C.ar      1 <0>        -0.1186
      2 C2          1.1692    2.0890    0.0021 C.ar      1 <0>        -0.0682
      3 C3          2.3816    1.4254   -0.0134 C.ar      1 <0>        -0.1359
      4 C4          2.4147    0.0404   -0.0211 C.ar      1 <0>         0.1451
      5 C5          1.2184   -0.6825   -0.0131 C.ar      1 <0>        -0.0980
      6 C6          0.0021   -0.0041    0.0020 C.ar      1 <0>        -0.0816
      7 C7          1.2441   -2.1659   -0.0218 C.2       1 <0>         0.0805
      8 C8          2.0950   -2.9485   -0.7355 C.2       1 <0>         0.0574
      9 N1          1.7701   -4.2455   -0.4478 N.pl3     1 <0>        -0.5088
     10 H1          2.2007   -5.0380   -0.8048 H         1 <0>         0.4686
     11 C9          0.7396   -4.2201    0.4254 C.cat     1 <0>         0.3058
     12 N2          0.4310   -2.9797    0.6818 N.pl3     1 <0>        -0.4752
     13 O1          3.6061   -0.6130   -0.0369 O.3       1 <0>        -0.4947
     14 H2         -0.9602    1.9015    0.0259 H         1 <0>         0.1413
     15 H3          1.1474    3.1688    0.0081 H         1 <0>         0.1426
     16 H4          3.3040    1.9871   -0.0199 H         1 <0>         0.1458
     17 H5         -0.9254   -0.5573    0.0082 H         1 <0>         0.1307
     18 H6          2.8760   -2.6118   -1.4011 H         1 <0>         0.2309
     19 H7          0.2527   -5.0874    0.8464 H         1 <0>         0.2678
     20 H8          3.9600   -0.8068    0.8419 H         1 <0>         0.4001
     21 H9         -0.2731   -2.6883    1.2820 H         1 <0>         0.4642
@<TRIPOS>BOND
     1    1    6 ar
     2    1    2 ar
     3    1   14 1
     4    2    3 ar
     5    2   15 1
     6    3    4 ar
     7    3   16 1
     8    4    5 ar
     9    4   13 1
    10    5    6 ar
    11    5    7 1
    12    6   17 1
    13    7   12 1
    14    7    8 2
    15    8    9 1
    16    8   18 1
    17    9   10 1
    18    9   11 1
    19   11   12 2
    20   11   19 1
    21   12   21 1
    22   13   20 1
@<TRIPOS>MOLECULE
ZINC38476029
   21    22     0     0     0
SMALL
USER_CHARGES

@<TRIPOS>ATOM
      1 C1         -0.0166    1.3756    0.0096 C.ar      1 <0>        -0.1198
      2 C2          1.1692    2.0890    0.0021 C.ar      1 <0>        -0.0662
      3 C3          2.3825    1.4267   -0.0135 C.ar      1 <0>        -0.1370
      4 C4          2.4176    0.0421   -0.0213 C.ar      1 <0>         0.1478
      5 C5          1.2204   -0.6831   -0.0133 C.ar      1 <0>        -0.1009
      6 C6          0.0021   -0.0041    0.0020 C.ar      1 <0>        -0.0779
      7 C7          1.2470   -2.1616   -0.0220 C.2       1 <0>         0.1123
      8 C8          2.0934   -2.9565   -0.7314 C.2       1 <0>         0.0243
      9 N1          1.7865   -4.2303   -0.4588 N.pl3     1 <0>        -0.4706
     10 C9          0.7909   -4.2688    0.3850 C.cat     1 <0>         0.3028
     11 N2          0.4244   -3.0043    0.6904 N.pl3     1 <0>        -0.5117
     12 H1         -0.2858   -2.7404    1.2960 H         1 <0>         0.4646
     13 O1          3.6095   -0.6098   -0.0371 O.3       1 <0>        -0.4943
     14 H2         -0.9602    1.9007    0.0260 H         1 <0>         0.1416
     15 H3          1.1467    3.1688    0.0081 H         1 <0>         0.1429
     16 H4          3.3042    1.9896   -0.0200 H         1 <0>         0.1462
     17 H5         -0.9253   -0.5575    0.0083 H         1 <0>         0.1313
     18 H6          2.8746   -2.6193   -1.3965 H         1 <0>         0.2286
     19 H7          0.3364   -5.1660    0.7785 H         1 <0>         0.2676
     20 H8          3.9637   -0.8032    0.8417 H         1 <0>         0.4004
     21 H9          2.2347   -5.0058   -0.8310 H         1 <0>         0.4681
@<TRIPOS>BOND
     1    1    6 ar
     2    1    2 ar
     3    1   14 1
     4    2    3 ar
     5    2   15 1
     6    3    4 ar
     7    3   16 1
     8    4    5 ar
     9    4   13 1
    10    5    6 ar
    11    5    7 1
    12    6   17 1
    13    7   11 1
    14    7    8 2
    15    8    9 1
    16    8   18 1
    17    9   10 2
    18    9   21 1
    19   10   11 1
    20   10   19 1
    21   11   12 1
    22   13   20 1
@<TRIPOS>MOLECULE
ZINC06091591
   16    17     0     0     0
SMALL
USER_CHARGES
1H-indole-4,7-dione
@<TRIPOS>ATOM
      1 C1         -1.1296    1.8468    0.0169 C.2       1 <0>        -0.1439
      2 C2         -0.0126    1.0758    0.0080 C.2       1 <0>         0.0227
      3 N1          1.0767    1.8722    0.0018 N.pl3     1 <0>        -0.4932
      4 H1          1.9970    1.5659   -0.0083 H         1 <0>         0.4283
      5 C3          0.6769    3.1793    0.0127 C.2       1 <0>        -0.0434
      6 C4         -0.7129    3.1901    0.0260 C.2       1 <0>        -0.1816
      7 C5         -1.4343    4.4790    0.0406 C.2       1 <0>         0.4340
      8 O1         -2.6487    4.4985    0.0527 O.2       1 <0>        -0.4267
      9 C6         -0.6717    5.7444    0.0408 C.2       1 <0>        -0.1289
     10 C7          0.6669    5.7304    0.0275 C.2       1 <0>        -0.1367
     11 C8          1.4086    4.4526    0.0130 C.2       1 <0>         0.4426
     12 O2          2.6245    4.4554    0.0013 O.2       1 <0>        -0.4389
     13 H2         -2.1503    1.4938    0.0187 H         1 <0>         0.1570
     14 H3          0.0021   -0.0041    0.0020 H         1 <0>         0.1863
     15 H4         -1.1979    6.6875    0.0515 H         1 <0>         0.1599
     16 H5          1.2106    6.6635    0.0275 H         1 <0>         0.1624
@<TRIPOS>BOND
     1    1    6 1
     2    1    2 2
     3    1   13 1
     4    2    3 1
     5    2   14 1
     6    3    4 1
     7    3    5 1
     8    5   11 1
     9    5    6 2
    10    6    7 1
    11    7    8 2
    12    7    9 1
    13    9   10 2
    14    9   15 1
    15   10   11 1
    16   10   16 1
    17   11   12 2
@<TRIPOS>MOLECULE
ZINC00039101
   30    31     0     0     0
SMALL
USER_CHARGES
2-amino-3-(1-methylindol-3-yl)-propanoic acid
@<TRIPOS>ATOM
      1 C1         -1.7395   -1.8280    0.0088 C.3       1 <0>         0.0732
      2 N1         -1.3079   -0.4280    0.0122 N.pl3     1 <0>        -0.4823
      3 C2         -2.1466    0.6531    0.0260 C.2       1 <0>         0.0844
      4 C3         -1.4301    1.7882    0.0312 C.2       1 <0>        -0.2102
      5 C4         -0.0170    1.4028    0.0098 C.ar      1 <0>        -0.1158
      6 C5          0.0021   -0.0041    0.0020 C.ar      1 <0>         0.0988
      7 C6          1.2237   -0.6688   -0.0128 C.ar      1 <0>        -0.1180
      8 C7          2.3964    0.0546   -0.0197 C.ar      1 <0>        -0.0979
      9 C8          2.3722    1.4422   -0.0125 C.ar      1 <0>        -0.1314
     10 C9          1.1831    2.1157    0.0021 C.ar      1 <0>        -0.1008
     11 C10        -1.9761    3.1928    0.0461 C.3       1 <0>        -0.0428
     12 C11        -2.0634    3.7213   -1.3870 C.3       1 <0>        -0.0093
     13 H1         -2.6521    3.0326   -1.9930 H         1 <0>         0.1355
     14 C12        -2.7225    5.0765   -1.3834 C.2       1 <0>         0.4544
     15 O1         -2.0480    6.0765   -1.4535 O.co2     1 <0>        -0.6169
     16 H2         -0.1455    4.4694   -1.4053 H         1 <0>         0.4310
     17 H3         -0.2721    2.9304   -2.0229 H         1 <0>         0.4195
     18 H4         -1.8367   -2.1807    1.0356 H         1 <0>         0.0744
     19 H5         -2.7018   -1.9103   -0.4963 H         1 <0>         0.0883
     20 H6         -1.0009   -2.4346   -0.5153 H         1 <0>         0.0834
     21 H7         -3.2253    0.6007    0.0361 H         1 <0>         0.1762
     22 H8          1.2530   -1.7484   -0.0192 H         1 <0>         0.1222
     23 H9          3.3440   -0.4635   -0.0312 H         1 <0>         0.1292
     24 H10         3.3004    1.9942   -0.0184 H         1 <0>         0.1271
     25 H11         1.1720    3.1956    0.0082 H         1 <0>         0.1176
     26 H12        -2.9698    3.1916    0.4941 H         1 <0>         0.1166
     27 H13        -1.3151    3.8333    0.6300 H         1 <0>         0.0888
     28 O2         -4.0589    5.1727   -1.3022 O.co2     1 <0>        -0.7036
     29 N2         -0.7169    3.8455   -1.9726 N.4       1 <0>        -0.6254
     30 H14        -0.7954    4.2323   -2.9205 H         1 <0>         0.4337
@<TRIPOS>BOND
     1    1    2 1
     2    1   18 1
     3    1   19 1
     4    1   20 1
     5    2    6 1
     6    2    3 1
     7    3    4 2
     8    3   21 1
     9    4    5 1
    10    4   11 1
    11    5   10 ar
    12    5    6 ar
    13    6    7 ar
    14    7    8 ar
    15    7   22 1
    16    8    9 ar
    17    8   23 1
    18    9   10 ar
    19    9   24 1
    20   10   25 1
    21   11   12 1
    22   11   26 1
    23   11   27 1
    24   12   13 1
    25   12   14 1
    26   12   29 1
    27   14   15 2
    28   14   28 1
    29   16   29 1
    30   17   29 1
    31   29   30 1
@<TRIPOS>MOLECULE
ZINC01700208
   18    19     0     0     0
SMALL
USER_CHARGES

@<TRIPOS>ATOM
      1 C1         -0.0167    1.3807    0.0096 C.ar      1 <0>        -0.0891
      2 C2          1.1632    2.1012    0.0022 C.ar      1 <0>        -0.1127
      3 C3          2.3846    1.4461   -0.0134 C.ar      1 <0>        -0.0576
      4 C4          2.4214    0.0565   -0.0213 C.ar      1 <0>        -0.1498
      5 C5          1.2207   -0.6819   -0.0133 C.ar      1 <0>        -0.0463
      6 C6          0.0021   -0.0041    0.0020 C.ar      1 <0>        -0.0967
      7 C7          1.2577   -2.1490   -0.0225 C.2       1 <0>        -0.0099
      8 C8          2.4187   -2.8299   -0.0382 C.2       1 <0>        -0.2225
      9 C9          3.6692   -2.1674   -0.0471 C.2       1 <0>         0.3512
     10 O1          4.7021   -2.8074   -0.0612 O.2       1 <0>        -0.3934
     11 C10         3.7078   -0.6701   -0.0384 C.2       1 <0>         0.3576
     12 O2          4.7633   -0.0721   -0.0461 O.2       1 <0>        -0.3863
     13 H1         -0.9620    1.9027    0.0260 H         1 <0>         0.1366
     14 H2          1.1330    3.1807    0.0083 H         1 <0>         0.1374
     15 H3          3.3039    2.0130   -0.0199 H         1 <0>         0.1412
     16 H4         -0.9251   -0.5578    0.0083 H         1 <0>         0.1404
     17 H5          0.3275   -2.6977   -0.0162 H         1 <0>         0.1472
     18 H6          2.3954   -3.9096   -0.0437 H         1 <0>         0.1527
@<TRIPOS>BOND
     1    1    6 ar
     2    1    2 ar
     3    1   13 1
     4    2    3 ar
     5    2   14 1
     6    3    4 ar
     7    3   15 1
     8    4   11 1
     9    4    5 ar
    10    5    6 ar
    11    5    7 1
    12    6   16 1
    13    7    8 2
    14    7   17 1
    15    8    9 1
    16    8   18 1
    17    9   10 2
    18    9   11 1
    19   11   12 2
@<TRIPOS>MOLECULE
ZINC00901405
   18    19     0     0     0
SMALL
USER_CHARGES

@<TRIPOS>ATOM
      1 C1         -0.0167    1.3821    0.0096 C.ar      1 <0>        -0.0981
      2 C2          1.1647    2.0985    0.0022 C.ar      1 <0>        -0.0981
      3 C3          2.3850    1.4409   -0.0130 C.ar      1 <0>        -0.0670
      4 C4          2.4201    0.0516   -0.0208 C.ar      1 <0>        -0.1273
      5 C5          1.2176   -0.6776   -0.0132 C.ar      1 <0>        -0.1273
      6 C6          0.0021   -0.0041    0.0020 C.ar      1 <0>        -0.0670
      7 C7          1.2665   -2.1556   -0.0211 C.2       1 <0>         0.4132
      8 O1          0.2365   -2.7998   -0.0152 O.2       1 <0>        -0.4213
      9 C8          2.5707   -2.8448   -0.0368 C.2       1 <0>        -0.1396
     10 C9          3.7162   -2.1502   -0.0436 C.2       1 <0>        -0.1395
     11 C10         3.7080   -0.6750   -0.0365 C.2       1 <0>         0.4132
     12 O2          4.7553   -0.0594   -0.0433 O.2       1 <0>        -0.4213
     13 H1         -0.9612    1.9056    0.0260 H         1 <0>         0.1393
     14 H2          1.1373    3.1781    0.0079 H         1 <0>         0.1393
     15 H3          3.3052    2.0062   -0.0191 H         1 <0>         0.1440
     16 H4         -0.9247   -0.5586    0.0083 H         1 <0>         0.1440
     17 H5          2.6025   -3.9244   -0.0424 H         1 <0>         0.1567
     18 H6          4.6587   -2.6775   -0.0543 H         1 <0>         0.1567
@<TRIPOS>BOND
     1    1    6 ar
     2    1    2 ar
     3    1   13 1
     4    2    3 ar
     5    2   14 1
     6    3    4 ar
     7    3   15 1
     8    4   11 1
     9    4    5 ar
    10    5    6 ar
    11    5    7 1
    12    6   16 1
    13    7    8 2
    14    7    9 1
    15    9   10 2
    16    9   17 1
    17   10   11 1
    18   10   18 1
    19   11   12 2
@<TRIPOS>MOLECULE
ZINC17970415
   28    29     0     0     0
SMALL
USER_CHARGES

@<TRIPOS>ATOM
      1 C1         -1.5034    1.2750    0.0921 C.3       1 <0>        -0.1166
      2 C2         -0.7980   -0.0565    0.1122 C.ar      1 <0>        -0.0559
      3 C3         -0.1732   -0.5246   -1.0295 C.ar      1 <0>        -0.1364
      4 C4          0.4755   -1.7456   -1.0153 C.ar      1 <0>        -0.0785
      5 C5          0.5016   -2.5020    0.1400 C.ar      1 <0>        -0.1380
      6 C6         -0.1248   -2.0350    1.2884 C.ar      1 <0>         0.1626
      7 C7         -0.7712   -0.8052    1.2720 C.ar      1 <0>        -0.1484
      8 N1         -0.1007   -2.7980    2.4590 N.pl3     1 <0>        -0.6741
      9 C8         -0.0351   -4.1802    2.3839 C.2       1 <0>         0.4341
     10 N2          0.5184   -4.8581    3.3457 N.2       1 <0>        -0.3708
     11 O1          0.9399   -4.1981    4.5255 O.3       1 <0>        -0.3888
     12 C9         -0.5953   -4.8853    1.2082 C.2       1 <0>         0.0915
     13 C10        -0.6720   -6.3408    1.0341 C.2       1 <0>         0.3596
     14 N3         -1.2256   -6.5867   -0.1214 N.2       1 <0>        -0.3512
     15 O2         -1.5257   -5.3455   -0.7344 O.3       1 <0>         0.0403
     16 N4         -1.1118   -4.3184    0.1491 N.2       1 <0>        -0.2032
     17 N5         -0.2306   -7.2931    1.9435 N.pl3     1 <0>        -0.8043
     18 H1         -0.8017    2.0622    0.3680 H         1 <0>         0.0728
     19 H2         -1.8891    1.4668   -0.9092 H         1 <0>         0.0699
     20 H3         -2.3296    1.2593    0.8029 H         1 <0>         0.0669
     21 H4         -0.1925    0.0648   -1.9344 H         1 <0>         0.1250
     22 H5          0.9620   -2.1083   -1.9087 H         1 <0>         0.1263
     23 H6          1.0082   -3.4558    0.1504 H         1 <0>         0.1102
     24 H7         -1.2554   -0.4371    2.1645 H         1 <0>         0.1248
     25 H8         -0.1298   -2.3601    3.3240 H         1 <0>         0.4244
     26 H9          1.4066   -4.7696    5.1505 H         1 <0>         0.4123
     27 H10         0.1707   -7.0142    2.7814 H         1 <0>         0.4273
     28 H11        -0.3235   -8.2371    1.7407 H         1 <0>         0.4183
@<TRIPOS>BOND
     1    1    2 1
     2    1   18 1
     3    1   19 1
     4    1   20 1
     5    2    7 ar
     6    2    3 ar
     7    3    4 ar
     8    3   21 1
     9    4    5 ar
    10    4   22 1
    11    5    6 ar
    12    5   23 1
    13    6    7 ar
    14    6    8 1
    15    7   24 1
    16    8    9 1
    17    8   25 1
    18    9   10 2
    19    9   12 1
    20   10   11 1
    21   11   26 1
    22   12   16 2
    23   12   13 1
    24   13   14 2
    25   13   17 1
    26   14   15 1
    27   15   16 1
    28   17   27 1
    29   17   28 1
@<TRIPOS>MOLECULE
ZINC01433264
   17    18     0     0     0
SMALL
USER_CHARGES
2,3-dihydrobenzothiazole-2-thiol
@<TRIPOS>ATOM
      1 C1          0.9713    3.7141    3.9801 C.ar      1 <0>        -0.0747
      2 C2          2.2336    3.9343    3.4605 C.ar      1 <0>        -0.1423
      3 C3          2.5607    3.3789    2.2347 C.ar      1 <0>        -0.0426
      4 C4          1.6331    2.6217    1.5556 C.ar      1 <0>        -0.1323
      5 C5          0.3491    2.3810    2.0543 C.ar      1 <0>         0.1746
      6 C6          0.0452    2.9577    3.3005 C.ar      1 <0>        -0.1519
      7 N1         -0.5159    1.6006    1.2888 N.pl3     1 <0>        -0.7046
      8 C7         -0.0127    1.0858    0.0080 C.3       1 <0>         0.2436
      9 H1          0.0021   -0.0041    0.0020 H         1 <0>         0.1305
     10 S1          1.6926    1.7702   -0.0046 S.3       1 <0>        -0.1232
     11 S2         -0.9844    1.7291   -1.3822 S.3       1 <0>        -0.2329
     12 H2          0.7080    4.1435    4.9354 H         1 <0>         0.1311
     13 H3          2.9534    4.5298    4.0024 H         1 <0>         0.1352
     14 H4          3.5415    3.5399    1.8122 H         1 <0>         0.1316
     15 H5         -0.9329    2.8035    3.7317 H         1 <0>         0.1256
     16 H6         -1.4169    1.4049    1.5904 H         1 <0>         0.4206
     17 H7         -0.3626    1.2376   -2.4688 H         1 <0>         0.1117
@<TRIPOS>BOND
     1    1    6 ar
     2    1    2 ar
     3    1   12 1
     4    2    3 ar
     5    2   13 1
     6    3    4 ar
     7    3   14 1
     8    4   10 1
     9    4    5 ar
    10    5    6 ar
    11    5    7 1
    12    6   15 1
    13    7    8 1
    14    7   16 1
    15    8    9 1
    16    8   10 1
    17    8   11 1
    18   11   17 1
@<TRIPOS>MOLECULE
ZINC01433265
   17    18     0     0     0
SMALL
USER_CHARGES
2,3-dihydrobenzothiazole-2-thiol
@<TRIPOS>ATOM
      1 C1          1.1313    3.1678    0.0083 C.ar      1 <0>        -0.0744
      2 C2          1.1765    1.7859    0.0004 C.ar      1 <0>        -0.1426
      3 C3         -0.0126    1.0758    0.0080 C.ar      1 <0>        -0.0424
      4 C4         -1.2132    1.7492    0.0173 C.ar      1 <0>        -0.1324
      5 C5         -1.2919    3.1452    0.0314 C.ar      1 <0>         0.1754
      6 C6         -0.0688    3.8394    0.0230 C.ar      1 <0>        -0.1522
      7 N1         -2.5570    3.7305    0.0471 N.pl3     1 <0>        -0.7048
      8 C7         -3.7206    2.8334    0.0351 C.3       1 <0>         0.2437
      9 H1         -4.3266    2.9766   -0.8595 H         1 <0>         0.1315
     10 S1         -2.9010    1.1887    0.0222 S.3       1 <0>        -0.1248
     11 S2         -4.7159    3.0548    1.5354 S.3       1 <0>        -0.2334
     12 H2          2.0539    3.7292    0.0025 H         1 <0>         0.1312
     13 H3          2.1243    1.2682   -0.0111 H         1 <0>         0.1352
     14 H4          0.0021   -0.0041    0.0020 H         1 <0>         0.1316
     15 H5         -0.0720    4.9194    0.0285 H         1 <0>         0.1257
     16 H6         -2.6652    4.6944    0.0534 H         1 <0>         0.4207
     17 H7         -5.6368    2.0772    1.4622 H         1 <0>         0.1119
@<TRIPOS>BOND
     1    1    6 ar
     2    1    2 ar
     3    1   12 1
     4    2    3 ar
     5    2   13 1
     6    3    4 ar
     7    3   14 1
     8    4   10 1
     9    4    5 ar
    10    5    6 ar
    11    5    7 1
    12    6   15 1
    13    7    8 1
    14    7   16 1
    15    8    9 1
    16    8   10 1
    17    8   11 1
    18   11   17 1
@<TRIPOS>MOLECULE
ZINC01596410
   18    19     0     0     0
SMALL
USER_CHARGES

@<TRIPOS>ATOM
      1 C1         -0.0167    1.3791    0.0096 C.ar      1 <0>        -0.1297
      2 C2          1.1686    2.0923    0.0021 C.ar      1 <0>        -0.1258
      3 C3          2.3774    1.4266   -0.0134 C.ar      1 <0>        -0.0889
      4 C4          2.4025    0.0330   -0.0211 C.ar      1 <0>        -0.0061
      5 C5          1.2049   -0.6804   -0.0130 C.ar      1 <0>        -0.1116
      6 C6          0.0021   -0.0041    0.0020 C.ar      1 <0>        -0.1259
      7 C7          3.6983   -0.6881   -0.0382 C.2       1 <0>         0.1147
      8 C8          3.7280   -2.0537   -0.0510 C.2       1 <0>        -0.2527
      9 S1          5.4912   -2.3493   -0.0680 S.3       1 <0>        -0.1278
     10 C9          6.0071   -0.6383   -0.0566 C.2       1 <0>         0.3437
     11 S2          7.6356    0.0345   -0.0645 S.3       1 <0>        -0.7171
     12 N1          4.8444   -0.0114   -0.0469 N.2       1 <0>        -0.5586
     13 H1         -0.9603    1.9042    0.0260 H         1 <0>         0.1162
     14 H2          1.1480    3.1721    0.0081 H         1 <0>         0.1194
     15 H3          3.3022    1.9844   -0.0199 H         1 <0>         0.1338
     16 H4          1.2184   -1.7603   -0.0192 H         1 <0>         0.1220
     17 H5         -0.9264   -0.5557    0.0079 H         1 <0>         0.1189
     18 H6          2.9113   -2.7603   -0.0505 H         1 <0>         0.1756
@<TRIPOS>BOND
     1    1    6 ar
     2    1    2 ar
     3    1   13 1
     4    2    3 ar
     5    2   14 1
     6    3    4 ar
     7    3   15 1
     8    4    5 ar
     9    4    7 1
    10    5    6 ar
    11    5   16 1
    12    6   17 1
    13    7   12 1
    14    7    8 2
    15    8    9 1
    16    8   18 1
    17    9   10 1
    18   10   11 1
    19   10   12 2
@<TRIPOS>MOLECULE
ZINC11919966
   24    25     0     0     0
SMALL
USER_CHARGES
4-methoxynaphthalen-1-amine
@<TRIPOS>ATOM
      1 C1          1.2479    2.0213    0.0010 C.3       1 <0>         0.0286
      2 O1         -0.0164    1.3553    0.0095 O.3       1 <0>        -0.3170
      3 C2          0.0021   -0.0041    0.0020 C.ar      1 <0>         0.0819
      4 C3          1.1931   -0.6723   -0.0186 C.ar      1 <0>        -0.1629
      5 C4          1.2348   -2.0636   -0.0198 C.ar      1 <0>        -0.1802
      6 C5          0.0731   -2.8045   -0.0131 C.ar      1 <0>         0.1963
      7 C6         -1.1729   -2.1430    0.0019 C.ar      1 <0>        -0.0680
      8 C7         -1.2074   -0.7266    0.0097 C.ar      1 <0>        -0.0296
      9 C8         -2.4484   -0.0684    0.0245 C.ar      1 <0>        -0.0926
     10 C9         -3.5978   -0.7976    0.0312 C.ar      1 <0>        -0.1184
     11 C10        -3.5633   -2.1908    0.0236 C.ar      1 <0>        -0.1163
     12 C11        -2.3789   -2.8619    0.0092 C.ar      1 <0>        -0.1060
     13 N1          0.1286   -4.2003   -0.0215 N.pl3     1 <0>        -0.8736
     14 H1          1.8173    1.7313    0.8840 H         1 <0>         0.0541
     15 H2          1.8003    1.7409   -0.8958 H         1 <0>         0.0541
     16 H3          1.0905    3.0999    0.0083 H         1 <0>         0.0993
     17 H4          2.1167   -0.1126   -0.0289 H         1 <0>         0.1270
     18 H5          2.1894   -2.5685   -0.0317 H         1 <0>         0.1224
     19 H6         -2.4903    1.0108    0.0301 H         1 <0>         0.1327
     20 H7         -4.5505   -0.2890    0.0422 H         1 <0>         0.1245
     21 H8         -4.4896   -2.7461    0.0288 H         1 <0>         0.1237
     22 H9         -2.3670   -3.9418    0.0031 H         1 <0>         0.1225
     23 H10        -0.6914   -4.7183   -0.0171 H         1 <0>         0.3970
     24 H11         0.9873   -4.6514   -0.0318 H         1 <0>         0.4005
@<TRIPOS>BOND
     1    1    2 1
     2    1   14 1
     3    1   15 1
     4    1   16 1
     5    2    3 1
     6    3    8 ar
     7    3    4 ar
     8    4    5 ar
     9    4   17 1
    10    5    6 ar
    11    5   18 1
    12    6    7 ar
    13    6   13 1
    14    7   12 ar
    15    7    8 ar
    16    8    9 ar
    17    9   10 ar
    18    9   19 1
    19   10   11 ar
    20   10   20 1
    21   11   12 ar
    22   11   21 1
    23   12   22 1
    24   13   23 1
    25   13   24 1
@<TRIPOS>MOLECULE
ZINC04812114
   25    26     0     0     0
SMALL
USER_CHARGES

@<TRIPOS>ATOM
      1 C1         -0.0962    1.2919   -0.7856 C.ar      1 <0>        -0.1347
      2 C2          1.0564    2.0524   -0.7991 C.ar      1 <0>        -0.0790
      3 C3          2.2052    1.5810   -0.1883 C.ar      1 <0>        -0.0519
      4 C4          2.2027    0.3466    0.4372 C.ar      1 <0>        -0.0720
      5 C5          1.0530   -0.4182    0.4538 C.ar      1 <0>        -0.1210
      6 C6         -0.1017    0.0527   -0.1581 C.ar      1 <0>         0.1654
      7 N1         -1.2672   -0.7195   -0.1428 N.pl3     1 <0>        -0.6734
      8 C7         -1.1819   -2.1020   -0.1038 C.2       1 <0>         0.4320
      9 N2         -2.1362   -2.7971    0.4413 N.2       1 <0>        -0.3658
     10 O1         -3.3185   -2.1538    0.8811 O.3       1 <0>        -0.3871
     11 C8         -0.0041   -2.7878   -0.6830 C.2       1 <0>         0.0919
     12 C9          0.1800   -4.2403   -0.7883 C.2       1 <0>         0.3596
     13 N3          1.3346   -4.4674   -1.3517 N.2       1 <0>        -0.3491
     14 O2          1.9374   -3.2163   -1.6309 O.3       1 <0>         0.0433
     15 N4          1.0484   -2.2036   -1.1938 N.2       1 <0>        -0.2083
     16 N5         -0.7205   -5.2073   -0.3609 N.pl3     1 <0>        -0.8041
     17 Cl1         3.6524    2.5397   -0.2073 Cl        1 <0>        -0.0664
     18 H1         -0.9937    1.6622   -1.2586 H         1 <0>         0.1361
     19 H2          1.0614    3.0159   -1.2872 H         1 <0>         0.1396
     20 H3          3.1009   -0.0192    0.9125 H         1 <0>         0.1377
     21 H4          1.0517   -1.3817    0.9418 H         1 <0>         0.1208
     22 H5         -2.1355   -0.2874   -0.1595 H         1 <0>         0.4266
     23 H6         -3.9371   -2.7386    1.3398 H         1 <0>         0.4136
     24 H7         -1.5585   -4.9421    0.0495 H         1 <0>         0.4273
     25 H8         -0.5115   -6.1479   -0.4727 H         1 <0>         0.4188
@<TRIPOS>BOND
     1    1    6 ar
     2    1    2 ar
     3    1   18 1
     4    2    3 ar
     5    2   19 1
     6    3    4 ar
     7    3   17 1
     8    4    5 ar
     9    4   20 1
    10    5    6 ar
    11    5   21 1
    12    6    7 1
    13    7    8 1
    14    7   22 1
    15    8    9 2
    16    8   11 1
    17    9   10 1
    18   10   23 1
    19   11   15 2
    20   11   12 1
    21   12   13 2
    22   12   16 1
    23   13   14 1
    24   14   15 1
    25   16   24 1
    26   16   25 1
@<TRIPOS>MOLECULE
ZINC00119431
   21    22     0     0     0
SMALL
USER_CHARGES
4-aminonaphthalen-1-ol
@<TRIPOS>ATOM
      1 C1          3.6212   -0.7132   -0.0359 C.ar      1 <0>        -0.1250
      2 C2          3.6190   -2.1068   -0.0425 C.ar      1 <0>        -0.1078
      3 C3          2.4508   -2.8055   -0.0346 C.ar      1 <0>        -0.1072
      4 C4          1.2276   -2.1148   -0.0206 C.ar      1 <0>        -0.0327
      5 C5          1.2303   -0.6980   -0.0134 C.ar      1 <0>        -0.0888
      6 C6          2.4548   -0.0111   -0.0214 C.ar      1 <0>        -0.0988
      7 C7          0.0021   -0.0041    0.0020 C.ar      1 <0>         0.2257
      8 C8         -1.1786   -0.7143    0.0152 C.ar      1 <0>        -0.2067
      9 C9         -1.1735   -2.1061    0.0038 C.ar      1 <0>        -0.0844
     10 C10        -0.0004   -2.8054   -0.0116 C.ar      1 <0>         0.0489
     11 O1         -0.0176   -4.1648   -0.0178 O.3       1 <0>        -0.4923
     12 N1         -0.0169    1.3927    0.0097 N.pl3     1 <0>        -0.8696
     13 H1          4.5617   -0.1825   -0.0420 H         1 <0>         0.1238
     14 H2          4.5580   -2.6403   -0.0537 H         1 <0>         0.1245
     15 H3          2.4643   -3.8854   -0.0392 H         1 <0>         0.1316
     16 H4          2.4714    1.0687   -0.0157 H         1 <0>         0.1217
     17 H5         -2.1196   -0.1845    0.0316 H         1 <0>         0.1251
     18 H6         -2.1115   -2.6413    0.0106 H         1 <0>         0.1284
     19 H7         -0.0138   -4.5622    0.8637 H         1 <0>         0.3822
     20 H8          0.8165    1.8891    0.0044 H         1 <0>         0.3986
     21 H9         -0.8634    1.8662    0.0163 H         1 <0>         0.4027
@<TRIPOS>BOND
     1    1    6 ar
     2    1    2 ar
     3    1   13 1
     4    2    3 ar
     5    2   14 1
     6    3    4 ar
     7    3   15 1
     8    4   10 ar
     9    4    5 ar
    10    5    6 ar
    11    5    7 ar
    12    6   16 1
    13    7    8 ar
    14    7   12 1
    15    8    9 ar
    16    8   17 1
    17    9   10 ar
    18    9   18 1
    19   10   11 1
    20   11   19 1
    21   12   20 1
    22   12   21 1
@<TRIPOS>MOLECULE
ZINC18125824
   25    26     0     0     0
SMALL
USER_CHARGES

@<TRIPOS>ATOM
      1 C1          0.1513    1.5482    0.1865 C.ar      1 <0>        -0.1355
      2 C2          1.2852    2.0468    0.8016 C.ar      1 <0>        -0.0900
      3 C3          2.4600    1.3211    0.7801 C.ar      1 <0>        -0.1471
      4 C4          2.5018    0.0890    0.1398 C.ar      1 <0>         0.1577
      5 C5          1.3610   -0.4088   -0.4770 C.ar      1 <0>        -0.1322
      6 C6          0.1895    0.3221   -0.4518 C.ar      1 <0>        -0.0831
      7 N1          3.6891   -0.6478    0.1158 N.pl3     1 <0>        -0.6744
      8 C7          3.6448   -2.0318    0.0617 C.2       1 <0>         0.4335
      9 N2          4.6188   -2.6924   -0.4912 N.2       1 <0>        -0.3706
     10 O1          5.7814   -2.0096   -0.9241 O.3       1 <0>        -0.3886
     11 C8          2.4880   -2.7584    0.6336 C.2       1 <0>         0.0920
     12 C9          2.3470   -4.2168    0.7229 C.2       1 <0>         0.3595
     13 N3          1.2000   -4.4841    1.2844 N.2       1 <0>        -0.3509
     14 O2          0.5609   -3.2545    1.5777 O.3       1 <0>         0.0405
     15 N4          1.4191   -2.2113    1.1511 N.2       1 <0>        -0.2043
     16 N5          3.2752   -5.1521    0.2841 N.pl3     1 <0>        -0.8042
     17 H1         -0.7673    2.1157    0.2086 H         1 <0>         0.1254
     18 H2          1.2520    3.0049    1.2989 H         1 <0>         0.1278
     19 H3          3.3452    1.7112    1.2603 H         1 <0>         0.1252
     20 H4          1.3903   -1.3662   -0.9761 H         1 <0>         0.1106
     21 H5         -0.6978   -0.0645   -0.9308 H         1 <0>         0.1260
     22 H6          4.5443   -0.1904    0.1369 H         1 <0>         0.4246
     23 H7          6.4168   -2.5708   -1.3893 H         1 <0>         0.4124
     24 H8          4.1045   -4.8577   -0.1239 H         1 <0>         0.4273
     25 H9          3.0941   -6.0996    0.3857 H         1 <0>         0.4184
@<TRIPOS>BOND
     1    1    6 ar
     2    1    2 ar
     3    1   17 1
     4    2    3 ar
     5    2   18 1
     6    3    4 ar
     7    3   19 1
     8    4    5 ar
     9    4    7 1
    10    5    6 ar
    11    5   20 1
    12    6   21 1
    13    7    8 1
    14    7   22 1
    15    8    9 2
    16    8   11 1
    17    9   10 1
    18   10   23 1
    19   11   15 2
    20   11   12 1
    21   12   13 2
    22   12   16 1
    23   13   14 1
    24   14   15 1
    25   16   24 1
    26   16   25 1
@<TRIPOS>MOLECULE
ZINC45319649
   25    26     0     0     0
SMALL
USER_CHARGES

@<TRIPOS>ATOM
      1 C1         -0.0966    1.2918   -0.7847 C.ar      1 <0>        -0.1135
      2 C2          1.0560    2.0534   -0.7989 C.ar      1 <0>        -0.1094
      3 C3          2.2059    1.5822   -0.1893 C.ar      1 <0>         0.0929
      4 C4          2.2037    0.3457    0.4371 C.ar      1 <0>        -0.0379
      5 C5          1.0527   -0.4189    0.4539 C.ar      1 <0>        -0.0999
      6 C6         -0.1017    0.0527   -0.1579 C.ar      1 <0>         0.1643
      7 N1         -1.2680   -0.7194   -0.1422 N.pl3     1 <0>        -0.6710
      8 C7         -1.1832   -2.1018   -0.1034 C.2       1 <0>         0.4304
      9 N2         -2.1374   -2.7967    0.4421 N.2       1 <0>        -0.3616
     10 O1         -3.3194   -2.1530    0.8823 O.3       1 <0>        -0.3858
     11 C8         -0.0058   -2.7880   -0.6830 C.2       1 <0>         0.0911
     12 C9          0.1778   -4.2406   -0.7884 C.2       1 <0>         0.3596
     13 N3          1.3320   -4.4680   -1.3526 N.2       1 <0>        -0.3472
     14 O2          1.9349   -3.2172   -1.6322 O.3       1 <0>         0.0474
     15 N4          1.0467   -2.2042   -1.1943 N.2       1 <0>        -0.2130
     16 N5         -0.7227   -5.2074   -0.3603 N.pl3     1 <0>        -0.8039
     17 Cl1         3.6476   -0.2429    1.2003 Cl        1 <0>        -0.0383
     18 F1          3.3321    2.3283   -0.2052 F         1 <0>        -0.1240
     19 H1         -0.9945    1.6620   -1.2570 H         1 <0>         0.1446
     20 H2          1.0599    3.0171   -1.2864 H         1 <0>         0.1527
     21 H3          1.0510   -1.3825    0.9416 H         1 <0>         0.1326
     22 H4         -2.1361   -0.2870   -0.1585 H         1 <0>         0.4291
     23 H5         -3.9380   -2.7376    1.3412 H         1 <0>         0.4146
     24 H6         -1.5603   -4.9419    0.0506 H         1 <0>         0.4272
     25 H7         -0.5141   -6.1480   -0.4723 H         1 <0>         0.4191
@<TRIPOS>BOND
     1    1    6 ar
     2    1    2 ar
     3    1   19 1
     4    2    3 ar
     5    2   20 1
     6    3    4 ar
     7    3   18 1
     8    4    5 ar
     9    4   17 1
    10    5    6 ar
    11    5   21 1
    12    6    7 1
    13    7    8 1
    14    7   22 1
    15    8    9 2
    16    8   11 1
    17    9   10 1
    18   10   23 1
    19   11   15 2
    20   11   12 1
    21   12   13 2
    22   12   16 1
    23   13   14 1
    24   14   15 1
    25   16   24 1
    26   16   25 1
@<TRIPOS>MOLECULE
ZINC12376387
   28    29     0     0     0
SMALL
USER_CHARGES

@<TRIPOS>ATOM
      1 C1          1.5656    4.0634    1.1041 C.ar      1 <0>        -0.1076
      2 C2          2.8532    4.4169    1.4622 C.ar      1 <0>        -0.1213
      3 C3          3.8900    3.5193    1.2884 C.ar      1 <0>        -0.0974
      4 C4          3.6392    2.2681    0.7570 C.ar      1 <0>        -0.1175
      5 C5          2.3515    1.9143    0.3998 C.ar      1 <0>        -0.1003
      6 C6          1.3149    2.8124    0.5722 C.ar      1 <0>        -0.1217
      7 C7          4.7697    1.2899    0.5667 C.3       1 <0>         0.1734
      8 N1          4.9204    0.4764    1.7757 N.pl3     1 <0>        -0.6998
      9 C8          5.9023   -0.4984    1.8366 C.2       1 <0>         0.4284
     10 N2          6.7644   -0.6139    0.8703 N.2       1 <0>        -0.3738
     11 O1          7.8233   -1.5482    0.9741 O.3       1 <0>        -0.3786
     12 C9          5.9702   -1.4093    3.0024 C.2       1 <0>         0.0549
     13 C10         4.9729   -1.5098    4.0748 C.2       1 <0>         0.3375
     14 N3          5.3732   -2.4167    4.9231 N.2       1 <0>        -0.3263
     15 O2          6.6083   -2.9326    4.4597 O.3       1 <0>         0.0345
     16 N4          6.9261   -2.2662    3.2506 N.2       1 <0>        -0.1950
     17 N5          3.8038   -0.7664    4.1704 N.pl3     1 <0>        -0.8297
     18 H1          0.7549    4.7631    1.2440 H         1 <0>         0.1248
     19 H2          3.0491    5.3945    1.8774 H         1 <0>         0.1258
     20 H3          4.8960    3.7957    1.5675 H         1 <0>         0.1256
     21 H4          2.1557    0.9368   -0.0157 H         1 <0>         0.1259
     22 H5          0.3090    2.5361    0.2927 H         1 <0>         0.1259
     23 H6          4.5506    0.6421   -0.2821 H         1 <0>         0.0799
     24 H7          5.6943    1.8354    0.3782 H         1 <0>         0.0810
     25 H8          4.3324    0.6205    2.5337 H         1 <0>         0.4103
     26 H9          8.3674   -1.6162    0.1775 H         1 <0>         0.4045
     27 H10         3.3275   -0.5060    3.3666 H         1 <0>         0.4155
     28 H11         3.4635   -0.5076    5.0411 H         1 <0>         0.4212
@<TRIPOS>BOND
     1    1    6 ar
     2    1    2 ar
     3    1   18 1
     4    2    3 ar
     5    2   19 1
     6    3    4 ar
     7    3   20 1
     8    4    5 ar
     9    4    7 1
    10    5    6 ar
    11    5   21 1
    12    6   22 1
    13    7    8 1
    14    7   23 1
    15    7   24 1
    16    8    9 1
    17    8   25 1
    18    9   10 2
    19    9   12 1
    20   10   11 1
    21   11   26 1
    22   12   16 2
    23   12   13 1
    24   13   14 2
    25   13   17 1
    26   14   15 1
    27   15   16 1
    28   17   27 1
    29   17   28 1
@<TRIPOS>MOLECULE
ZINC00001677
   21    22     0     0     0
SMALL
USER_CHARGES

@<TRIPOS>ATOM
      1 C1         -0.0184    1.5028    0.0103 C.3       1 <0>        -0.1222
      2 C2          0.0021   -0.0041    0.0020 C.2       1 <0>        -0.1070
      3 C3          0.0054   -0.6583   -1.1671 C.2       1 <0>        -0.1536
      4 C4          0.0253   -2.1327   -1.2104 C.2       1 <0>         0.4162
      5 O1          0.0284   -2.7113   -2.2787 O.2       1 <0>        -0.4241
      6 C5          0.0418   -2.9039    0.0513 C.ar      1 <0>        -0.1258
      7 C6          0.0612   -4.2934    0.0381 C.ar      1 <0>        -0.0675
      8 C7          0.0768   -4.9930    1.2348 C.ar      1 <0>        -0.0974
      9 C8          0.0733   -4.3183    2.4405 C.ar      1 <0>        -0.0988
     10 C9          0.0541   -2.9325    2.4700 C.ar      1 <0>        -0.0664
     11 C10         0.0382   -2.2171    1.2786 C.ar      1 <0>        -0.1268
     12 C11         0.0242   -0.7383    1.2813 C.2       1 <0>         0.4201
     13 O2          0.0258   -0.1305    2.3332 O.2       1 <0>        -0.4186
     14 H1          1.0042    1.8801    0.0026 H         1 <0>         0.0864
     15 H2         -0.5455    1.8639   -0.8728 H         1 <0>         0.0809
     16 H3         -0.5286    1.8543    0.9071 H         1 <0>         0.0826
     17 H4         -0.0070   -0.0985   -2.0906 H         1 <0>         0.1551
     18 H5          0.0637   -4.8263   -0.9013 H         1 <0>         0.1442
     19 H6          0.0915   -6.0729    1.2246 H         1 <0>         0.1394
     20 H7          0.0852   -4.8744    3.3663 H         1 <0>         0.1395
     21 H8          0.0510   -2.4106    3.4155 H         1 <0>         0.1439
@<TRIPOS>BOND
     1    1    2 1
     2    1   14 1
     3    1   15 1
     4    1   16 1
     5    2   12 1
     6    2    3 2
     7    3    4 1
     8    3   17 1
     9    4    5 2
    10    4    6 1
    11    6   11 ar
    12    6    7 ar
    13    7    8 ar
    14    7   18 1
    15    8    9 ar
    16    8   19 1
    17    9   10 ar
    18    9   20 1
    19   10   11 ar
    20   10   21 1
    21   11   12 1
    22   12   13 2
