@<TRIPOS>MOLECULE
ZINC00009064
   35    37     0     0     0
SMALL
USER_CHARGES
1-(3,4-dihydroxybenzoyl)-6,7-dihydroxy-isoquinoline-3-carboxylic acid
@<TRIPOS>ATOM
      1 C1         -2.5663   -0.0954   -0.1037 C.ar      1 <0>        -0.0517
      2 C2         -3.7537   -0.7872   -0.2000 C.ar      1 <0>        -0.1444
      3 C3         -4.9562   -0.0992   -0.2952 C.ar      1 <0>         0.1143
      4 C4         -4.9682    1.2959   -0.2879 C.ar      1 <0>         0.0454
      5 C5         -3.7829    1.9959   -0.1859 C.ar      1 <0>        -0.0713
      6 C6         -2.5711    1.3029   -0.0899 C.ar      1 <0>        -0.1687
      7 C7         -1.3020    2.0452    0.0194 C.2       1 <0>         0.4699
      8 O1         -1.3139    3.2546    0.1448 O.2       1 <0>        -0.4489
      9 C8         -0.0148    1.3191   -0.0236 C.ar      1 <0>         0.0699
     10 C9          1.2466    2.0552   -0.0557 C.ar      1 <0>        -0.0636
     11 C10         1.2881    3.4516   -0.0411 C.ar      1 <0>        -0.1099
     12 C11         2.5070    4.0940   -0.0719 C.ar      1 <0>         0.0813
     13 C12         3.7035    3.3606   -0.1176 C.ar      1 <0>         0.0940
     14 C13         3.6872    1.9956   -0.1327 C.ar      1 <0>        -0.1148
     15 C14         2.4597    1.3160   -0.1021 C.ar      1 <0>        -0.0351
     16 C15         2.3835   -0.0849   -0.1152 C.ar      1 <0>        -0.0800
     17 C16         1.1377   -0.6967   -0.0828 C.ar      1 <0>         0.0686
     18 N1          0.0058   -0.0009   -0.0390 N.ar      1 <0>        -0.3784
     19 C17         1.0673   -2.1733   -0.0970 C.2       1 <0>         0.5019
     20 O2          2.0886   -2.8296   -0.1369 O.co2     1 <0>        -0.6194
     21 O3          4.8925    4.0178   -0.1478 O.3       1 <0>        -0.4878
     22 O4          2.5514    5.4512   -0.0583 O.3       1 <0>        -0.4847
     23 O5         -6.1478    1.9662   -0.3809 O.3       1 <0>        -0.4862
     24 O6         -6.1230   -0.7859   -0.3961 O.3       1 <0>        -0.4892
     25 H1         -1.6321   -0.6329   -0.0342 H         1 <0>         0.2099
     26 H2         -3.7490   -1.8671   -0.2060 H         1 <0>         0.1438
     27 H3         -3.7908    3.0758   -0.1805 H         1 <0>         0.1397
     28 H4          0.3724    4.0231   -0.0055 H         1 <0>         0.1724
     29 H5          4.6138    1.4418   -0.1683 H         1 <0>         0.1454
     30 H6          3.2837   -0.6805   -0.1506 H         1 <0>         0.1553
     31 H7          5.2087    4.2181   -1.0394 H         1 <0>         0.3872
     32 H8          2.5364    5.8540   -0.9372 H         1 <0>         0.3858
     33 H9         -6.4164    2.1656   -1.2882 H         1 <0>         0.3810
     34 H10        -6.3880   -0.9796   -1.3057 H         1 <0>         0.3885
     35 O7         -0.1294   -2.7910   -0.0657 O.co2     1 <0>        -0.7205
@<TRIPOS>BOND
     1    1    6 ar
     2    1    2 ar
     3    1   25 1
     4    2    3 ar
     5    2   26 1
     6    3    4 ar
     7    3   24 1
     8    4    5 ar
     9    4   23 1
    10    5    6 ar
    11    5   27 1
    12    6    7 1
    13    7    8 2
    14    7    9 1
    15    9   18 ar
    16    9   10 ar
    17   10   15 ar
    18   10   11 ar
    19   11   12 ar
    20   11   28 1
    21   12   13 ar
    22   12   22 1
    23   13   14 ar
    24   13   21 1
    25   14   15 ar
    26   14   29 1
    27   15   16 ar
    28   16   17 ar
    29   16   30 1
    30   17   18 ar
    31   17   19 1
    32   19   20 2
    33   19   35 1
    34   21   31 1
    35   22   32 1
    36   23   33 1
    37   24   34 1
