@<TRIPOS>MOLECULE
ZINC01650377
   54    54     0     0     0
SMALL
USER_CHARGES

@<TRIPOS>ATOM
      1 C1          0.1022    1.2012   -0.1046 C.3       1 <0>        -0.1193
      2 C2          0.4461   -0.2646   -0.0413 C.2       1 <0>        -0.1354
      3 C3          0.7092   -0.8264    1.1125 C.2       1 <0>        -0.1668
      4 C4          0.5545   -0.0378    2.3873 C.3       1 <0>        -0.0891
      5 C5         -0.3666   -0.7944    3.3465 C.3       1 <0>        -0.0740
      6 C6         -0.5214   -0.0057    4.6213 C.2       1 <0>        -0.1333
      7 C7         -1.5429    0.8002    4.7730 C.2       1 <0>        -0.1560
      8 C8         -1.7488    1.5175    6.0823 C.3       1 <0>        -0.0906
      9 C9         -1.8716    3.0209    5.8264 C.3       1 <0>        -0.0727
     10 C10        -2.0776    3.7382    7.1357 C.2       1 <0>        -0.1280
     11 C11        -1.0519    4.2473    7.7720 C.2       1 <0>        -0.1227
     12 C12        -1.2384    4.8526    9.1395 C.3       1 <0>        -0.1626
     13 S1         -0.8891    6.6311    9.0662 S.3       1 <0>         0.0277
     14 C13        -1.1478    7.1848   10.7188 C.ar      1 <0>        -0.0710
     15 C14        -1.5275    6.2832   11.7073 C.ar      1 <0>        -0.1554
     16 C15        -1.7292    6.7192   12.9995 C.ar      1 <0>        -0.1086
     17 C16        -1.5559    8.0563   13.3260 C.ar      1 <0>        -0.1510
     18 C17        -1.1800    8.9653   12.3633 C.ar      1 <0>        -0.0670
     19 C18        -0.9660    8.5398   11.0473 C.ar      1 <0>        -0.1262
     20 C19        -0.5590    9.5035   10.0149 C.2       1 <0>         0.5162
     21 O1         -0.4020   10.6818   10.3056 O.co2     1 <0>        -0.6828
     22 O2         -0.3771    9.1276    8.8647 O.co2     1 <0>        -0.6495
     23 C20        -3.4634    3.8697    7.7129 C.3       1 <0>        -0.1191
     24 C21         0.4990   -0.1442    5.7216 C.3       1 <0>        -0.1213
     25 C22         0.4874   -1.0842   -1.3053 C.3       1 <0>        -0.1171
     26 H1          0.8932    1.7809    0.3712 H         1 <0>         0.0662
     27 H2          0.0041    1.5068   -1.1463 H         1 <0>         0.0588
     28 H3         -0.8396    1.3762    0.4156 H         1 <0>         0.0670
     29 H4          1.0370   -1.8548    1.1502 H         1 <0>         0.1064
     30 H5          1.5312    0.0969    2.8520 H         1 <0>         0.0696
     31 H6          0.1221    0.9369    2.1614 H         1 <0>         0.0725
     32 H7         -1.3434   -0.9291    2.8818 H         1 <0>         0.0657
     33 H8          0.0658   -1.7691    3.5725 H         1 <0>         0.0667
     34 H9         -2.2374    0.9507    3.9598 H         1 <0>         0.1065
     35 H10        -2.6606    1.1539    6.5562 H         1 <0>         0.0697
     36 H11        -0.8986    1.3287    6.7377 H         1 <0>         0.0745
     37 H12        -0.9598    3.3845    5.3525 H         1 <0>         0.0677
     38 H13        -2.7219    3.2097    5.1710 H         1 <0>         0.0670
     39 H14        -0.0727    4.2332    7.3167 H         1 <0>         0.1134
     40 H15        -2.2659    4.6974    9.4685 H         1 <0>         0.0815
     41 H16        -0.5557    4.3770    9.8435 H         1 <0>         0.0798
     42 H17        -1.6648    5.2403   11.4623 H         1 <0>         0.1140
     43 H18        -2.0247    6.0148   13.7631 H         1 <0>         0.1135
     44 H19        -1.7171    8.3860   14.3418 H         1 <0>         0.1150
     45 H20        -1.0467   10.0048   12.6239 H         1 <0>         0.1294
     46 H21        -3.6363    3.0668    8.4295 H         1 <0>         0.0610
     47 H22        -3.5577    4.8321    8.2159 H         1 <0>         0.0702
     48 H23        -4.1987    3.8054    6.9108 H         1 <0>         0.0596
     49 H24         1.2404    0.6498    5.6317 H         1 <0>         0.0671
     50 H25         0.0025   -0.0699    6.6891 H         1 <0>         0.0683
     51 H26         0.9923   -1.1128    5.6398 H         1 <0>         0.0574
     52 H27         1.4926   -1.0533   -1.7257 H         1 <0>         0.0642
     53 H28         0.2202   -2.1162   -1.0780 H         1 <0>         0.0605
     54 H29        -0.2207   -0.6759   -2.0263 H         1 <0>         0.0624
@<TRIPOS>BOND
     1    1    2 1
     2    1   26 1
     3    1   27 1
     4    1   28 1
     5    2    3 2
     6    2   25 1
     7    3    4 1
     8    3   29 1
     9    4    5 1
    10    4   30 1
    11    4   31 1
    12    5    6 1
    13    5   32 1
    14    5   33 1
    15    6    7 2
    16    6   24 1
    17    7    8 1
    18    7   34 1
    19    8    9 1
    20    8   35 1
    21    8   36 1
    22    9   10 1
    23    9   37 1
    24    9   38 1
    25   10   11 2
    26   10   23 1
    27   11   12 1
    28   11   39 1
    29   12   13 1
    30   12   40 1
    31   12   41 1
    32   13   14 1
    33   14   19 ar
    34   14   15 ar
    35   15   16 ar
    36   15   42 1
    37   16   17 ar
    38   16   43 1
    39   17   18 ar
    40   17   44 1
    41   18   19 ar
    42   18   45 1
    43   19   20 1
    44   20   21 2
    45   20   22 1
    46   23   46 1
    47   23   47 1
    48   23   48 1
    49   24   49 1
    50   24   50 1
    51   24   51 1
    52   25   52 1
    53   25   53 1
    54   25   54 1
