@<TRIPOS>MOLECULE
ZINC49034948
   63    68     0     0     0
SMALL
USER_CHARGES

@<TRIPOS>ATOM
      1 C1          0.0549    1.4627   -0.1006 C.ar      1 <0>        -0.1051
      2 C2          1.2468    2.1627   -0.0812 C.ar      1 <0>        -0.1211
      3 C3          2.4491    1.4805   -0.0830 C.ar      1 <0>        -0.0944
      4 C4          2.4595    0.0983   -0.1039 C.ar      1 <0>        -0.1042
      5 C5          1.2676   -0.6017   -0.1225 C.ar      1 <0>        -0.0957
      6 C6          0.0653    0.0806   -0.1220 C.ar      1 <0>        -0.1225
      7 C7          3.7702   -0.6454   -0.1070 C.3       1 <0>         0.1035
      8 O1          4.1760   -0.9009    1.2392 O.3       1 <0>        -0.3050
      9 C8          5.3469   -1.5686    1.4145 C.ar      1 <0>         0.1388
     10 C9          6.0908   -1.9635    0.3112 C.ar      1 <0>        -0.2033
     11 C10         7.2792   -2.6416    0.4856 C.ar      1 <0>        -0.0653
     12 C11         7.7331   -2.9299    1.7719 C.ar      1 <0>        -0.0621
     13 C12         6.9837   -2.5314    2.8779 C.ar      1 <0>        -0.0836
     14 C13         5.7988   -1.8491    2.6966 C.ar      1 <0>        -0.1433
     15 C14         9.0100   -3.6591    1.9631 C.2       1 <0>        -0.0696
     16 C15         9.3854   -4.8104    1.3538 C.2       1 <0>         0.0277
     17 N1         10.6317   -5.1748    1.7873 N.pl3     1 <0>        -0.4446
     18 C16        11.1028   -4.2654    2.6952 C.ar      1 <0>         0.3563
     19 C17        10.1186   -3.2727    2.8450 C.ar      1 <0>        -0.2604
     20 C18        10.3619   -2.2100    3.7250 C.ar      1 <0>         0.4978
     21 N2         11.5195   -2.1848    4.3802 N.ar      1 <0>        -0.5973
     22 C19        12.4192   -3.1361    4.2080 C.ar      1 <0>         0.3729
     23 N3         12.2288   -4.1561    3.3993 N.ar      1 <0>        -0.5750
     24 N4          9.4220   -1.2114    3.9078 N.pl3     1 <0>        -0.8273
     25 C20        11.3570   -6.3677    1.3434 C.3       1 <0>         0.1205
     26 C21        11.0439   -6.7753   -0.1060 C.3       1 <0>        -0.1289
     27 C22         9.8933   -7.6217    0.4638 C.3       1 <0>        -0.1526
     28 C23        10.6951   -7.6871    1.7744 C.3       1 <0>        -0.1522
     29 C24         9.7318   -8.9787   -0.2242 C.3       1 <0>         0.0039
     30 N5          8.5413   -9.6574    0.3049 N.4       1 <0>        -0.4127
     31 C25         7.2972   -9.2925   -0.3981 C.3       1 <0>        -0.0025
     32 C26         6.8568  -10.7569   -0.2625 C.3       1 <0>        -0.1612
     33 C27         8.3673  -11.0266   -0.2147 C.3       1 <0>        -0.0001
     34 H1         -0.8844    1.9956   -0.0947 H         1 <0>         0.1271
     35 H2          1.2387    3.2425   -0.0648 H         1 <0>         0.1279
     36 H3          3.3803    2.0273   -0.0685 H         1 <0>         0.1245
     37 H4          1.2757   -1.6815   -0.1392 H         1 <0>         0.1227
     38 H5         -0.8659   -0.4663   -0.1369 H         1 <0>         0.1269
     39 H6          3.6503   -1.5909   -0.6360 H         1 <0>         0.0719
     40 H7          4.5286   -0.0430   -0.6070 H         1 <0>         0.0736
     41 H8          5.7386   -1.7398   -0.6850 H         1 <0>         0.1327
     42 H9          7.8572   -2.9492   -0.3733 H         1 <0>         0.1260
     43 H10         7.3324   -2.7536    3.8756 H         1 <0>         0.1319
     44 H11         5.2200   -1.5362    3.5531 H         1 <0>         0.1375
     45 H12         8.7918   -5.3568    0.6358 H         1 <0>         0.1718
     46 H13        13.3463   -3.0780    4.7589 H         1 <0>         0.2031
     47 H14         8.5821   -1.2415    3.4236 H         1 <0>         0.4124
     48 H15         9.6030   -0.4812    4.5201 H         1 <0>         0.4109
     49 H16        12.4233   -6.3215    1.5647 H         1 <0>         0.1259
     50 H17        10.7089   -5.9467   -0.7299 H         1 <0>         0.0933
     51 H18        11.8313   -7.3668   -0.5730 H         1 <0>         0.1139
     52 H19         8.9535   -7.0770    0.5536 H         1 <0>         0.1141
     53 H20        11.3872   -8.5279    1.8214 H         1 <0>         0.1097
     54 H21        10.0785   -7.5946    2.6685 H         1 <0>         0.0868
     55 H22         9.6183   -8.8304   -1.2981 H         1 <0>         0.1320
     56 H23        10.6137   -9.5902   -0.0332 H         1 <0>         0.1316
     57 H24         6.6707   -8.5972    0.1606 H         1 <0>         0.1344
     58 H25         7.4571   -8.9809   -1.4303 H         1 <0>         0.1501
     59 H26         6.3337  -10.9814    0.6670 H         1 <0>         0.1231
     60 H27         6.3597  -11.1570   -1.1462 H         1 <0>         0.1299
     61 H28         8.8127  -11.1778   -1.1979 H         1 <0>         0.1503
     62 H29         8.6477  -11.8009    0.4994 H         1 <0>         0.1361
     63 H30         8.4680   -9.5971    1.3094 H         1 <0>         0.4365
@<TRIPOS>BOND
     1    1    6 ar
     2    1    2 ar
     3    1   34 1
     4    2    3 ar
     5    2   35 1
     6    3    4 ar
     7    3   36 1
     8    4    5 ar
     9    4    7 1
    10    5    6 ar
    11    5   37 1
    12    6   38 1
    13    7    8 1
    14    7   39 1
    15    7   40 1
    16    8    9 1
    17    9   14 ar
    18    9   10 ar
    19   10   11 ar
    20   10   41 1
    21   11   12 ar
    22   11   42 1
    23   12   13 ar
    24   12   15 1
    25   13   14 ar
    26   13   43 1
    27   14   44 1
    28   15   19 1
    29   15   16 2
    30   16   17 1
    31   16   45 1
    32   17   18 1
    33   17   25 1
    34   18   23 ar
    35   18   19 ar
    36   19   20 ar
    37   20   21 ar
    38   20   24 1
    39   21   22 ar
    40   22   23 ar
    41   22   46 1
    42   24   47 1
    43   24   48 1
    44   25   28 1
    45   25   26 1
    46   25   49 1
    47   26   27 1
    48   26   50 1
    49   26   51 1
    50   27   28 1
    51   27   29 1
    52   27   52 1
    53   28   53 1
    54   28   54 1
    55   29   30 1
    56   29   55 1
    57   29   56 1
    58   30   33 1
    59   30   31 1
    60   30   63 1
    61   31   32 1
    62   31   57 1
    63   31   58 1
    64   32   33 1
    65   32   59 1
    66   32   60 1
    67   33   61 1
    68   33   62 1
@<TRIPOS>MOLECULE
ZINC53239527
   54    59     0     0     0
SMALL
USER_CHARGES

@<TRIPOS>ATOM
      1 C1          2.2592    0.7713    0.7703 C.3       1 <0>        -0.1462
      2 C2          1.6726   -0.6280    0.5735 C.3       1 <0>         0.1853
      3 C3          0.1885   -0.7341    0.9621 C.3       1 <0>        -0.1570
      4 C4          0.5268   -2.1054    1.5702 C.3       1 <0>        -0.0231
      5 C5          1.9651   -1.5880    1.7388 C.3       1 <0>        -0.1547
      6 C6         -0.1744   -2.3761    2.8764 C.2       1 <0>         0.2478
      7 N1         -0.0565   -1.6506    3.9586 N.2       1 <0>        -0.4371
      8 C7         -0.8148   -2.1697    4.9378 C.2       1 <0>         0.0717
      9 C8         -1.4417   -3.2947    4.4154 C.2       1 <0>        -0.0849
     10 N2         -1.0207   -3.3972    3.1041 N.pl3     1 <0>        -0.3416
     11 C9         -1.4977   -4.4341    2.3358 C.2       1 <0>        -0.0475
     12 C10        -2.3600   -5.3199    2.8677 C.2       1 <0>         0.0851
     13 N3         -2.7733   -5.2214    4.1374 N.2       1 <0>        -0.5636
     14 C11        -2.3424   -4.2534    4.9250 C.2       1 <0>         0.4804
     15 N4         -2.7839   -4.1700    6.2349 N.pl3     1 <0>        -0.8358
     16 C12        -0.9561   -1.6436    6.3129 C.ar      1 <0>         0.0207
     17 C13        -0.8945   -2.5254    7.4063 C.ar      1 <0>        -0.1107
     18 C14        -1.0217   -2.0649    8.6774 C.ar      1 <0>        -0.0934
     19 C15        -1.2177   -0.6929    8.9116 C.ar      1 <0>        -0.1048
     20 C16        -1.3521   -0.1923   10.2210 C.ar      1 <0>        -0.0528
     21 C17        -1.5400    1.1485   10.3859 C.ar      1 <0>        -0.1676
     22 C18        -1.5949    1.9896    9.2640 C.ar      1 <0>         0.1979
     23 N5         -1.4686    1.5140    8.0399 N.ar      1 <0>        -0.4622
     24 C19        -1.2821    0.2088    7.8186 C.ar      1 <0>         0.1404
     25 C20        -1.1423   -0.2860    6.5125 C.ar      1 <0>        -0.0607
     26 C21        -1.7997    3.4453    9.4586 C.ar      1 <0>        -0.0538
     27 C22        -1.9300    3.9678   10.7444 C.ar      1 <0>        -0.0991
     28 C23        -2.1200    5.3234   10.9194 C.ar      1 <0>        -0.1265
     29 C24        -2.1813    6.1633    9.8220 C.ar      1 <0>        -0.1083
     30 C25        -2.0527    5.6505    8.5437 C.ar      1 <0>        -0.1254
     31 C26        -1.8571    4.2972    8.3567 C.ar      1 <0>        -0.0751
     32 O1          1.9707   -1.1791   -0.7108 O.3       1 <0>        -0.8846
     33 H1          3.3423    0.7006    0.8694 H         1 <0>         0.0312
     34 H2          2.0129    1.3928   -0.0907 H         1 <0>         0.0342
     35 H3          1.8401    1.2174    1.6722 H         1 <0>         0.0220
     36 H4         -0.1238    0.0055    1.6994 H         1 <0>         0.0548
     37 H5         -0.4840   -0.7899    0.1061 H         1 <0>         0.0475
     38 H6          0.4396   -2.9302    0.8630 H         1 <0>         0.0949
     39 H7          2.7269   -2.3332    1.5098 H         1 <0>         0.0468
     40 H8          2.1386   -1.0818    2.6884 H         1 <0>         0.0611
     41 H9         -1.1813   -4.5367    1.3083 H         1 <0>         0.1704
     42 H10        -2.7279   -6.1299    2.2553 H         1 <0>         0.1717
     43 H11        -2.7274   -3.3280    6.7131 H         1 <0>         0.4110
     44 H12        -3.1496   -4.9537    6.6742 H         1 <0>         0.4081
     45 H13        -0.7448   -3.5809    7.2332 H         1 <0>         0.1355
     46 H14        -0.9725   -2.7529    9.5084 H         1 <0>         0.1351
     47 H15        -1.3078   -0.8538   11.0735 H         1 <0>         0.1413
     48 H16        -1.6467    1.5619   11.3779 H         1 <0>         0.1386
     49 H17        -1.1843    0.3869    5.6688 H         1 <0>         0.1439
     50 H18        -1.8826    3.3129   11.6018 H         1 <0>         0.1267
     51 H19        -2.2214    5.7292   11.9151 H         1 <0>         0.1251
     52 H20        -2.3305    7.2235    9.9637 H         1 <0>         0.1231
     53 H21        -2.1014    6.3109    7.6906 H         1 <0>         0.1266
     54 H22        -1.7527    3.8985    7.3585 H         1 <0>         0.1374
@<TRIPOS>BOND
     1    1    2 1
     2    1   33 1
     3    1   34 1
     4    1   35 1
     5    2    5 1
     6    2    3 1
     7    2   32 1
     8    3    4 1
     9    3   36 1
    10    3   37 1
    11    4    5 1
    12    4    6 1
    13    4   38 1
    14    5   39 1
    15    5   40 1
    16    6   10 1
    17    6    7 2
    18    7    8 1
    19    8    9 2
    20    8   16 1
    21    9   14 1
    22    9   10 1
    23   10   11 1
    24   11   12 2
    25   11   41 1
    26   12   13 1
    27   12   42 1
    28   13   14 2
    29   14   15 1
    30   15   43 1
    31   15   44 1
    32   16   25 ar
    33   16   17 ar
    34   17   18 ar
    35   17   45 1
    36   18   19 ar
    37   18   46 1
    38   19   24 ar
    39   19   20 ar
    40   20   21 ar
    41   20   47 1
    42   21   22 ar
    43   21   48 1
    44   22   23 ar
    45   22   26 1
    46   23   24 ar
    47   24   25 ar
    48   25   49 1
    49   26   31 ar
    50   26   27 ar
    51   27   28 ar
    52   27   50 1
    53   28   29 ar
    54   28   51 1
    55   29   30 ar
    56   29   52 1
    57   30   31 ar
    58   30   53 1
    59   31   54 1
@<TRIPOS>MOLECULE
ZINC37134210
   32    34     0     0     0
SMALL
USER_CHARGES

@<TRIPOS>ATOM
      1 C1         -0.0167    1.3779    0.0096 C.ar      1 <0>        -0.0906
      2 C2          1.1696    2.0886    0.0021 C.ar      1 <0>        -0.1320
      3 C3          2.3802    1.4154   -0.0130 C.ar      1 <0>         0.0903
      4 C4          2.3990    0.0236   -0.0206 C.ar      1 <0>         0.0791
      5 C5          1.2071   -0.6822   -0.0130 C.ar      1 <0>        -0.1101
      6 C6          0.0021   -0.0041    0.0020 C.ar      1 <0>        -0.1031
      7 C7         -1.2936   -0.7736    0.0102 C.3       1 <0>         0.1674
      8 N1         -1.7266   -1.0155   -1.3683 N.pl3     1 <0>        -0.7391
      9 C8         -2.9096   -1.7153   -1.6160 C.ar      1 <0>         0.2657
     10 C9         -3.6786   -2.1771   -0.5459 C.ar      1 <0>        -0.2196
     11 C10        -4.8358   -2.8617   -0.7685 C.ar      1 <0>         0.0061
     12 C11        -5.2604   -3.1060   -2.0800 C.ar      1 <0>        -0.2325
     13 C12        -6.4142   -3.7872   -2.6591 C.2       1 <0>         0.0870
     14 N2         -6.3085   -3.7176   -3.9552 N.2       1 <0>        -0.2638
     15 N3         -5.1448   -3.0256   -4.3060 N.pl3     1 <0>        -0.5168
     16 H1         -4.8489   -2.8450   -5.2120 H         1 <0>         0.4380
     17 C13        -4.4898   -2.6432   -3.1642 C.ar      1 <0>         0.1773
     18 C14        -3.3134   -1.9407   -2.9190 C.ar      1 <0>        -0.2386
     19 O1          3.5850   -0.6417   -0.0359 O.3       1 <0>        -0.4868
     20 O2          3.5476    2.1129   -0.0209 O.3       1 <0>        -0.4879
     21 H2         -0.9598    1.9038    0.0259 H         1 <0>         0.1335
     22 H3          1.1522    3.1684    0.0077 H         1 <0>         0.1370
     23 H4          1.2190   -1.7621   -0.0189 H         1 <0>         0.1360
     24 H5         -1.1467   -1.7271    0.5175 H         1 <0>         0.0730
     25 H6         -2.0555   -0.1967    0.5344 H         1 <0>         0.0746
     26 H7         -1.1917   -0.6897   -2.1089 H         1 <0>         0.4027
     27 H8         -3.3533   -1.9904    0.4670 H         1 <0>         0.1266
     28 H9         -5.4241   -3.2155    0.0653 H         1 <0>         0.1297
     29 H10        -7.2129   -4.2641   -2.1104 H         1 <0>         0.1946
     30 H11        -2.7168   -1.5770   -3.7425 H         1 <0>         0.1221
     31 H12         3.9367   -0.8389    0.8430 H         1 <0>         0.3894
     32 H13         3.8938    2.3101    0.8602 H         1 <0>         0.3905
@<TRIPOS>BOND
     1    1    6 ar
     2    1    2 ar
     3    1   21 1
     4    2    3 ar
     5    2   22 1
     6    3    4 ar
     7    3   20 1
     8    4    5 ar
     9    4   19 1
    10    5    6 ar
    11    5   23 1
    12    6    7 1
    13    7    8 1
    14    7   24 1
    15    7   25 1
    16    8    9 1
    17    8   26 1
    18    9   18 ar
    19    9   10 ar
    20   10   11 ar
    21   10   27 1
    22   11   12 ar
    23   11   28 1
    24   12   17 ar
    25   12   13 1
    26   13   14 2
    27   13   29 1
    28   14   15 1
    29   15   16 1
    30   15   17 1
    31   17   18 ar
    32   18   30 1
    33   19   31 1
    34   20   32 1
@<TRIPOS>MOLECULE
ZINC36951929
   35    37     0     0     0
SMALL
USER_CHARGES

@<TRIPOS>ATOM
      1 C1         -0.0164    1.3568    0.0095 C.ar      1 <0>        -0.1404
      2 C2          1.1684    2.0908    0.0021 C.ar      1 <0>        -0.1028
      3 C3          2.3781    1.4677   -0.0128 C.ar      1 <0>        -0.1260
      4 C4          2.4371    0.0630   -0.0208 C.ar      1 <0>         0.0006
      5 C5          3.6679   -0.6130   -0.0357 C.ar      1 <0>        -0.2082
      6 C6          3.6852   -1.9904   -0.0428 C.ar      1 <0>         0.2212
      7 C7          2.4899   -2.7199   -0.0359 C.ar      1 <0>        -0.1717
      8 C8          1.2866   -2.0884   -0.0216 C.ar      1 <0>        -0.0603
      9 C9          1.2321   -0.6835   -0.0134 C.ar      1 <0>        -0.0988
     10 C10         0.0021   -0.0041    0.0020 C.ar      1 <0>        -0.0887
     11 N1          4.9069   -2.6660   -0.0576 N.pl3     1 <0>        -0.7436
     12 C11         4.9340   -4.1307   -0.0653 C.3       1 <0>         0.1666
     13 C12         6.3637   -4.6067   -0.0809 C.ar      1 <0>        -0.1015
     14 C13         7.0088   -4.8129   -1.2862 C.ar      1 <0>        -0.0911
     15 C14         8.3204   -5.2495   -1.3058 C.ar      1 <0>        -0.1316
     16 C15         8.9914   -5.4809   -0.1158 C.ar      1 <0>         0.0898
     17 C16         8.3423   -5.2729    1.0973 C.ar      1 <0>         0.0794
     18 C17         7.0291   -4.8306    1.1100 C.ar      1 <0>        -0.1104
     19 O1          8.9966   -5.4986    2.2679 O.3       1 <0>        -0.4864
     20 O2         10.2815   -5.9108   -0.1334 O.3       1 <0>        -0.4876
     21 H1         -0.9634    1.8758    0.0259 H         1 <0>         0.1200
     22 H2          1.1257    3.1700    0.0080 H         1 <0>         0.1202
     23 H3          3.2882    2.0492   -0.0187 H         1 <0>         0.1231
     24 H4          4.5939   -0.0572   -0.0418 H         1 <0>         0.1226
     25 H5          2.5248   -3.7993   -0.0425 H         1 <0>         0.1238
     26 H6          0.3734   -2.6650   -0.0168 H         1 <0>         0.1283
     27 H7         -0.9243   -0.5592    0.0082 H         1 <0>         0.1236
     28 H8          5.7379   -2.1655   -0.0627 H         1 <0>         0.4013
     29 H9          4.4352   -4.5080    0.8275 H         1 <0>         0.0711
     30 H10         4.4187   -4.4989   -0.9524 H         1 <0>         0.0724
     31 H11         6.4869   -4.6330   -2.2144 H         1 <0>         0.1331
     32 H12         8.8218   -5.4106   -2.2487 H         1 <0>         0.1370
     33 H13         6.5242   -4.6647    2.0501 H         1 <0>         0.1356
     34 H14         9.4650   -4.7257    2.6120 H         1 <0>         0.3890
     35 H15        10.9340   -5.1971   -0.1331 H         1 <0>         0.3902
@<TRIPOS>BOND
     1    1   10 ar
     2    1    2 ar
     3    1   21 1
     4    2    3 ar
     5    2   22 1
     6    3    4 ar
     7    3   23 1
     8    4    9 ar
     9    4    5 ar
    10    5    6 ar
    11    5   24 1
    12    6    7 ar
    13    6   11 1
    14    7    8 ar
    15    7   25 1
    16    8    9 ar
    17    8   26 1
    18    9   10 ar
    19   10   27 1
    20   11   12 1
    21   11   28 1
    22   12   13 1
    23   12   29 1
    24   12   30 1
    25   13   18 ar
    26   13   14 ar
    27   14   15 ar
    28   14   31 1
    29   15   16 ar
    30   15   32 1
    31   16   17 ar
    32   16   20 1
    33   17   18 ar
    34   17   19 1
    35   18   33 1
    36   19   34 1
    37   20   35 1
@<TRIPOS>MOLECULE
ZINC19966204
   32    34     0     0     0
SMALL
USER_CHARGES
4-[(1,3-benzodioxol-5-ylamino)methyl]benzene-1,2-diol
@<TRIPOS>ATOM
      1 C1          7.9424   -2.0239    2.4992 C.ar      1 <0>        -0.0955
      2 C2          9.2343   -1.8760    2.9700 C.ar      1 <0>        -0.1323
      3 C3          9.4532   -1.4715    4.2767 C.ar      1 <0>         0.1356
      4 C4          8.3706   -1.2096    5.1115 C.ar      1 <0>         0.0612
      5 C5          7.0791   -1.3546    4.6320 C.ar      1 <0>        -0.1541
      6 C6          6.8676   -1.7588    3.3266 C.ar      1 <0>        -0.1135
      7 C7          5.4619   -1.9165    2.8068 C.3       1 <0>         0.1739
      8 N1          5.0096   -0.6483    2.2294 N.pl3     1 <0>        -0.7487
      9 C8          3.7269   -0.5481    1.6792 C.ar      1 <0>         0.2364
     10 C9          2.8828   -1.6507    1.6800 C.ar      1 <0>        -0.1967
     11 C10         1.6161   -1.5533    1.1361 C.ar      1 <0>        -0.0467
     12 C11         1.1844   -0.3558    0.5896 C.ar      1 <0>        -0.0360
     13 C12         2.0286    0.7519    0.5872 C.ar      1 <0>         0.0840
     14 C13         3.2982    0.6535    1.1321 C.ar      1 <0>        -0.1816
     15 O1          1.3763    1.7966   -0.0014 O.3       1 <0>        -0.3131
     16 C14        -0.0175    1.4356    0.0099 C.3       1 <0>         0.2108
     17 O2          0.0021   -0.0041    0.0020 O.3       1 <0>        -0.3078
     18 O3          8.5804   -0.8118    6.3949 O.3       1 <0>        -0.5198
     19 O4         10.7229   -1.3310    4.7429 O.3       1 <0>        -0.5071
     20 H1          7.7731   -2.3433    1.4816 H         1 <0>         0.1314
     21 H2         10.0725   -2.0799    2.3202 H         1 <0>         0.1368
     22 H3          6.2374   -1.1524    5.2779 H         1 <0>         0.1292
     23 H4          5.4424   -2.6989    2.0339 H         1 <0>         0.0697
     24 H5          4.7949   -2.2014    3.6338 H         1 <0>         0.0667
     25 H6          5.6783    0.2251    2.2284 H         1 <0>         0.4225
     26 H7          3.2167   -2.5854    2.1058 H         1 <0>         0.1341
     27 H8          0.9613   -2.4121    1.1379 H         1 <0>         0.1337
     28 H9          3.9545    1.5112    1.1309 H         1 <0>         0.1320
     29 H10        -0.4939    1.8408    0.9148 H         1 <0>         0.0824
     30 H11        -0.5110    1.8505   -0.8814 H         1 <0>         0.1309
     31 H12         7.7240   -0.6051    7.0536 H         1 <0>         0.4412
     32 H13        10.8953   -1.0097    5.7807 H         1 <0>         0.4404
@<TRIPOS>BOND
     1    1    6 ar
     2    1    2 ar
     3    1   20 1
     4    2    3 ar
     5    2   21 1
     6    3    4 ar
     7    3   19 1
     8    4    5 ar
     9    4   18 1
    10    5    6 ar
    11    5   22 1
    12    6    7 1
    13    7    8 1
    14    7   23 1
    15    7   24 1
    16    8    9 1
    17    8   25 1
    18    9   14 ar
    19    9   10 ar
    20   10   11 ar
    21   10   26 1
    22   11   12 ar
    23   11   27 1
    24   12   17 1
    25   12   13 ar
    26   13   14 ar
    27   13   15 1
    28   14   28 1
    29   15   16 1
    30   16   17 1
    31   16   29 1
    32   16   30 1
    33   18   31 1
    34   19   32 1
@<TRIPOS>MOLECULE
ZINC03814434
   62    69     0     0     0
SMALL
USER_CHARGES

@<TRIPOS>ATOM
      1 C1         -0.1295    1.5952   -0.2973 C.3       1 <0>        -0.1687
      2 C2         -0.0862    0.0696   -0.1900 C.3       1 <0>         0.3342
      3 C3          0.5692   -0.4501   -1.4637 C.3       1 <0>         0.0405
      4 H1          1.4796    0.1159   -1.6612 H         1 <0>         0.1372
      5 C4          0.9167   -1.9328   -1.2889 C.3       1 <0>        -0.0061
      6 H2          1.3963   -2.3075   -2.1932 H         1 <0>         0.1555
      7 C5          1.8785   -2.0596   -0.1021 C.3       1 <0>        -0.1827
      8 C6          1.2061   -1.5198    1.1541 C.3       1 <0>         0.2999
      9 H3          1.9797   -1.4243    1.9161 H         1 <0>         0.1550
     10 O1          0.6555   -0.2442    0.9666 O.3       1 <0>        -0.3234
     11 N1          0.2189   -2.4746    1.6600 N.pl3     1 <0>        -0.5366
     12 C7          0.4705   -3.5508    2.4739 C.ar      1 <0>         0.1469
     13 C8          1.6649   -4.0152    3.0240 C.ar      1 <0>        -0.1522
     14 C9          1.5948   -5.1456    3.8201 C.ar      1 <0>        -0.0582
     15 C10         0.4006   -5.7997    4.0696 C.ar      1 <0>        -0.1457
     16 C11        -0.7984   -5.3597    3.5358 C.ar      1 <0>        -0.0280
     17 C12        -0.7487   -4.2198    2.7307 C.ar      1 <0>        -0.1131
     18 C13        -1.7893   -3.4830    2.0197 C.ar      1 <0>         0.0276
     19 C14        -1.1442   -2.4197    1.3841 C.ar      1 <0>         0.0376
     20 C15        -1.8806   -1.5095    0.6175 C.ar      1 <0>         0.0894
     21 N2         -1.4718   -0.3951   -0.1095 N.pl3     1 <0>        -0.5183
     22 C16        -2.5611    0.1913   -0.7090 C.ar      1 <0>         0.1618
     23 C17        -2.6521    1.3277   -1.5118 C.ar      1 <0>        -0.1305
     24 C18        -3.9109    1.6745   -1.9733 C.ar      1 <0>        -0.0737
     25 C19        -5.0393    0.9368   -1.6616 C.ar      1 <0>        -0.1358
     26 C20        -4.9745   -0.1955   -0.8662 C.ar      1 <0>        -0.0503
     27 C21        -3.7147   -0.5596   -0.3919 C.ar      1 <0>        -0.1042
     28 C22        -3.2693   -1.6660    0.4845 C.ar      1 <0>        -0.0360
     29 C23        -3.9084   -2.7313    1.1102 C.ar      1 <0>        -0.0288
     30 C24        -3.1873   -3.6421    1.8754 C.ar      1 <0>        -0.1255
     31 C25        -4.1221   -4.6480    2.4030 C.2       1 <0>         0.5632
     32 O2         -3.8062   -5.5851    3.1110 O.2       1 <0>        -0.5106
     33 N3         -5.3744   -4.3851    1.9926 N.am      1 <0>        -0.7162
     34 C26        -5.3495   -3.1771    1.1601 C.3       1 <0>         0.1358
     35 N4         -0.3067   -2.7008   -1.0216 N.4       1 <0>        -0.5252
     36 C27         0.0145   -4.1336   -0.9773 C.3       1 <0>        -0.0497
     37 O3         -0.3340   -0.2979   -2.5607 O.3       1 <0>        -0.3614
     38 C28         0.3101   -0.0933   -3.8198 C.3       1 <0>         0.0162
     39 H4          0.8261    2.0094    0.0240 H         1 <0>         0.0984
     40 H5         -0.3202    1.8814   -1.3317 H         1 <0>         0.1036
     41 H6         -0.9255    1.9818    0.3392 H         1 <0>         0.0921
     42 H7          2.1370   -3.1081    0.0458 H         1 <0>         0.1233
     43 H8          2.7835   -1.4869   -0.3048 H         1 <0>         0.1455
     44 H9          2.6036   -3.5149    2.8368 H         1 <0>         0.1365
     45 H10         2.5026   -5.5304    4.2610 H         1 <0>         0.1359
     46 H11         0.4045   -6.6780    4.6980 H         1 <0>         0.1352
     47 H12        -1.7278   -5.8736    3.7323 H         1 <0>         0.1600
     48 H13        -1.7792    1.9122   -1.7624 H         1 <0>         0.1440
     49 H14        -4.0153    2.5500   -2.5970 H         1 <0>         0.1336
     50 H15        -5.9967    1.2527   -2.0488 H         1 <0>         0.1332
     51 H16        -5.8575   -0.7687   -0.6249 H         1 <0>         0.1415
     52 H17        -6.1628   -4.9065    2.2103 H         1 <0>         0.4348
     53 H18        -5.9671   -2.3994    1.6094 H         1 <0>         0.1115
     54 H19        -5.7060   -3.4063    0.1559 H         1 <0>         0.1103
     55 H20        -0.6958   -2.4158   -0.1353 H         1 <0>         0.4186
     56 H21         0.4349   -4.4415   -1.9347 H         1 <0>         0.1256
     57 H22         0.7403   -4.3189   -0.1854 H         1 <0>         0.1191
     58 H23        -0.8932   -4.7035   -0.7789 H         1 <0>         0.1256
     59 H24         0.9168    0.8112   -3.7748 H         1 <0>         0.0633
     60 H25         0.9482   -0.9479   -4.0446 H         1 <0>         0.0514
     61 H26        -0.4433    0.0130   -4.6003 H         1 <0>         0.1100
     62 H27        -0.9785   -2.5293   -1.7546 H         1 <0>         0.4274
@<TRIPOS>BOND
     1    1    2 1
     2    1   39 1
     3    1   40 1
     4    1   41 1
     5    2   10 1
     6    2   21 1
     7    2    3 1
     8    3    4 1
     9    3    5 1
    10    3   37 1
    11    5    6 1
    12    5    7 1
    13    5   35 1
    14    7    8 1
    15    7   42 1
    16    7   43 1
    17    8    9 1
    18    8   10 1
    19    8   11 1
    20   11   19 1
    21   11   12 1
    22   12   17 ar
    23   12   13 ar
    24   13   14 ar
    25   13   44 1
    26   14   15 ar
    27   14   45 1
    28   15   16 ar
    29   15   46 1
    30   16   17 ar
    31   16   47 1
    32   17   18 1
    33   18   30 ar
    34   18   19 ar
    35   19   20 ar
    36   20   28 ar
    37   20   21 1
    38   21   22 1
    39   22   27 ar
    40   22   23 ar
    41   23   24 ar
    42   23   48 1
    43   24   25 ar
    44   24   49 1
    45   25   26 ar
    46   25   50 1
    47   26   27 ar
    48   26   51 1
    49   27   28 1
    50   28   29 ar
    51   29   34 1
    52   29   30 ar
    53   30   31 1
    54   31   32 2
    55   31   33 am
    56   33   34 1
    57   33   52 1
    58   34   53 1
    59   34   54 1
    60   35   36 1
    61   35   55 1
    62   35   62 1
    63   36   56 1
    64   36   57 1
    65   36   58 1
    66   37   38 1
    67   38   59 1
    68   38   60 1
    69   38   61 1
@<TRIPOS>MOLECULE
ZINC12375686
   27    29     0     0     0
SMALL
USER_CHARGES

@<TRIPOS>ATOM
      1 C1         -0.0166    1.3746    0.0096 C.ar      1 <0>        -0.1184
      2 C2          1.1703    2.0870    0.0021 C.ar      1 <0>        -0.0984
      3 C3          2.3837    1.4229   -0.0130 C.ar      1 <0>        -0.1120
      4 C4          2.4187    0.0426   -0.0212 C.ar      1 <0>        -0.0158
      5 C5          1.2234   -0.6831   -0.0137 C.ar      1 <0>        -0.0127
      6 C6          0.0021   -0.0041    0.0020 C.ar      1 <0>        -0.0810
      7 C7          1.2516   -2.1579   -0.0228 C.2       1 <0>         0.0296
      8 C8          0.5521   -2.9809    0.8329 C.2       1 <0>        -0.1848
      9 C9          0.8628   -4.2950    0.4810 C.2       1 <0>        -0.1657
     10 C10         1.7469   -4.2260   -0.5842 C.2       1 <0>         0.0117
     11 O1          1.9598   -2.9243   -0.8715 O.3       1 <0>        -0.1251
     12 C11         2.3196   -5.3235   -1.2539 C.2       1 <0>         0.0325
     13 C12         3.1898   -5.1133   -2.3049 C.2       1 <0>        -0.1624
     14 C13         3.8739   -6.0566   -3.1207 C.2       1 <0>         0.4809
     15 O2          3.7186   -7.3859   -2.9208 O.3       1 <0>        -0.5771
     16 N1          4.6500   -5.6130   -4.0611 N.2       1 <0>        -0.6226
     17 C14         4.8173   -4.2985   -4.2760 C.2       1 <0>         0.3771
     18 S1          3.7637   -3.5794   -3.0238 S.3       1 <0>        -0.1247
     19 S2          5.7846   -3.5137   -5.4505 S.2       1 <0>        -0.5251
     20 Cl1         3.9421   -0.7895   -0.0413 Cl        1 <0>        -0.0398
     21 H1         -0.9599    1.9002    0.0259 H         1 <0>         0.1341
     22 H2          1.1489    3.1667    0.0077 H         1 <0>         0.1343
     23 H3          3.3057    1.9853   -0.0188 H         1 <0>         0.1383
     24 H4         -0.9251   -0.5580    0.0082 H         1 <0>         0.1373
     25 H5         -0.1109   -2.6681    1.6261 H         1 <0>         0.1541
     26 H6          0.4868   -5.1930    0.9486 H         1 <0>         0.1596
     27 H7          2.0783   -6.3301   -0.9457 H         1 <0>         0.1763
@<TRIPOS>BOND
     1    1    6 ar
     2    1    2 ar
     3    1   21 1
     4    2    3 ar
     5    2   22 1
     6    3    4 ar
     7    3   23 1
     8    4    5 ar
     9    4   20 1
    10    5    6 ar
    11    5    7 1
    12    6   24 1
    13    7   11 1
    14    7    8 2
    15    8    9 1
    16    8   25 1
    17    9   10 2
    18    9   26 1
    19   10   11 1
    20   10   12 1
    21   12   13 2
    22   12   27 1
    23   13   18 1
    24   13   14 1
    25   14   15 1
    26   14   16 2
    27   16   17 1
    28   17   18 1
    29   17   19 2
@<TRIPOS>MOLECULE
ZINC00974070
   30    31     0     0     0
SMALL
USER_CHARGES
5-[(4-hydroxy-3,5-dimethoxy-phenyl)methylene]thiazolidine-2,4-dione
@<TRIPOS>ATOM
      1 C1          4.9123    0.3619    0.2208 C.3       1 <0>         0.0232
      2 O1          4.7988    1.7480   -0.1077 O.3       1 <0>        -0.3017
      3 C2          3.5419    2.2507   -0.2378 C.ar      1 <0>         0.1317
      4 C3          2.4471    1.4280   -0.0532 C.ar      1 <0>        -0.1945
      5 C4          1.1535    1.9466   -0.1874 C.ar      1 <0>        -0.0301
      6 C5          0.9748    3.2963   -0.5139 C.ar      1 <0>        -0.1577
      7 C6          2.0747    4.1138   -0.6912 C.ar      1 <0>         0.1350
      8 C7          3.3598    3.5940   -0.5573 C.ar      1 <0>         0.0670
      9 O2          4.4393    4.4000   -0.7385 O.3       1 <0>        -0.4713
     10 O3          1.9021    5.4262   -1.0033 O.3       1 <0>        -0.3003
     11 C8          0.5569    5.8926   -1.1250 C.3       1 <0>         0.0243
     12 C9         -0.0126    1.0758    0.0080 C.2       1 <0>         0.0794
     13 C10        -1.1112    1.5469    0.6509 C.2       1 <0>        -0.2108
     14 C11        -1.3049    2.8190    1.3746 C.2       1 <0>         0.5500
     15 O4         -0.4132    3.6417    1.4712 O.2       1 <0>        -0.4541
     16 N1         -2.4977    3.0216    1.9084 N.am      1 <0>        -0.6848
     17 C12        -3.4808    2.1041    1.8051 C.2       1 <0>         0.5539
     18 O5         -4.6126    2.1566    2.2476 O.2       1 <0>        -0.4109
     19 S1         -2.7189    0.7941    0.8608 S.3       1 <0>        -0.0413
     20 H1          5.9655    0.0910    0.2943 H         1 <0>         0.1049
     21 H2          4.4212    0.1734    1.1755 H         1 <0>         0.0583
     22 H3          4.4367   -0.2359   -0.5567 H         1 <0>         0.0587
     23 H4          2.5891    0.3863    0.1938 H         1 <0>         0.1421
     24 H5         -0.0214    3.6990   -0.6226 H         1 <0>         0.1361
     25 H6          4.7593    4.4298   -1.6506 H         1 <0>         0.3864
     26 H7          0.5614    6.9533   -1.3761 H         1 <0>         0.1042
     27 H8          0.0489    5.3351   -1.9120 H         1 <0>         0.0547
     28 H9          0.0343    5.7451   -0.1799 H         1 <0>         0.0613
     29 H10         0.0023    0.0620   -0.3639 H         1 <0>         0.1635
     30 H11        -2.6681    3.8468    2.3889 H         1 <0>         0.4230
@<TRIPOS>BOND
     1    1    2 1
     2    1   20 1
     3    1   21 1
     4    1   22 1
     5    2    3 1
     6    3    8 ar
     7    3    4 ar
     8    4    5 ar
     9    4   23 1
    10    5    6 ar
    11    5   12 1
    12    6    7 ar
    13    6   24 1
    14    7    8 ar
    15    7   10 1
    16    8    9 1
    17    9   25 1
    18   10   11 1
    19   11   26 1
    20   11   27 1
    21   11   28 1
    22   12   13 2
    23   12   29 1
    24   13   19 1
    25   13   14 1
    26   14   15 2
    27   14   16 am
    28   16   17 am
    29   16   30 1
    30   17   18 2
    31   17   19 1
@<TRIPOS>MOLECULE
ZINC14965294
   63    67     0     0     0
SMALL
USER_CHARGES
4-[[2-[[4-chloro-3-[[(2S)-1-methylpyrrolidin-2-yl]methoxy]phenyl]amino]-1,3-benzoxazol-5-yl]oxy]-N-methyl-pyridine-2-carboxamide
@<TRIPOS>ATOM
      1 C1        -13.7281    0.6446    5.1022 C.3       1 <0>         0.0839
      2 N1        -12.2870    0.5892    4.8445 N.am      1 <0>        -0.7127
      3 C2        -11.8065    0.9193    3.6293 C.2       1 <0>         0.5702
      4 O1        -12.5687    1.2629    2.7475 O.2       1 <0>        -0.5245
      5 C3        -10.3489    0.8632    3.3687 C.ar      1 <0>         0.1155
      6 C4         -9.8593    1.2108    2.1139 C.ar      1 <0>        -0.1328
      7 C5         -8.4874    1.1472    1.8837 C.ar      1 <0>         0.1579
      8 C6         -7.6590    0.7469    2.9288 C.ar      1 <0>        -0.2285
      9 C7         -8.2201    0.4224    4.1506 C.ar      1 <0>         0.1389
     10 N2         -9.5215    0.4868    4.3368 N.ar      1 <0>        -0.4773
     11 O2         -7.9699    1.4727    0.6718 O.3       1 <0>        -0.2394
     12 C8         -6.6170    1.4887    0.5390 C.ar      1 <0>         0.0926
     13 C9         -5.9388    2.7028    0.5025 C.ar      1 <0>        -0.0970
     14 C10        -4.5659    2.7320    0.3685 C.ar      1 <0>        -0.0616
     15 C11        -3.8548    1.5472    0.2683 C.ar      1 <0>         0.0039
     16 C12        -4.5323    0.3193    0.3039 C.ar      1 <0>         0.0682
     17 C13        -5.9209    0.2985    0.4402 C.ar      1 <0>        -0.0835
     18 N3         -3.5863   -0.6518    0.1813 N.2       1 <0>        -0.5055
     19 C14        -2.4114   -0.0836    0.0855 C.2       1 <0>         0.4915
     20 O3         -2.5403    1.2540    0.1319 O.3       1 <0>        -0.2175
     21 N4         -1.2172   -0.7574   -0.0492 N.pl3     1 <0>        -0.6094
     22 C15        -0.0087   -0.0545   -0.0052 C.ar      1 <0>         0.2115
     23 C16         0.0728    1.1455    0.6901 C.ar      1 <0>        -0.1617
     24 C17         1.2661    1.8401    0.7333 C.ar      1 <0>        -0.0313
     25 C18         2.3820    1.3433    0.0850 C.ar      1 <0>        -0.0837
     26 C19         2.3058    0.1443   -0.6114 C.ar      1 <0>         0.1596
     27 C20         1.1101   -0.5549   -0.6566 C.ar      1 <0>        -0.2268
     28 O4          3.4031   -0.3429   -1.2486 O.3       1 <0>        -0.3096
     29 C21         3.2520   -1.5812   -1.9457 C.3       1 <0>         0.0375
     30 C22         4.5828   -1.9666   -2.5949 C.3       1 <0>         0.0329
     31 H1          4.9619   -1.1434   -3.2005 H         1 <0>         0.1534
     32 C23         4.4135   -3.2359   -3.4573 C.3       1 <0>        -0.1411
     33 C24         5.7173   -4.0349   -3.2546 C.3       1 <0>        -0.1483
     34 C25         6.5647   -3.1813   -2.2869 C.3       1 <0>        -0.0069
     35 C26         6.2123   -1.1603   -0.9752 C.3       1 <0>        -0.0397
     36 Cl1         3.8796    2.2194    0.1418 Cl        1 <0>        -0.0465
     37 H2        -14.0865    1.6619    4.9448 H         1 <0>         0.0645
     38 H3        -14.2452   -0.0321    4.4218 H         1 <0>         0.0644
     39 H4        -13.9249    0.3453    6.1316 H         1 <0>         0.0810
     40 H5        -11.6787    0.3149    5.5484 H         1 <0>         0.4138
     41 H6        -10.5332    1.5213    1.3292 H         1 <0>         0.1610
     42 H7         -6.5898    0.6909    2.7871 H         1 <0>         0.1446
     43 H8         -7.5811    0.1111    4.9637 H         1 <0>         0.1696
     44 H9         -6.4904    3.6281    0.5796 H         1 <0>         0.1566
     45 H10        -4.0459    3.6782    0.3412 H         1 <0>         0.1500
     46 H11        -6.4492   -0.6430    0.4687 H         1 <0>         0.1485
     47 H12        -1.2145   -1.7193   -0.1745 H         1 <0>         0.4450
     48 H13        -0.7985    1.5378    1.1935 H         1 <0>         0.1477
     49 H14         1.3276    2.7728    1.2742 H         1 <0>         0.1543
     50 H15         1.0489   -1.4874   -1.1980 H         1 <0>         0.1445
     51 H16         2.9515   -2.3590   -1.2437 H         1 <0>         0.0895
     52 H17         2.4893   -1.4733   -2.7168 H         1 <0>         0.1131
     53 H18         3.5568   -3.8156   -3.1135 H         1 <0>         0.1030
     54 H19         4.2933   -2.9673   -4.5068 H         1 <0>         0.1171
     55 H20         5.5007   -5.0069   -2.8115 H         1 <0>         0.1022
     56 H21         6.2362   -4.1601   -4.2050 H         1 <0>         0.1137
     57 H22         7.1090   -3.8213   -1.5925 H         1 <0>         0.1399
     58 H23         7.2575   -2.5503   -2.8437 H         1 <0>         0.1341
     59 H24         5.4523   -0.5277   -0.5165 H         1 <0>         0.1326
     60 H25         6.9334   -1.4688   -0.2183 H         1 <0>         0.1248
     61 H26         6.7246   -0.6026   -1.7592 H         1 <0>         0.1192
     62 N5          5.5663   -2.3627   -1.5897 N.4       1 <0>        -0.3946
     63 H27         5.1116   -2.9146   -0.8528 H         1 <0>         0.4280
@<TRIPOS>BOND
     1    1    2 1
     2    1   37 1
     3    1   38 1
     4    1   39 1
     5    2    3 am
     6    2   40 1
     7    3    4 2
     8    3    5 1
     9    5   10 ar
    10    5    6 ar
    11    6    7 ar
    12    6   41 1
    13    7    8 ar
    14    7   11 1
    15    8    9 ar
    16    8   42 1
    17    9   10 ar
    18    9   43 1
    19   11   12 1
    20   12   17 ar
    21   12   13 ar
    22   13   14 ar
    23   13   44 1
    24   14   15 ar
    25   14   45 1
    26   15   20 1
    27   15   16 ar
    28   16   17 ar
    29   16   18 1
    30   17   46 1
    31   18   19 2
    32   19   20 1
    33   19   21 1
    34   21   22 1
    35   21   47 1
    36   22   27 ar
    37   22   23 ar
    38   23   24 ar
    39   23   48 1
    40   24   25 ar
    41   24   49 1
    42   25   26 ar
    43   25   36 1
    44   26   27 ar
    45   26   28 1
    46   27   50 1
    47   28   29 1
    48   29   30 1
    49   29   51 1
    50   29   52 1
    51   30   31 1
    52   30   32 1
    53   30   62 1
    54   32   33 1
    55   32   53 1
    56   32   54 1
    57   33   34 1
    58   33   55 1
    59   33   56 1
    60   34   57 1
    61   34   58 1
    62   34   62 1
    63   35   59 1
    64   35   60 1
    65   35   61 1
    66   35   62 1
    67   62   63 1
@<TRIPOS>MOLECULE
ZINC13457874
   29    31     0     0     0
SMALL
USER_CHARGES
4-[5-[(Z)-(4-oxo-2-thioxo-thiazolidin-5-ylidene)methyl]-2-furyl]benzoic acid
@<TRIPOS>ATOM
      1 C1          2.5292    5.0811    0.0047 C.ar      1 <0>        -0.1054
      2 C2          2.4759    3.7166   -0.0016 C.ar      1 <0>        -0.0861
      3 C3          1.2384    3.0648    0.0067 C.ar      1 <0>        -0.1009
      4 C4          0.0551    3.8104    0.0162 C.ar      1 <0>        -0.0821
      5 C5          0.1078    5.1750    0.0288 C.ar      1 <0>        -0.1081
      6 C6          1.3456    5.8272    0.0201 C.ar      1 <0>        -0.0402
      7 C7          1.4028    7.2999    0.0264 C.2       1 <0>         0.0650
      8 C8          0.3169    8.1468    0.0412 C.2       1 <0>        -0.2097
      9 C9          0.8168    9.4512    0.0424 C.2       1 <0>        -0.1660
     10 C10         2.1966    9.3511    0.0282 C.2       1 <0>        -0.0048
     11 O1          2.5252    8.0430    0.0246 O.3       1 <0>        -0.1385
     12 C11         3.1050   10.4327    0.0238 C.2       1 <0>         0.0173
     13 C12         4.4483   10.1953    0.0093 C.2       1 <0>        -0.2008
     14 C13         5.5710   11.1501   -0.0038 C.2       1 <0>         0.5293
     15 O2          5.3862   12.3536   -0.0032 O.3       1 <0>        -0.5090
     16 N1          6.7889   10.6350   -0.0118 N.2       1 <0>        -0.6546
     17 C14         6.9893    9.3013   -0.0201 C.2       1 <0>         0.3829
     18 S1          8.4737    8.4487   -0.0383 S.2       1 <0>        -0.5684
     19 S2          5.3304    8.6405   -0.0068 S.3       1 <0>        -0.1174
     20 C15         1.1812    1.5909   -0.0007 C.2       1 <0>         0.4888
     21 O3          2.2091    0.9431   -0.0140 O.co2     1 <0>        -0.6283
     22 O4         -0.0110    0.9628    0.0073 O.co2     1 <0>        -0.7573
     23 H1          3.4848    5.5843   -0.0017 H         1 <0>         0.1285
     24 H2          3.3894    3.1406   -0.0134 H         1 <0>         0.1326
     25 H3         -0.9004    3.3069    0.0182 H         1 <0>         0.1351
     26 H4         -0.8059    5.7506    0.0410 H         1 <0>         0.1215
     27 H5         -0.7236    7.8575    0.0497 H         1 <0>         0.1520
     28 H6          0.2374   10.3626    0.0520 H         1 <0>         0.1534
     29 H7          2.7292   11.4665    0.0321 H         1 <0>         0.1713
@<TRIPOS>BOND
     1    1    6 ar
     2    1    2 ar
     3    1   23 1
     4    2    3 ar
     5    2   24 1
     6    3    4 ar
     7    3   20 1
     8    4    5 ar
     9    4   25 1
    10    5    6 ar
    11    5   26 1
    12    6    7 1
    13    7   11 1
    14    7    8 2
    15    8    9 1
    16    8   27 1
    17    9   10 2
    18    9   28 1
    19   10   11 1
    20   10   12 1
    21   12   13 2
    22   12   29 1
    23   13   19 1
    24   13   14 1
    25   14   15 1
    26   14   16 2
    27   16   17 1
    28   17   18 2
    29   17   19 1
    30   20   21 2
    31   20   22 1
@<TRIPOS>MOLECULE
ZINC28896217
   38    39     0     0     0
SMALL
USER_CHARGES
4-[4-(3,4-dihydroxyphenyl)butyl]benzene-1,2-diol
@<TRIPOS>ATOM
      1 C1         -2.7768   -9.0624   -1.2013 C.ar      1 <0>        -0.1158
      2 C2         -2.7523  -10.4448   -1.2108 C.ar      1 <0>        -0.1268
      3 C3         -2.7314  -11.1454   -0.0157 C.ar      1 <0>         0.1197
      4 C4         -2.7294  -10.4546    1.1925 C.ar      1 <0>         0.0651
      5 C5         -2.7483   -9.0693    1.1948 C.ar      1 <0>        -0.1720
      6 C6         -2.7691   -8.3762   -0.0014 C.ar      1 <0>        -0.0848
      7 C7         -2.7896   -6.8693    0.0030 C.3       1 <0>        -0.0782
      8 C8         -1.3543   -6.3397   -0.0091 C.3       1 <0>        -0.1141
      9 C9         -1.3751   -4.8098   -0.0046 C.3       1 <0>        -0.1141
     10 C10         0.0603   -4.2802   -0.0167 C.3       1 <0>        -0.0782
     11 C11         0.0397   -2.7733   -0.0123 C.ar      1 <0>        -0.0848
     12 C12         0.0417   -2.0872    1.1877 C.ar      1 <0>        -0.1158
     13 C13         0.0229   -0.7047    1.1971 C.ar      1 <0>        -0.1269
     14 C14         0.0021   -0.0041    0.0020 C.ar      1 <0>         0.1197
     15 C15        -0.0057   -0.6950   -1.2061 C.ar      1 <0>         0.0651
     16 C16         0.0194   -2.0802   -1.2085 C.ar      1 <0>        -0.1720
     17 O1         -0.0318   -0.0118   -2.3817 O.3       1 <0>        -0.5207
     18 O2         -0.0164    1.3557    0.0095 O.3       1 <0>        -0.5095
     19 O3         -2.7085  -11.1378    2.3681 O.3       1 <0>        -0.5206
     20 O4         -2.7134  -12.5052   -0.0232 O.3       1 <0>        -0.5095
     21 H1         -2.7978   -8.5175   -2.1335 H         1 <0>         0.1279
     22 H2         -2.7543  -10.9785   -2.1497 H         1 <0>         0.1338
     23 H3         -2.7472   -8.5308    2.1310 H         1 <0>         0.1264
     24 H4         -3.3216   -6.5073   -0.8892 H         1 <0>         0.0731
     25 H5         -3.3046   -6.5122    0.9070 H         1 <0>         0.0708
     26 H6         -0.8224   -6.7018    0.8830 H         1 <0>         0.0636
     27 H7         -0.8393   -6.6967   -0.9132 H         1 <0>         0.0649
     28 H8         -1.9071   -4.4477   -0.8967 H         1 <0>         0.0635
     29 H9         -1.8901   -4.4527    0.8994 H         1 <0>         0.0649
     30 H10         0.5922   -4.6423    0.8755 H         1 <0>         0.0731
     31 H11         0.5753   -4.6373   -0.9207 H         1 <0>         0.0709
     32 H12         0.0583   -2.6321    2.1200 H         1 <0>         0.1280
     33 H13         0.0242   -0.1710    2.1360 H         1 <0>         0.1338
     34 H14         0.0179   -2.6187   -2.1446 H         1 <0>         0.1264
     35 H15        -0.0379   -0.5591   -3.3359 H         1 <0>         0.4392
     36 H16        -0.0329    1.9108   -0.9400 H         1 <0>         0.4375
     37 H17        -2.7069  -10.5906    3.3223 H         1 <0>         0.4392
     38 H18        -2.6968  -13.0603    0.9263 H         1 <0>         0.4375
@<TRIPOS>BOND
     1    1    6 ar
     2    1    2 ar
     3    1   21 1
     4    2    3 ar
     5    2   22 1
     6    3    4 ar
     7    3   20 1
     8    4    5 ar
     9    4   19 1
    10    5    6 ar
    11    5   23 1
    12    6    7 1
    13    7    8 1
    14    7   24 1
    15    7   25 1
    16    8    9 1
    17    8   26 1
    18    8   27 1
    19    9   10 1
    20    9   28 1
    21    9   29 1
    22   10   11 1
    23   10   30 1
    24   10   31 1
    25   11   16 ar
    26   11   12 ar
    27   12   13 ar
    28   12   32 1
    29   13   14 ar
    30   13   33 1
    31   14   15 ar
    32   14   18 1
    33   15   16 ar
    34   15   17 1
    35   16   34 1
    36   17   35 1
    37   18   36 1
    38   19   37 1
    39   20   38 1
@<TRIPOS>MOLECULE
ZINC13831338
   48    51     0     0     0
SMALL
USER_CHARGES

@<TRIPOS>ATOM
      1 C1          3.6884   -4.5470    0.7630 C.ar      1 <0>        -0.1011
      2 C2          4.7553   -3.8912    0.1758 C.ar      1 <0>        -0.0894
      3 C3          4.5952   -2.6108   -0.3208 C.ar      1 <0>        -0.1622
      4 C4          3.3684   -1.9823   -0.2319 C.ar      1 <0>        -0.1014
      5 C5          2.2951   -2.6379    0.3571 C.ar      1 <0>         0.1580
      6 C6          2.4594   -3.9244    0.8551 C.ar      1 <0>        -0.0836
      7 N1          1.0523   -2.0045    0.4492 N.pl3     1 <0>        -0.6496
      8 C7         -0.1136   -2.7447    0.3274 C.ar      1 <0>         0.4659
      9 C8         -1.3605   -2.1179    0.3881 C.ar      1 <0>        -0.3243
     10 C9         -2.4952   -2.8950    0.2615 C.ar      1 <0>         0.2163
     11 N2         -2.3694   -4.2025    0.0875 N.ar      1 <0>        -0.5803
     12 C10        -1.1738   -4.7705    0.0338 C.ar      1 <0>         0.5960
     13 N3         -0.0613   -4.0602    0.1458 N.ar      1 <0>        -0.6075
     14 N4         -1.0847   -6.1407   -0.1494 N.pl3     1 <0>        -0.6357
     15 C11        -2.2410   -6.8917   -0.3809 C.ar      1 <0>         0.1846
     16 C12        -3.2942   -6.3427   -1.1026 C.ar      1 <0>        -0.1235
     17 C13        -4.4369   -7.0841   -1.3317 C.ar      1 <0>        -0.0802
     18 C14        -4.5371   -8.3732   -0.8441 C.ar      1 <0>        -0.1359
     19 C15        -3.4882   -8.9276   -0.1216 C.ar      1 <0>         0.1654
     20 C16        -2.3362   -8.1880    0.1047 C.ar      1 <0>        -0.1759
     21 N5         -3.5910  -10.2326    0.3726 N.am      1 <0>        -0.6704
     22 C17        -4.2799  -11.1625   -0.3182 C.2       1 <0>         0.5439
     23 O1         -4.7267  -10.8964   -1.4139 O.2       1 <0>        -0.5155
     24 C18        -4.4949  -12.5329    0.2707 C.3       1 <0>        -0.1994
     25 C19        -3.7732  -13.7079   -0.3922 C.3       1 <0>        -0.1512
     26 C20        -5.2848  -13.5440   -0.5626 C.3       1 <0>        -0.1443
     27 C21         5.7605   -1.9000   -0.9594 C.3       1 <0>         0.5094
     28 F1          6.8854   -2.7313   -0.9323 F         1 <0>        -0.1753
     29 F2          5.4450   -1.5853   -2.2855 F         1 <0>        -0.1758
     30 F3          6.0330   -0.7235   -0.2531 F         1 <0>        -0.1762
     31 H1          3.8157   -5.5487    1.1459 H         1 <0>         0.1381
     32 H2          5.7156   -4.3803    0.1054 H         1 <0>         0.1395
     33 H3          3.2441   -0.9820   -0.6197 H         1 <0>         0.1355
     34 H4          1.6266   -4.4371    1.3134 H         1 <0>         0.1478
     35 H5          1.0057   -1.0472    0.5982 H         1 <0>         0.4256
     36 H6         -1.4355   -1.0501    0.5311 H         1 <0>         0.1455
     37 H7         -3.4746   -2.4418    0.3042 H         1 <0>         0.1731
     38 H8         -0.2200   -6.5791   -0.1170 H         1 <0>         0.4224
     39 H9         -3.2192   -5.3352   -1.4845 H         1 <0>         0.1365
     40 H10        -5.2540   -6.6552   -1.8928 H         1 <0>         0.1295
     41 H11        -5.4321   -8.9501   -1.0246 H         1 <0>         0.1340
     42 H12        -1.5173   -8.6186    0.6618 H         1 <0>         0.1271
     43 H13        -3.1665  -10.4681    1.2124 H         1 <0>         0.4121
     44 H14        -4.6207  -12.5650    1.3530 H         1 <0>         0.1280
     45 H15        -3.1429  -13.4897   -1.2543 H         1 <0>         0.1008
     46 H16        -3.4240  -14.5133    0.2539 H         1 <0>         0.1075
     47 H17        -5.9301  -14.2416   -0.0287 H         1 <0>         0.1064
     48 H18        -5.6490  -13.2180   -1.5369 H         1 <0>         0.1097
@<TRIPOS>BOND
     1    1    6 ar
     2    1    2 ar
     3    1   31 1
     4    2    3 ar
     5    2   32 1
     6    3    4 ar
     7    3   27 1
     8    4    5 ar
     9    4   33 1
    10    5    6 ar
    11    5    7 1
    12    6   34 1
    13    7    8 1
    14    7   35 1
    15    8   13 ar
    16    8    9 ar
    17    9   10 ar
    18    9   36 1
    19   10   11 ar
    20   10   37 1
    21   11   12 ar
    22   12   13 ar
    23   12   14 1
    24   14   15 1
    25   14   38 1
    26   15   20 ar
    27   15   16 ar
    28   16   17 ar
    29   16   39 1
    30   17   18 ar
    31   17   40 1
    32   18   19 ar
    33   18   41 1
    34   19   20 ar
    35   19   21 1
    36   20   42 1
    37   21   22 am
    38   21   43 1
    39   22   23 2
    40   22   24 1
    41   24   26 1
    42   24   25 1
    43   24   44 1
    44   25   26 1
    45   25   45 1
    46   25   46 1
    47   26   47 1
    48   26   48 1
    49   27   28 1
    50   27   29 1
    51   27   30 1
@<TRIPOS>MOLECULE
ZINC03963017
   66    71     0     0     0
SMALL
USER_CHARGES

@<TRIPOS>ATOM
      1 C1         -0.0167    1.3781    0.0096 C.ar      1 <0>        -0.1063
      2 C2          1.1709    2.0855    0.0021 C.ar      1 <0>        -0.1232
      3 C3          2.3773    1.4107   -0.0130 C.ar      1 <0>        -0.0962
      4 C4          2.3960    0.0285   -0.0201 C.ar      1 <0>        -0.1018
      5 C5          1.2084   -0.6789   -0.0117 C.ar      1 <0>        -0.0944
      6 C6          0.0021   -0.0041    0.0020 C.ar      1 <0>        -0.1213
      7 C7          3.7112   -0.7071   -0.0376 C.3       1 <0>         0.1024
      8 O1          4.1410   -0.9464    1.3041 O.3       1 <0>        -0.3076
      9 C8          5.3186   -1.6050    1.4665 C.ar      1 <0>         0.1412
     10 C9          6.0479   -2.0073    0.3556 C.ar      1 <0>        -0.2079
     11 C10         7.2459   -2.6778    0.5157 C.ar      1 <0>        -0.0677
     12 C11         7.7247   -2.9510    1.7813 C.ar      1 <0>        -0.1652
     13 C12         6.9990   -2.5502    2.9023 C.ar      1 <0>         0.0222
     14 C13         5.7938   -1.8696    2.7400 C.ar      1 <0>        -0.1431
     15 C14         7.5106   -2.8422    4.2627 C.2       1 <0>        -0.0825
     16 C15         7.6313   -1.9650    5.2895 C.2       1 <0>         0.0448
     17 N1          8.1415   -2.6066    6.3846 N.pl3     1 <0>        -0.4495
     18 C16         8.3681   -3.9260    6.0991 C.ar      1 <0>         0.3520
     19 C17         7.9804   -4.1397    4.7649 C.ar      1 <0>        -0.2560
     20 C18         8.1078   -5.4257    4.2238 C.ar      1 <0>         0.4975
     21 N2          8.5888   -6.3929    5.0003 N.ar      1 <0>        -0.5974
     22 C19         8.9385   -6.1505    6.2505 C.ar      1 <0>         0.3712
     23 N3          8.8441   -4.9571    6.7960 N.ar      1 <0>        -0.5760
     24 N4          7.7421   -5.6835    2.9146 N.pl3     1 <0>        -0.8272
     25 C20         8.4081   -1.9721    7.6779 C.3       1 <0>         0.1247
     26 C21         7.3583   -0.9215    8.0767 C.3       1 <0>        -0.1335
     27 C22         8.5254   -0.0699    8.6035 C.3       1 <0>        -0.1402
     28 C23         9.4201   -0.8168    7.6003 C.3       1 <0>        -0.1555
     29 C24         8.3799    1.4229    8.3018 C.3       1 <0>         0.0076
     30 N5          9.4750    2.1615    8.9446 N.4       1 <0>        -0.3932
     31 C25        10.7666    1.8381    8.2862 C.3       1 <0>        -0.0071
     32 C26        11.6642    3.0462    8.6539 C.3       1 <0>        -0.1462
     33 C27        10.6820    4.2384    8.5915 C.3       1 <0>        -0.1454
     34 C28         9.2836    3.6169    8.7640 C.3       1 <0>        -0.0090
     35 H1         -0.9591    1.9053    0.0259 H         1 <0>         0.1265
     36 H2          1.1563    3.1654    0.0076 H         1 <0>         0.1263
     37 H3          3.3051    1.9634   -0.0196 H         1 <0>         0.1230
     38 H4          1.2231   -1.7588   -0.0176 H         1 <0>         0.1247
     39 H5         -0.9258   -0.5567    0.0082 H         1 <0>         0.1275
     40 H6          3.5884   -1.6586   -0.5549 H         1 <0>         0.0743
     41 H7          4.4573   -0.1052   -0.5563 H         1 <0>         0.0735
     42 H8          5.6777   -1.7960   -0.6368 H         1 <0>         0.1320
     43 H9          7.8089   -2.9891   -0.3518 H         1 <0>         0.1320
     44 H10         8.6610   -3.4754    1.9031 H         1 <0>         0.1271
     45 H11         5.2297   -1.5534    3.6051 H         1 <0>         0.1311
     46 H12         7.3657   -0.9190    5.2489 H         1 <0>         0.1748
     47 H13         9.3246   -6.9636    6.8472 H         1 <0>         0.2024
     48 H14         7.3924   -4.9694    2.3591 H         1 <0>         0.4135
     49 H15         7.8355   -6.5784    2.5522 H         1 <0>         0.4102
     50 H16         8.6278   -2.6928    8.4656 H         1 <0>         0.1356
     51 H17         6.8417   -0.4760    7.2266 H         1 <0>         0.1025
     52 H18         6.6771   -1.2596    8.8576 H         1 <0>         0.0972
     53 H19         8.7763   -0.2698    9.6453 H         1 <0>         0.1203
     54 H20        10.4034   -1.0703    7.9966 H         1 <0>         0.0911
     55 H21         9.4671   -0.3426    6.6199 H         1 <0>         0.1000
     56 H22         8.4183    1.5812    7.2241 H         1 <0>         0.1302
     57 H23         7.4251    1.7802    8.6877 H         1 <0>         0.1341
     58 H24        11.1822    0.9138    8.6874 H         1 <0>         0.1350
     59 H25        10.6405    1.7673    7.2058 H         1 <0>         0.1324
     60 H26        12.0703    2.9332    9.6591 H         1 <0>         0.0982
     61 H27        12.4651    3.1678    7.9246 H         1 <0>         0.1162
     62 H28        10.8866    4.9399    9.4002 H         1 <0>         0.1053
     63 H29        10.7566    4.7399    7.6266 H         1 <0>         0.1034
     64 H30         8.6815    3.8047    7.8751 H         1 <0>         0.1301
     65 H31         8.7955    4.0390    9.6425 H         1 <0>         0.1325
     66 H32         9.5181    1.9354    9.9270 H         1 <0>         0.4270
@<TRIPOS>BOND
     1    1    6 ar
     2    1    2 ar
     3    1   35 1
     4    2    3 ar
     5    2   36 1
     6    3    4 ar
     7    3   37 1
     8    4    5 ar
     9    4    7 1
    10    5    6 ar
    11    5   38 1
    12    6   39 1
    13    7    8 1
    14    7   40 1
    15    7   41 1
    16    8    9 1
    17    9   14 ar
    18    9   10 ar
    19   10   11 ar
    20   10   42 1
    21   11   12 ar
    22   11   43 1
    23   12   13 ar
    24   12   44 1
    25   13   14 ar
    26   13   15 1
    27   14   45 1
    28   15   19 1
    29   15   16 2
    30   16   17 1
    31   16   46 1
    32   17   18 1
    33   17   25 1
    34   18   23 ar
    35   18   19 ar
    36   19   20 ar
    37   20   21 ar
    38   20   24 1
    39   21   22 ar
    40   22   23 ar
    41   22   47 1
    42   24   48 1
    43   24   49 1
    44   25   28 1
    45   25   26 1
    46   25   50 1
    47   26   27 1
    48   26   51 1
    49   26   52 1
    50   27   28 1
    51   27   29 1
    52   27   53 1
    53   28   54 1
    54   28   55 1
    55   29   30 1
    56   29   56 1
    57   29   57 1
    58   30   34 1
    59   30   31 1
    60   30   66 1
    61   31   32 1
    62   31   58 1
    63   31   59 1
    64   32   33 1
    65   32   60 1
    66   32   61 1
    67   33   34 1
    68   33   62 1
    69   33   63 1
    70   34   64 1
    71   34   65 1
@<TRIPOS>MOLECULE
ZINC06718468
   60    64     0     0     0
SMALL
USER_CHARGES

@<TRIPOS>ATOM
      1 C1         -0.0958    2.0449    0.1864 C.3       1 <0>        -0.1162
      2 C2         -0.1158    0.5568   -0.0503 C.ar      1 <0>        -0.0263
      3 C3         -0.1580    0.0634   -1.3375 C.ar      1 <0>        -0.1780
      4 C4         -0.1767   -1.3108   -1.5650 C.ar      1 <0>         0.2192
      5 C5         -0.1528   -2.1955   -0.5026 C.ar      1 <0>        -0.1734
      6 C6         -0.1095   -1.7058    0.8062 C.ar      1 <0>         0.1181
      7 C7         -0.0861   -0.3174    1.0258 C.ar      1 <0>        -0.0017
      8 N1         -0.0386   -0.1439    2.3999 N.pl3     1 <0>        -0.5817
      9 H1         -0.0164    0.7025    2.8731 H         1 <0>         0.4308
     10 C8         -0.0293   -1.3922    2.9648 C.2       1 <0>         0.3944
     11 N2         -0.0785   -2.3058    2.0220 N.2       1 <0>        -0.5393
     12 C9          0.0172   -1.6677    4.4100 C.2       1 <0>        -0.3013
     13 C10         0.1458   -2.9816    4.8829 C.2       1 <0>         0.3580
     14 C11         0.1866   -3.2003    6.2729 C.2       1 <0>        -0.2732
     15 C12         0.1024   -2.1542    7.1231 C.2       1 <0>         0.1851
     16 N3         -0.0227   -0.8808    6.6652 N.am      1 <0>        -0.6204
     17 H2         -0.0812   -0.1505    7.3008 H         1 <0>         0.4194
     18 C13        -0.0611   -0.6128    5.3467 C.2       1 <0>         0.5565
     19 O1         -0.1683    0.5394    4.9609 O.2       1 <0>        -0.5654
     20 N4          0.2302   -4.0395    4.0028 N.pl3     1 <0>        -0.6842
     21 C14         0.2417   -5.4142    4.5090 C.3       1 <0>         0.0775
     22 C15         0.3412   -6.3894    3.3342 C.3       1 <0>         0.1422
     23 H3         -0.4665   -6.1925    2.6292 H         1 <0>         0.1200
     24 C16         0.2295   -7.8031    3.8440 C.ar      1 <0>        -0.1062
     25 C17         1.3276   -8.4216    4.4126 C.ar      1 <0>        -0.1060
     26 C18         1.2260   -9.7182    4.8804 C.ar      1 <0>        -0.1011
     27 C19         0.0263  -10.3976    4.7797 C.ar      1 <0>        -0.1057
     28 C20        -1.0727   -9.7794    4.2110 C.ar      1 <0>        -0.0314
     29 C21        -0.9720   -8.4791    3.7483 C.ar      1 <0>        -0.0968
     30 Cl1        -2.5797  -10.6319    4.0842 Cl        1 <0>        -0.0630
     31 O2          1.5988   -6.2177    2.6778 O.3       1 <0>        -0.5410
     32 N5         -0.2205   -1.7985   -2.8758 N.pl3     1 <0>        -0.6339
     33 C22        -0.3691   -0.8847   -4.0195 C.3       1 <0>         0.0887
     34 C23         0.7218   -1.2127   -5.0453 C.3       1 <0>         0.0454
     35 O3          0.6848   -2.6109   -5.3409 O.3       1 <0>        -0.3803
     36 C24         0.9599   -3.4537   -4.2194 C.3       1 <0>         0.0459
     37 C25        -0.1131   -3.2400   -3.1516 C.3       1 <0>         0.0883
     38 H4          0.9360    2.3955    0.2083 H         1 <0>         0.0724
     39 H5         -0.6334    2.5480   -0.6174 H         1 <0>         0.0719
     40 H6         -0.5756    2.2677    1.1394 H         1 <0>         0.0613
     41 H7         -0.1770    0.7464   -2.1739 H         1 <0>         0.1288
     42 H8         -0.1677   -3.2602   -0.6830 H         1 <0>         0.1260
     43 H9          0.2849   -4.2040    6.6593 H         1 <0>         0.1530
     44 H10         0.1348   -2.3332    8.1876 H         1 <0>         0.1731
     45 H11         0.2820   -3.8736    3.0485 H         1 <0>         0.4349
     46 H12         1.0985   -5.5514    5.1686 H         1 <0>         0.0768
     47 H13        -0.6775   -5.6052    5.0628 H         1 <0>         0.0840
     48 H14         2.2653   -7.8915    4.4909 H         1 <0>         0.1287
     49 H15         2.0841  -10.2008    5.3245 H         1 <0>         0.1363
     50 H16        -0.0528  -11.4110    5.1447 H         1 <0>         0.1362
     51 H17        -1.8309   -7.9944    3.3082 H         1 <0>         0.1367
     52 H18         2.3644   -6.3772    3.2466 H         1 <0>         0.3755
     53 H19        -1.3514   -1.0198   -4.4722 H         1 <0>         0.0694
     54 H20        -0.2583    0.1461   -3.6826 H         1 <0>         0.0918
     55 H21         0.5466   -0.6429   -5.9579 H         1 <0>         0.1036
     56 H22         1.6976   -0.9530   -4.6348 H         1 <0>         0.0554
     57 H23         0.9560   -4.4962   -4.5377 H         1 <0>         0.1043
     58 H24         1.9365   -3.2022   -3.8059 H         1 <0>         0.0552
     59 H25         0.1671   -3.7683   -2.2403 H         1 <0>         0.0936
     60 H26        -1.0692   -3.6163   -3.5155 H         1 <0>         0.0686
@<TRIPOS>BOND
     1    1    2 1
     2    1   38 1
     3    1   39 1
     4    1   40 1
     5    2    7 ar
     6    2    3 ar
     7    3    4 ar
     8    3   41 1
     9    4    5 ar
    10    4   32 1
    11    5    6 ar
    12    5   42 1
    13    6   11 1
    14    6    7 ar
    15    7    8 1
    16    8    9 1
    17    8   10 1
    18   10   11 2
    19   10   12 1
    20   12   18 1
    21   12   13 2
    22   13   14 1
    23   13   20 1
    24   14   15 2
    25   14   43 1
    26   15   16 1
    27   15   44 1
    28   16   17 1
    29   16   18 am
    30   18   19 2
    31   20   21 1
    32   20   45 1
    33   21   22 1
    34   21   46 1
    35   21   47 1
    36   22   23 1
    37   22   24 1
    38   22   31 1
    39   24   29 ar
    40   24   25 ar
    41   25   26 ar
    42   25   48 1
    43   26   27 ar
    44   26   49 1
    45   27   28 ar
    46   27   50 1
    47   28   29 ar
    48   28   30 1
    49   29   51 1
    50   31   52 1
    51   32   37 1
    52   32   33 1
    53   33   34 1
    54   33   53 1
    55   33   54 1
    56   34   35 1
    57   34   55 1
    58   34   56 1
    59   35   36 1
    60   36   37 1
    61   36   57 1
    62   36   58 1
    63   37   59 1
    64   37   60 1
@<TRIPOS>MOLECULE
ZINC06718468
   60    64     0     0     0
SMALL
USER_CHARGES

@<TRIPOS>ATOM
      1 C1          0.1861    0.9402    0.2320 C.3       1 <0>        -0.1099
      2 C2          0.1885   -0.5661    0.2760 C.ar      1 <0>         0.0105
      3 C3          0.2130   -1.2834   -0.8862 C.ar      1 <0>        -0.1934
      4 C4          0.2155   -2.6762   -0.8597 C.ar      1 <0>         0.2379
      5 C5          0.1931   -3.3524    0.3500 C.ar      1 <0>        -0.2114
      6 C6          0.1681   -2.6355    1.5366 C.ar      1 <0>         0.1009
      7 C7          0.1715   -1.2297    1.5066 C.ar      1 <0>         0.0140
      8 N1          0.1514   -0.8003    2.7941 N.2       1 <0>        -0.5153
      9 C8          0.1414   -1.8338    3.6037 C.2       1 <0>         0.3723
     10 N2          0.1421   -2.9944    2.8723 N.pl3     1 <0>        -0.5878
     11 H1          0.1365   -3.8977    3.2257 H         1 <0>         0.4313
     12 C9          0.1201   -1.7586    5.0739 C.2       1 <0>        -0.2944
     13 C10        -0.0136   -0.5236    5.7239 C.2       1 <0>         0.3534
     14 C11        -0.0298   -0.4970    7.1313 C.2       1 <0>        -0.2716
     15 C12         0.0823   -1.6480    7.8290 C.2       1 <0>         0.1820
     16 N3          0.2123   -2.8452    7.1992 N.am      1 <0>        -0.6203
     17 H2          0.2910   -3.6547    7.7279 H         1 <0>         0.4189
     18 C13         0.2280   -2.9303    5.8560 C.2       1 <0>         0.5553
     19 O1          0.3405   -4.0175    5.3144 O.2       1 <0>        -0.5664
     20 N4         -0.1266    0.6435    4.9980 N.pl3     1 <0>        -0.6861
     21 C14        -0.1433    1.9361    5.6873 C.3       1 <0>         0.0780
     22 C15        -0.2761    3.0609    4.6587 C.3       1 <0>         0.1422
     23 H3          0.5199    2.9729    3.9193 H         1 <0>         0.1199
     24 C16        -0.1701    4.3933    5.3548 C.ar      1 <0>        -0.1060
     25 C17        -1.2638    4.9136    6.0217 C.ar      1 <0>        -0.1059
     26 C18        -1.1674    6.1356    6.6604 C.ar      1 <0>        -0.1011
     27 C19         0.0226    6.8384    6.6324 C.ar      1 <0>        -0.1059
     28 C20         1.1172    6.3184    5.9653 C.ar      1 <0>        -0.0315
     29 C21         1.0218    5.0921    5.3312 C.ar      1 <0>        -0.0968
     30 Cl1         2.6119    7.2005    5.9296 Cl        1 <0>        -0.0631
     31 O2         -1.5442    2.9634    4.0072 O.3       1 <0>        -0.5411
     32 N5          0.2402   -3.3953   -2.0590 N.pl3     1 <0>        -0.6312
     33 C22         0.3654   -4.8615   -2.0606 C.3       1 <0>         0.0865
     34 C23        -0.7404   -5.4402   -2.9506 C.3       1 <0>         0.0458
     35 O3         -0.7012   -4.7983   -4.2274 O.3       1 <0>        -0.3797
     36 C24        -0.9535   -3.3918   -4.1834 C.3       1 <0>         0.0453
     37 C25         0.1357   -2.7087   -3.3563 C.3       1 <0>         0.0882
     38 H4          1.2131    1.3055    0.2367 H         1 <0>         0.0703
     39 H5         -0.3149    1.2764   -0.6758 H         1 <0>         0.0645
     40 H6         -0.3416    1.3283    1.1032 H         1 <0>         0.0739
     41 H7          0.2303   -0.7662   -1.8342 H         1 <0>         0.1282
     42 H8          0.1946   -4.4322    0.3682 H         1 <0>         0.1205
     43 H9         -0.1314    0.4433    7.6528 H         1 <0>         0.1523
     44 H10         0.0686   -1.6162    8.9085 H         1 <0>         0.1725
     45 H11        -0.1949    0.6085    4.0311 H         1 <0>         0.4342
     46 H12        -0.9888    1.9705    6.3745 H         1 <0>         0.0761
     47 H13         0.7842    2.0621    6.2458 H         1 <0>         0.0833
     48 H14        -2.1940    4.3651    6.0433 H         1 <0>         0.1287
     49 H15        -2.0220    6.5415    7.1812 H         1 <0>         0.1361
     50 H16         0.0976    7.7936    7.1308 H         1 <0>         0.1361
     51 H17         1.8773    4.6836    4.8140 H         1 <0>         0.1367
     52 H18        -2.3004    3.0335    4.6059 H         1 <0>         0.3756
     53 H19         1.3408   -5.1463   -2.4550 H         1 <0>         0.0707
     54 H20         0.2549   -5.2405   -1.0446 H         1 <0>         0.0921
     55 H21        -0.5831   -6.5114   -3.0767 H         1 <0>         0.1043
     56 H22        -1.7107   -5.2663   -2.4854 H         1 <0>         0.0557
     57 H23        -0.9495   -2.9893   -5.1964 H         1 <0>         0.1053
     58 H24        -1.9246   -3.2104   -3.7226 H         1 <0>         0.0555
     59 H25        -0.1269   -1.6627   -3.1979 H         1 <0>         0.0936
     60 H26         1.0876   -2.7730   -3.8834 H         1 <0>         0.0702
@<TRIPOS>BOND
     1    1    2 1
     2    1   38 1
     3    1   39 1
     4    1   40 1
     5    2    7 ar
     6    2    3 ar
     7    3    4 ar
     8    3   41 1
     9    4    5 ar
    10    4   32 1
    11    5    6 ar
    12    5   42 1
    13    6   10 1
    14    6    7 ar
    15    7    8 1
    16    8    9 2
    17    9   10 1
    18    9   12 1
    19   10   11 1
    20   12   18 1
    21   12   13 2
    22   13   14 1
    23   13   20 1
    24   14   15 2
    25   14   43 1
    26   15   16 1
    27   15   44 1
    28   16   17 1
    29   16   18 am
    30   18   19 2
    31   20   21 1
    32   20   45 1
    33   21   22 1
    34   21   46 1
    35   21   47 1
    36   22   23 1
    37   22   24 1
    38   22   31 1
    39   24   29 ar
    40   24   25 ar
    41   25   26 ar
    42   25   48 1
    43   26   27 ar
    44   26   49 1
    45   27   28 ar
    46   27   50 1
    47   28   29 ar
    48   28   30 1
    49   29   51 1
    50   31   52 1
    51   32   37 1
    52   32   33 1
    53   33   34 1
    54   33   53 1
    55   33   54 1
    56   34   35 1
    57   34   55 1
    58   34   56 1
    59   35   36 1
    60   36   37 1
    61   36   57 1
    62   36   58 1
    63   37   59 1
    64   37   60 1
@<TRIPOS>MOLECULE
ZINC13816309
   41    43     0     0     0
SMALL
USER_CHARGES

@<TRIPOS>ATOM
      1 C1         -0.0428    1.4700   -0.4556 C.3       1 <0>        -0.1512
      2 C2         -0.0175   -0.0318   -0.3332 C.2       1 <0>         0.2918
      3 C3         -1.1893   -0.6944   -0.2218 C.2       1 <0>        -0.2783
      4 C4         -1.1990   -2.1026   -0.1055 C.2       1 <0>         0.3789
      5 C5          0.0972   -2.8009   -0.1109 C.ar      1 <0>        -0.1379
      6 C6          0.1773   -4.1896   -0.0010 C.ar      1 <0>        -0.0560
      7 C7          1.4004   -4.7996   -0.0106 C.ar      1 <0>        -0.1093
      8 C8          2.5625   -4.0491   -0.1287 C.ar      1 <0>        -0.0248
      9 C9          2.5059   -2.6770   -0.2380 C.ar      1 <0>        -0.1448
     10 C10         1.2708   -2.0349   -0.2309 C.ar      1 <0>         0.1894
     11 N1          1.1791   -0.6662   -0.3446 N.pl3     1 <0>        -0.5499
     12 N2         -2.3464   -2.7780    0.0062 N.am      1 <0>        -0.6334
     13 C11        -3.5024   -2.1175    0.1130 C.2       1 <0>         0.6903
     14 O1         -4.2589   -2.0549   -0.8407 O.2       1 <0>        -0.4754
     15 N3         -3.8325   -1.5204    1.2753 N.am      1 <0>        -0.6371
     16 C12        -5.0923   -0.9263    1.4245 C.ar      1 <0>         0.1138
     17 C13        -6.1589   -1.3533    0.6470 C.ar      1 <0>        -0.0822
     18 C14        -7.4018   -0.7654    0.7966 C.ar      1 <0>        -0.0502
     19 C15        -7.5841    0.2487    1.7203 C.ar      1 <0>        -0.0683
     20 C16        -6.5249    0.6789    2.4978 C.ar      1 <0>        -0.1725
     21 C17        -5.2785    0.0907    2.3580 C.ar      1 <0>         0.1187
     22 O2         -4.2374    0.5094    3.1264 O.3       1 <0>        -0.3212
     23 C18        -4.5017    1.5563    4.0624 C.3       1 <0>         0.0244
     24 Cl1        -8.7359   -1.3005   -0.1769 Cl        1 <0>        -0.0472
     25 H1          0.9771    1.8449   -0.5407 H         1 <0>         0.0965
     26 H2         -0.6091    1.7528   -1.3430 H         1 <0>         0.1212
     27 H3         -0.5149    1.8987    0.4285 H         1 <0>         0.1211
     28 H4         -2.1203   -0.1470   -0.2213 H         1 <0>         0.1764
     29 H5         -0.7226   -4.7795    0.0915 H         1 <0>         0.1463
     30 H6          1.4635   -5.8744    0.0748 H         1 <0>         0.1548
     31 H7          3.5212   -4.5463   -0.1346 H         1 <0>         0.1572
     32 H8          3.4156   -2.1021   -0.3290 H         1 <0>         0.1574
     33 H9         -3.1977   -1.5021    2.0085 H         1 <0>         0.4225
     34 H10        -6.0187   -2.1441   -0.0750 H         1 <0>         0.1634
     35 H11        -8.5561    0.7054    1.8339 H         1 <0>         0.1465
     36 H12        -6.6704    1.4708    3.2176 H         1 <0>         0.1500
     37 H13        -4.8469    2.4420    3.5290 H         1 <0>         0.0634
     38 H14        -5.2708    1.2315    4.7632 H         1 <0>         0.0640
     39 H15        -3.5891    1.7940    4.6090 H         1 <0>         0.1072
     40 H16         1.9913   -0.1430   -0.4309 H         1 <0>         0.4411
     41 H17        -2.3398   -3.7479    0.0097 H         1 <0>         0.4434
@<TRIPOS>BOND
     1    1    2 1
     2    1   25 1
     3    1   26 1
     4    1   27 1
     5    2   11 1
     6    2    3 2
     7    3    4 1
     8    3   28 1
     9    4    5 1
    10    4   12 2
    11    5   10 ar
    12    5    6 ar
    13    6    7 ar
    14    6   29 1
    15    7    8 ar
    16    7   30 1
    17    8    9 ar
    18    8   31 1
    19    9   10 ar
    20    9   32 1
    21   10   11 1
    22   11   40 1
    23   12   13 am
    24   12   41 1
    25   13   14 2
    26   13   15 am
    27   15   16 1
    28   15   33 1
    29   16   21 ar
    30   16   17 ar
    31   17   18 ar
    32   17   34 1
    33   18   19 ar
    34   18   24 1
    35   19   20 ar
    36   19   35 1
    37   20   21 ar
    38   20   36 1
    39   21   22 1
    40   22   23 1
    41   23   37 1
    42   23   38 1
    43   23   39 1
@<TRIPOS>MOLECULE
ZINC13816309
   41    43     0     0     0
SMALL
USER_CHARGES

@<TRIPOS>ATOM
      1 C1         -1.2620    1.1829    0.1867 C.3       1 <0>        -0.1508
      2 C2         -0.5807   -0.1575    0.0855 C.ar      1 <0>         0.2592
      3 C3         -0.5864   -0.8275   -1.1313 C.ar      1 <0>        -0.2046
      4 C4          0.0362   -2.0597   -1.2390 C.ar      1 <0>         0.3379
      5 C5          0.6604   -2.5892   -0.0849 C.ar      1 <0>        -0.1128
      6 C6          1.3121   -3.8302   -0.1123 C.ar      1 <0>        -0.0674
      7 C7          1.9019   -4.3063    1.0197 C.ar      1 <0>        -0.0983
      8 C8          1.8657   -3.5754    2.2049 C.ar      1 <0>        -0.0305
      9 C9          1.2411   -2.3675    2.2657 C.ar      1 <0>        -0.1406
     10 C10         0.6217   -1.8438    1.1176 C.ar      1 <0>         0.1649
     11 N1          0.0059   -0.6565    1.1480 N.ar      1 <0>        -0.4874
     12 N2          0.0471   -2.7550   -2.4433 N.am      1 <0>        -0.6594
     13 C11        -0.0844   -2.0887   -3.6074 C.2       1 <0>         0.7050
     14 O1         -0.1098   -0.8731   -3.6125 O.2       1 <0>        -0.5316
     15 N3         -0.1876   -2.7697   -4.7658 N.am      1 <0>        -0.6485
     16 C12        -0.2039   -2.0795   -5.9855 C.ar      1 <0>         0.1274
     17 C13         0.3779   -0.8240   -6.0816 C.ar      1 <0>        -0.0837
     18 C14         0.3609   -0.1450   -7.2864 C.ar      1 <0>        -0.0514
     19 C15        -0.2359   -0.7154   -8.3969 C.ar      1 <0>        -0.0733
     20 C16        -0.8179   -1.9662   -8.3073 C.ar      1 <0>        -0.1726
     21 C17        -0.7993   -2.6549   -7.1054 C.ar      1 <0>         0.1158
     22 O2         -1.3666   -3.8879   -7.0177 O.3       1 <0>        -0.3198
     23 C18        -1.9586   -4.4157   -8.2064 C.3       1 <0>         0.0250
     24 Cl1         1.0894    1.4262   -7.4056 Cl        1 <0>        -0.0530
     25 H1         -0.5495    1.9718   -0.0543 H         1 <0>         0.1234
     26 H2         -2.0962    1.2203   -0.5139 H         1 <0>         0.1210
     27 H3         -1.6332    1.3261    1.2016 H         1 <0>         0.1018
     28 H4         -1.0745   -0.3895   -1.9894 H         1 <0>         0.2019
     29 H5          1.3461   -4.4057   -1.0256 H         1 <0>         0.1485
     30 H6          2.4035   -5.2625    0.9980 H         1 <0>         0.1546
     31 H7          2.3404   -3.9734    3.0895 H         1 <0>         0.1576
     32 H8          1.2213   -1.8136    3.1926 H         1 <0>         0.1590
     33 H9         -0.2505   -3.7376   -4.7555 H         1 <0>         0.4219
     34 H10         0.8437   -0.3766   -5.2160 H         1 <0>         0.1632
     35 H11        -0.2475   -0.1819   -9.3359 H         1 <0>         0.1445
     36 H12        -1.2836   -2.4084   -9.1757 H         1 <0>         0.1488
     37 H13        -2.3733   -5.4021   -7.9987 H         1 <0>         0.1076
     38 H14        -2.7541   -3.7505   -8.5423 H         1 <0>         0.0626
     39 H15        -1.2001   -4.4970   -8.9849 H         1 <0>         0.0630
     40 H16         0.1493   -3.7196   -2.4455 H         1 <0>         0.4274
     41 H17        -0.0103   -0.1534    1.9772 H         1 <0>         0.4440
@<TRIPOS>BOND
     1    1    2 1
     2    1   25 1
     3    1   26 1
     4    1   27 1
     5    2   11 ar
     6    2    3 ar
     7    3    4 ar
     8    3   28 1
     9    4    5 ar
    10    4   12 1
    11    5   10 ar
    12    5    6 ar
    13    6    7 ar
    14    6   29 1
    15    7    8 ar
    16    7   30 1
    17    8    9 ar
    18    8   31 1
    19    9   10 ar
    20    9   32 1
    21   10   11 ar
    22   11   41 1
    23   12   13 am
    24   12   40 1
    25   13   14 2
    26   13   15 am
    27   15   16 1
    28   15   33 1
    29   16   21 ar
    30   16   17 ar
    31   17   18 ar
    32   17   34 1
    33   18   19 ar
    34   18   24 1
    35   19   20 ar
    36   19   35 1
    37   20   21 ar
    38   20   36 1
    39   21   22 1
    40   22   23 1
    41   23   37 1
    42   23   38 1
    43   23   39 1
@<TRIPOS>MOLECULE
ZINC13816309
   40    42     0     0     0
SMALL
USER_CHARGES

@<TRIPOS>ATOM
      1 C1         -1.2620    1.1829    0.1867 C.3       1 <0>        -0.1068
      2 C2         -0.5807   -0.1575    0.0855 C.ar      1 <0>         0.1829
      3 C3         -0.5864   -0.8275   -1.1313 C.ar      1 <0>        -0.1899
      4 C4          0.0362   -2.0597   -1.2390 C.ar      1 <0>         0.2217
      5 C5          0.6604   -2.5892   -0.0849 C.ar      1 <0>        -0.1243
      6 C6          1.3121   -3.8302   -0.1123 C.ar      1 <0>        -0.0990
      7 C7          1.9019   -4.3063    1.0197 C.ar      1 <0>        -0.1169
      8 C8          1.8657   -3.5754    2.2049 C.ar      1 <0>        -0.0972
      9 C9          1.2411   -2.3675    2.2657 C.ar      1 <0>        -0.0929
     10 C10         0.6217   -1.8438    1.1176 C.ar      1 <0>         0.1542
     11 N1          0.0059   -0.6565    1.1480 N.ar      1 <0>        -0.4925
     12 N2          0.0471   -2.7550   -2.4433 N.am      1 <0>        -0.6680
     13 C11        -0.0844   -2.0887   -3.6074 C.2       1 <0>         0.7061
     14 O1         -0.1098   -0.8731   -3.6125 O.2       1 <0>        -0.5429
     15 N3         -0.1876   -2.7697   -4.7658 N.am      1 <0>        -0.6653
     16 C12        -0.2039   -2.0795   -5.9855 C.ar      1 <0>         0.1479
     17 C13         0.3779   -0.8240   -6.0816 C.ar      1 <0>        -0.0875
     18 C14         0.3609   -0.1450   -7.2864 C.ar      1 <0>        -0.0480
     19 C15        -0.2359   -0.7154   -8.3969 C.ar      1 <0>        -0.0858
     20 C16        -0.8179   -1.9662   -8.3073 C.ar      1 <0>        -0.1741
     21 C17        -0.7993   -2.6549   -7.1054 C.ar      1 <0>         0.1046
     22 O2         -1.3666   -3.8879   -7.0177 O.3       1 <0>        -0.3184
     23 C18        -1.9586   -4.4157   -8.2064 C.3       1 <0>         0.0270
     24 Cl1         1.0894    1.4262   -7.4056 Cl        1 <0>        -0.0600
     25 H1         -0.5495    1.9718   -0.0543 H         1 <0>         0.0836
     26 H2         -2.0962    1.2203   -0.5139 H         1 <0>         0.0779
     27 H3         -1.6332    1.3261    1.2016 H         1 <0>         0.0803
     28 H4         -1.0745   -0.3895   -1.9894 H         1 <0>         0.1611
     29 H5          1.3461   -4.4057   -1.0256 H         1 <0>         0.1216
     30 H6          2.4035   -5.2625    0.9980 H         1 <0>         0.1287
     31 H7          2.3404   -3.9734    3.0895 H         1 <0>         0.1318
     32 H8          1.2213   -1.8136    3.1926 H         1 <0>         0.1384
     33 H9         -0.2505   -3.7376   -4.7555 H         1 <0>         0.4164
     34 H10         0.8437   -0.3766   -5.2160 H         1 <0>         0.1659
     35 H11        -0.2475   -0.1819   -9.3359 H         1 <0>         0.1396
     36 H12        -1.2836   -2.4084   -9.1757 H         1 <0>         0.1440
     37 H13        -2.3733   -5.4021   -7.9987 H         1 <0>         0.1040
     38 H14        -2.7541   -3.7505   -8.5423 H         1 <0>         0.0595
     39 H15        -1.2001   -4.4970   -8.9849 H         1 <0>         0.0595
     40 H16         0.1493   -3.7196   -2.4455 H         1 <0>         0.4126
@<TRIPOS>BOND
     1    1    2 1
     2    1   25 1
     3    1   26 1
     4    1   27 1
     5    2   11 ar
     6    2    3 ar
     7    3    4 ar
     8    3   28 1
     9    4    5 ar
    10    4   12 1
    11    5   10 ar
    12    5    6 ar
    13    6    7 ar
    14    6   29 1
    15    7    8 ar
    16    7   30 1
    17    8    9 ar
    18    8   31 1
    19    9   10 ar
    20    9   32 1
    21   10   11 ar
    22   12   13 am
    23   12   40 1
    24   13   14 2
    25   13   15 am
    26   15   16 1
    27   15   33 1
    28   16   21 ar
    29   16   17 ar
    30   17   18 ar
    31   17   34 1
    32   18   19 ar
    33   18   24 1
    34   19   20 ar
    35   19   35 1
    36   20   21 ar
    37   20   36 1
    38   21   22 1
    39   22   23 1
    40   23   37 1
    41   23   38 1
    42   23   39 1
@<TRIPOS>MOLECULE
ZINC14761282
   30    32     0     0     0
SMALL
USER_CHARGES
2,3,6,8-tetrahydroxy-1-methyl-xanthen-9-one
@<TRIPOS>ATOM
      1 C1         -4.9185    5.5078    0.0779 C.3       1 <0>        -0.1280
      2 C2         -3.5589    6.1577    0.0694 C.ar      1 <0>         0.0027
      3 C3         -2.4048    5.3710    0.0883 C.ar      1 <0>        -0.2276
      4 C4         -1.1351    5.9695    0.0801 C.ar      1 <0>         0.1781
      5 C5         -1.0400    7.3557    0.0535 C.ar      1 <0>        -0.1694
      6 C6         -2.1856    8.1307    0.0344 C.ar      1 <0>         0.1596
      7 C7         -3.4480    7.5321    0.0426 C.ar      1 <0>         0.0442
      8 O1         -4.5676    8.3049    0.0246 O.3       1 <0>        -0.4751
      9 O2         -2.0823    9.4845    0.0080 O.3       1 <0>        -0.4786
     10 O3         -0.0131    5.2197    0.0996 O.3       1 <0>        -0.2248
     11 C8         -0.0194    3.8712    0.1264 C.ar      1 <0>         0.1996
     12 C9          1.1807    3.1742    0.1442 C.ar      1 <0>        -0.1877
     13 C10         1.1827    1.7884    0.1728 C.ar      1 <0>         0.1985
     14 C11        -0.0121    1.0771    0.1840 C.ar      1 <0>        -0.2101
     15 C12        -1.2187    1.7514    0.1609 C.ar      1 <0>         0.2237
     16 C13        -1.2274    3.1533    0.1372 C.ar      1 <0>        -0.2714
     17 C14        -2.4972    3.8983    0.1181 C.2       1 <0>         0.4404
     18 O4         -3.5727    3.3265    0.1261 O.2       1 <0>        -0.4278
     19 O5         -2.3868    1.0612    0.1665 O.3       1 <0>        -0.4737
     20 O6          2.3631    1.1188    0.1904 O.3       1 <0>        -0.4885
     21 H1         -5.1981    5.2636    1.1027 H         1 <0>         0.0812
     22 H2         -5.6520    6.1943   -0.3451 H         1 <0>         0.0771
     23 H3         -4.8888    4.5955   -0.5179 H         1 <0>         0.1005
     24 H4         -0.0693    7.8290    0.0476 H         1 <0>         0.1557
     25 H5         -4.8934    8.5457    0.9026 H         1 <0>         0.3881
     26 H6         -2.0550    9.8940    0.8835 H         1 <0>         0.3991
     27 H7          2.1163    3.7136    0.1362 H         1 <0>         0.1540
     28 H8          0.0026   -0.0026    0.2063 H         1 <0>         0.1507
     29 H9         -2.7320    0.8796    1.0513 H         1 <0>         0.4040
     30 H10         2.7079    0.9062   -0.6877 H         1 <0>         0.4055
@<TRIPOS>BOND
     1    1    2 1
     2    1   21 1
     3    1   22 1
     4    1   23 1
     5    2    7 ar
     6    2    3 ar
     7    3   17 1
     8    3    4 ar
     9    4    5 ar
    10    4   10 1
    11    5    6 ar
    12    5   24 1
    13    6    7 ar
    14    6    9 1
    15    7    8 1
    16    8   25 1
    17    9   26 1
    18   10   11 1
    19   11   16 ar
    20   11   12 ar
    21   12   13 ar
    22   12   27 1
    23   13   14 ar
    24   13   20 1
    25   14   15 ar
    26   14   28 1
    27   15   16 ar
    28   15   19 1
    29   16   17 1
    30   17   18 2
    31   19   29 1
    32   20   30 1
@<TRIPOS>MOLECULE
ZINC53276049
   72    77     0     0     0
SMALL
USER_CHARGES

@<TRIPOS>ATOM
      1 C1         -1.7282   -0.2412    3.4170 C.3       1 <0>        -0.1840
      2 C2         -2.7290    0.3178    2.4036 C.3       1 <0>         0.0223
      3 C3         -2.4399    1.8015    2.1666 C.3       1 <0>        -0.1842
      4 N1         -2.6031   -0.4141    1.1362 N.4       1 <0>        -0.3798
      5 C4         -3.5566    0.1307    0.1615 C.3       1 <0>        -0.0281
      6 C5         -3.3476   -0.5535   -1.1934 C.3       1 <0>         0.1021
      7 N2         -3.4416   -2.0088   -1.0003 N.pl3     1 <0>        -0.6432
      8 C6         -2.6383   -2.6194    0.0702 C.3       1 <0>         0.1029
      9 C7         -2.8808   -1.8376    1.3655 C.3       1 <0>        -0.0278
     10 C8         -4.2720   -2.7902   -1.8116 C.ar      1 <0>         0.2137
     11 C9         -4.2588   -4.1735   -1.6900 C.ar      1 <0>        -0.1996
     12 C10        -5.0782   -4.9471   -2.4897 C.ar      1 <0>        -0.0315
     13 C11        -5.9157   -4.3432   -3.4158 C.ar      1 <0>         0.1164
     14 C12        -5.9308   -2.9559   -3.5397 C.ar      1 <0>         0.1448
     15 C13        -5.1129   -2.1817   -2.7338 C.ar      1 <0>        -0.2557
     16 O1         -6.7513   -2.3622   -4.4472 O.3       1 <0>        -0.3100
     17 C14        -6.7143   -0.9355   -4.5195 C.3       1 <0>         0.0294
     18 N3         -6.7472   -5.1296   -4.2279 N.pl3     1 <0>        -0.6283
     19 C15        -7.2811   -6.3094   -3.7357 C.ar      1 <0>         0.6194
     20 N4         -7.0984   -6.6069   -2.4599 N.ar      1 <0>        -0.6113
     21 C16        -7.5951   -7.7314   -1.9468 C.ar      1 <0>         0.3807
     22 C17        -8.3177   -8.5956   -2.7897 C.ar      1 <0>        -0.2975
     23 C18        -8.7298   -9.7263   -1.9588 C.2       1 <0>        -0.1539
     24 C19        -8.2573   -9.4936   -0.7239 C.2       1 <0>         0.0298
     25 N5         -7.5761   -8.3022   -0.7039 N.pl3     1 <0>        -0.5712
     26 H1         -7.1449   -7.9209    0.0768 H         1 <0>         0.4194
     27 C20        -8.4876   -8.2401   -4.1370 C.ar      1 <0>         0.5221
     28 N6         -7.9610   -7.0956   -4.5611 N.ar      1 <0>        -0.6143
     29 N7         -9.1905   -9.0596   -5.0022 N.pl3     1 <0>        -0.6351
     30 C21        -9.4210   -8.6509   -6.3219 C.ar      1 <0>         0.0878
     31 C22        -8.4704   -7.8954   -6.9868 C.ar      1 <0>        -0.0702
     32 C23        -8.6934   -7.4892   -8.2892 C.ar      1 <0>        -0.1547
     33 C24        -9.8681   -7.8390   -8.9284 C.ar      1 <0>        -0.0729
     34 C25       -10.8222   -8.5941   -8.2704 C.ar      1 <0>        -0.1577
     35 C26       -10.6114   -9.0128   -6.9683 C.ar      1 <0>         0.1746
     36 N8        -11.6871   -9.7665   -6.4879 N.pl3     1 <0>        -0.7481
     37 C27       -12.7166   -9.8884   -7.5237 C.3       1 <0>         0.1199
     38 C28       -12.1699   -9.1050   -8.7284 C.3       1 <0>        -0.0838
     39 H2         -1.8217    0.3020    4.3574 H         1 <0>         0.1064
     40 H3         -1.9342   -1.2981    3.5859 H         1 <0>         0.0819
     41 H4         -0.7160   -0.1256    3.0297 H         1 <0>         0.0818
     42 H5         -3.7412    0.2023    2.7909 H         1 <0>         0.1353
     43 H6         -1.4276    1.9170    1.7793 H         1 <0>         0.0818
     44 H7         -3.1528    2.1997    1.4446 H         1 <0>         0.0816
     45 H8         -2.5333    2.3446    3.1070 H         1 <0>         0.1064
     46 H9         -4.5740   -0.0513    0.5076 H         1 <0>         0.1318
     47 H10        -3.3951    1.2035    0.0557 H         1 <0>         0.1418
     48 H11        -4.1179   -0.2262   -1.8917 H         1 <0>         0.1231
     49 H12        -2.3625   -0.2988   -1.5843 H         1 <0>         0.0870
     50 H13        -2.9397   -3.6579    0.2073 H         1 <0>         0.1275
     51 H14        -1.5816   -2.5733   -0.1931 H         1 <0>         0.0866
     52 H15        -2.2213   -2.2153    2.1469 H         1 <0>         0.1421
     53 H16        -3.9187   -1.9602    1.6751 H         1 <0>         0.1320
     54 H17        -3.6070   -4.6453   -0.9696 H         1 <0>         0.1246
     55 H18        -5.0662   -6.0227   -2.3938 H         1 <0>         0.1468
     56 H19        -5.1261   -1.1057   -2.8255 H         1 <0>         0.1309
     57 H20        -6.9936   -0.5154   -3.5533 H         1 <0>         0.0532
     58 H21        -5.7067   -0.6109   -4.7793 H         1 <0>         0.0556
     59 H22        -7.4144   -0.5921   -5.2811 H         1 <0>         0.1051
     60 H23        -6.9481   -4.8470   -5.1338 H         1 <0>         0.4278
     61 H24        -9.3043  -10.5836   -2.2774 H         1 <0>         0.1478
     62 H25        -8.3933  -10.1456    0.1262 H         1 <0>         0.1794
     63 H26        -9.5236   -9.9171   -4.6948 H         1 <0>         0.4170
     64 H27        -7.5529   -7.6224   -6.4869 H         1 <0>         0.1447
     65 H28        -7.9512   -6.8992   -8.8064 H         1 <0>         0.1245
     66 H29       -10.0419   -7.5211   -9.9458 H         1 <0>         0.1208
     67 H30       -11.7434  -10.1522   -5.5997 H         1 <0>         0.4081
     68 H31       -12.8705  -10.9360   -7.7825 H         1 <0>         0.0686
     69 H32       -13.6504   -9.4409   -7.1833 H         1 <0>         0.0660
     70 H33       -12.8259   -8.2723   -8.9822 H         1 <0>         0.0851
     71 H34       -12.0534   -9.7723   -9.5823 H         1 <0>         0.0844
     72 H35        -1.6648   -0.3089    0.7802 H         1 <0>         0.4200
@<TRIPOS>BOND
     1    1    2 1
     2    1   39 1
     3    1   40 1
     4    1   41 1
     5    2    3 1
     6    2    4 1
     7    2   42 1
     8    3   43 1
     9    3   44 1
    10    3   45 1
    11    4    9 1
    12    4    5 1
    13    4   72 1
    14    5    6 1
    15    5   46 1
    16    5   47 1
    17    6    7 1
    18    6   48 1
    19    6   49 1
    20    7    8 1
    21    7   10 1
    22    8    9 1
    23    8   50 1
    24    8   51 1
    25    9   52 1
    26    9   53 1
    27   10   15 ar
    28   10   11 ar
    29   11   12 ar
    30   11   54 1
    31   12   13 ar
    32   12   55 1
    33   13   14 ar
    34   13   18 1
    35   14   15 ar
    36   14   16 1
    37   15   56 1
    38   16   17 1
    39   17   57 1
    40   17   58 1
    41   17   59 1
    42   18   19 1
    43   18   60 1
    44   19   28 ar
    45   19   20 ar
    46   20   21 ar
    47   21   25 1
    48   21   22 ar
    49   22   23 1
    50   22   27 ar
    51   23   24 2
    52   23   61 1
    53   24   25 1
    54   24   62 1
    55   25   26 1
    56   27   28 ar
    57   27   29 1
    58   29   30 1
    59   29   63 1
    60   30   35 ar
    61   30   31 ar
    62   31   32 ar
    63   31   64 1
    64   32   33 ar
    65   32   65 1
    66   33   34 ar
    67   33   66 1
    68   34   38 1
    69   34   35 ar
    70   35   36 1
    71   36   37 1
    72   36   67 1
    73   37   38 1
    74   37   68 1
    75   37   69 1
    76   38   70 1
    77   38   71 1
@<TRIPOS>MOLECULE
ZINC53276049
   71    76     0     0     0
SMALL
USER_CHARGES

@<TRIPOS>ATOM
      1 C1          0.0976    1.5856    0.3189 C.3       1 <0>        -0.1464
      2 C2          0.1258    0.0559    0.3015 C.3       1 <0>         0.0759
      3 C3          0.8239   -0.4556    1.5633 C.3       1 <0>        -0.1876
      4 N1         -1.2494   -0.4588    0.2599 N.3       1 <0>        -0.5299
      5 C4         -2.0085   -0.0288    1.4418 C.3       1 <0>         0.0330
      6 C5         -3.4780   -0.4296    1.2746 C.3       1 <0>         0.1268
      7 N2         -3.5394   -1.8706    0.9864 N.pl3     1 <0>        -0.6288
      8 C6         -2.6991   -2.3997   -0.0985 C.3       1 <0>         0.1279
      9 C7         -1.2602   -1.9214    0.1228 C.3       1 <0>         0.0381
     10 C8         -4.3748   -2.7158    1.7253 C.ar      1 <0>         0.2427
     11 C9         -5.0711   -2.2199    2.8197 C.ar      1 <0>        -0.2163
     12 C10        -5.8970   -3.0526    3.5505 C.ar      1 <0>        -0.0256
     13 C11        -6.0321   -4.3857    3.1923 C.ar      1 <0>         0.0842
     14 C12        -5.3347   -4.8854    2.0949 C.ar      1 <0>         0.1483
     15 C13        -4.5115   -4.0485    1.3603 C.ar      1 <0>        -0.2698
     16 O1         -5.4661   -6.1922    1.7424 O.3       1 <0>        -0.3158
     17 C14        -4.7212   -6.6357    0.6064 C.3       1 <0>         0.0305
     18 N3         -6.8707   -5.2307    3.9352 N.pl3     1 <0>        -0.6237
     19 C15        -8.0255   -4.7278    4.5121 C.ar      1 <0>         0.6214
     20 N4         -8.3819   -3.4831    4.2413 N.ar      1 <0>        -0.6061
     21 C16        -9.4851   -2.9611    4.7752 C.ar      1 <0>         0.3846
     22 C17       -10.2629   -3.7607    5.6325 C.ar      1 <0>        -0.3024
     23 C18       -11.3895   -2.9299    6.0556 C.2       1 <0>        -0.1573
     24 C19       -11.2369   -1.7361    5.4606 C.2       1 <0>         0.0290
     25 N5        -10.1003   -1.7423    4.6913 N.pl3     1 <0>        -0.5722
     26 H1         -9.7805   -0.9927    4.1652 H         1 <0>         0.4208
     27 C20        -9.8474   -5.0763    5.8918 C.ar      1 <0>         0.5189
     28 N6         -8.7350   -5.5151    5.3111 N.ar      1 <0>        -0.6168
     29 N7        -10.5807   -5.8983    6.7288 N.pl3     1 <0>        -0.6391
     30 C21       -10.1974   -7.2330    6.9114 C.ar      1 <0>         0.0943
     31 C22        -8.8556   -7.5735    6.9022 C.ar      1 <0>        -0.0706
     32 C23        -8.4721   -8.8895    7.0815 C.ar      1 <0>        -0.1531
     33 C24        -9.4312   -9.8668    7.2709 C.ar      1 <0>        -0.0762
     34 C25       -10.7737   -9.5339    7.2817 C.ar      1 <0>        -0.1596
     35 C26       -11.1732   -8.2203    7.1088 C.ar      1 <0>         0.1714
     36 N8        -12.5651   -8.0933    7.1586 N.pl3     1 <0>        -0.7491
     37 C27       -13.1807   -9.4034    7.3869 C.3       1 <0>         0.1210
     38 C28       -12.0056  -10.3918    7.4650 C.3       1 <0>        -0.0825
     39 H2          1.1180    1.9675    0.3497 H         1 <0>         0.0606
     40 H3         -0.3997    1.9500   -0.5800 H         1 <0>         0.0642
     41 H4         -0.4457    1.9290    1.1992 H         1 <0>         0.0561
     42 H5          0.6691   -0.2875   -0.5788 H         1 <0>         0.0836
     43 H6          0.2806   -0.1122    2.4436 H         1 <0>         0.0576
     44 H7          0.8440   -1.5453    1.5509 H         1 <0>         0.0551
     45 H8          1.8443   -0.0737    1.5942 H         1 <0>         0.0625
     46 H9         -1.5995   -0.5085    2.3310 H         1 <0>         0.0418
     47 H10        -1.9363    1.0538    1.5463 H         1 <0>         0.0885
     48 H11        -4.0226   -0.2166    2.1944 H         1 <0>         0.0869
     49 H12        -3.9179    0.1281    0.4478 H         1 <0>         0.0685
     50 H13        -2.7286   -3.4893   -0.0864 H         1 <0>         0.0821
     51 H14        -3.0641   -2.0313   -1.0572 H         1 <0>         0.0686
     52 H15        -0.6454   -2.2113   -0.7293 H         1 <0>         0.0837
     53 H16        -0.8617   -2.3747    1.0304 H         1 <0>         0.0413
     54 H17        -4.9668   -1.1823    3.1002 H         1 <0>         0.1237
     55 H18        -6.4374   -2.6651    4.4015 H         1 <0>         0.1397
     56 H19        -3.9732   -4.4330    0.5067 H         1 <0>         0.1306
     57 H20        -5.0223   -6.0638   -0.2714 H         1 <0>         0.0546
     58 H21        -3.6569   -6.4872    0.7892 H         1 <0>         0.0542
     59 H22        -4.9161   -7.6943    0.4348 H         1 <0>         0.0994
     60 H23        -6.6417   -6.1668    4.0449 H         1 <0>         0.4241
     61 H24       -12.1905   -3.2209    6.7190 H         1 <0>         0.1451
     62 H25       -11.9080   -0.8971    5.5704 H         1 <0>         0.1770
     63 H26       -11.3604   -5.5503    7.1891 H         1 <0>         0.4154
     64 H27        -8.1068   -6.8095    6.7542 H         1 <0>         0.1464
     65 H28        -7.4250   -9.1537    7.0734 H         1 <0>         0.1242
     66 H29        -9.1310  -10.8948    7.4106 H         1 <0>         0.1191
     67 H30       -13.0516   -7.2602    7.0571 H         1 <0>         0.4079
     68 H31       -13.7438   -9.3992    8.3202 H         1 <0>         0.0666
     69 H32       -13.8313   -9.6662    6.5529 H         1 <0>         0.0645
     70 H33       -12.0705  -11.1380    6.6732 H         1 <0>         0.0838
     71 H34       -11.9912  -10.8738    8.4426 H         1 <0>         0.0826
@<TRIPOS>BOND
     1    1    2 1
     2    1   39 1
     3    1   40 1
     4    1   41 1
     5    2    3 1
     6    2    4 1
     7    2   42 1
     8    3   43 1
     9    3   44 1
    10    3   45 1
    11    4    9 1
    12    4    5 1
    13    5    6 1
    14    5   46 1
    15    5   47 1
    16    6    7 1
    17    6   48 1
    18    6   49 1
    19    7    8 1
    20    7   10 1
    21    8    9 1
    22    8   50 1
    23    8   51 1
    24    9   52 1
    25    9   53 1
    26   10   15 ar
    27   10   11 ar
    28   11   12 ar
    29   11   54 1
    30   12   13 ar
    31   12   55 1
    32   13   14 ar
    33   13   18 1
    34   14   15 ar
    35   14   16 1
    36   15   56 1
    37   16   17 1
    38   17   57 1
    39   17   58 1
    40   17   59 1
    41   18   19 1
    42   18   60 1
    43   19   28 ar
    44   19   20 ar
    45   20   21 ar
    46   21   25 1
    47   21   22 ar
    48   22   23 1
    49   22   27 ar
    50   23   24 2
    51   23   61 1
    52   24   25 1
    53   24   62 1
    54   25   26 1
    55   27   28 ar
    56   27   29 1
    57   29   30 1
    58   29   63 1
    59   30   35 ar
    60   30   31 ar
    61   31   32 ar
    62   31   64 1
    63   32   33 ar
    64   32   65 1
    65   33   34 ar
    66   33   66 1
    67   34   38 1
    68   34   35 ar
    69   35   36 1
    70   36   37 1
    71   36   67 1
    72   37   38 1
    73   37   68 1
    74   37   69 1
    75   38   70 1
    76   38   71 1
@<TRIPOS>MOLECULE
ZINC02064362
   45    48     0     0     0
SMALL
USER_CHARGES

@<TRIPOS>ATOM
      1 C1         -0.0050    1.2556    1.2013 C.ar      1 <0>        -0.1135
      2 C2          1.1644    1.9682    1.4276 C.ar      1 <0>        -0.0914
      3 C3          2.3809    1.3155    1.3532 C.ar      1 <0>        -0.0693
      4 C4          2.4105   -0.0253    1.0571 C.ar      1 <0>        -0.1422
      5 C5          1.2364   -0.7790    0.8214 C.ar      1 <0>         0.0755
      6 C6          0.0132   -0.0718    0.9074 C.ar      1 <0>        -0.0571
      7 N1          1.4257   -2.0836    0.5426 N.2       1 <0>        -0.4791
      8 C7          2.6216   -2.6293    0.4909 C.2       1 <0>         0.2034
      9 S1          3.6884   -1.2436    0.8607 S.3       1 <0>         0.0045
     10 C8          2.9893   -4.0306    0.2016 C.ar      1 <0>        -0.0452
     11 C9          4.3300   -4.4171    0.1996 C.ar      1 <0>        -0.0268
     12 C10         4.6675   -5.7327   -0.0720 C.ar      1 <0>         0.1075
     13 C11         3.6736   -6.6665   -0.3423 C.ar      1 <0>        -0.0765
     14 C12         2.3451   -6.2898   -0.3416 C.ar      1 <0>        -0.1412
     15 C13         1.9935   -4.9778   -0.0658 C.ar      1 <0>         0.1730
     16 O1          0.6857   -4.6105   -0.0601 O.3       1 <0>        -0.4731
     17 N2          6.0129   -6.1230   -0.0746 N.pl3     1 <0>        -0.6175
     18 C14         6.8486   -5.6676    0.8798 C.2       1 <0>         0.5033
     19 S2          6.2386   -4.7282    2.1745 S.2       1 <0>        -0.4611
     20 N3          8.1645   -5.9517    0.8148 N.am      1 <0>        -0.6375
     21 C15         9.0001   -5.4963    1.7691 C.2       1 <0>         0.5323
     22 O2          8.5671   -4.8295    2.6882 O.2       1 <0>        -0.3823
     23 C16        10.4429   -5.8078    1.6979 C.ar      1 <0>        -0.0854
     24 C17        10.9445   -6.5687    0.6403 C.ar      1 <0>        -0.0906
     25 C18        12.2925   -6.8554    0.5796 C.ar      1 <0>        -0.0578
     26 C19        13.1468   -6.3907    1.5639 C.ar      1 <0>        -0.0229
     27 C20        12.6562   -5.6365    2.6151 C.ar      1 <0>        -0.0551
     28 C21        11.3113   -5.3376    2.6848 C.ar      1 <0>        -0.0518
     29 N4         14.5921   -6.7023    1.4923 N.pl3     1 <0>         0.0261
     30 O3         15.0236   -7.3615    0.5752 O.2       1 <0>        -0.1476
     31 O4         15.3410   -6.2977    2.3508 O.3       1 <0>        -0.1442
     32 H1         -0.9538    1.7675    1.2646 H         1 <0>         0.1351
     33 H2          1.1245    3.0224    1.6590 H         1 <0>         0.1398
     34 H3          3.3001    1.8554    1.5262 H         1 <0>         0.1345
     35 H4         -0.9172   -0.5932    0.7378 H         1 <0>         0.1340
     36 H5          5.1026   -3.6922    0.4088 H         1 <0>         0.1504
     37 H6          3.9418   -7.6910   -0.5542 H         1 <0>         0.1389
     38 H7          1.5779   -7.0200   -0.5528 H         1 <0>         0.1473
     39 H8          0.3569   -4.3134   -0.9196 H         1 <0>         0.3968
     40 H9          6.3431   -6.7210   -0.7633 H         1 <0>         0.4113
     41 H10         8.5101   -6.4839    0.0812 H         1 <0>         0.4110
     42 H11        10.2787   -6.9323   -0.1284 H         1 <0>         0.1470
     43 H12        12.6819   -7.4442   -0.2377 H         1 <0>         0.1638
     44 H13        13.3283   -5.2775    3.3804 H         1 <0>         0.1666
     45 H14        10.9303   -4.7451    3.5034 H         1 <0>         0.1667
@<TRIPOS>BOND
     1    1    6 ar
     2    1    2 ar
     3    1   32 1
     4    2    3 ar
     5    2   33 1
     6    3    4 ar
     7    3   34 1
     8    4    9 1
     9    4    5 ar
    10    5    6 ar
    11    5    7 1
    12    6   35 1
    13    7    8 2
    14    8    9 1
    15    8   10 1
    16   10   15 ar
    17   10   11 ar
    18   11   12 ar
    19   11   36 1
    20   12   13 ar
    21   12   17 1
    22   13   14 ar
    23   13   37 1
    24   14   15 ar
    25   14   38 1
    26   15   16 1
    27   16   39 1
    28   17   18 1
    29   17   40 1
    30   18   19 2
    31   18   20 1
    32   20   21 am
    33   20   41 1
    34   21   22 2
    35   21   23 1
    36   23   28 ar
    37   23   24 ar
    38   24   25 ar
    39   24   42 1
    40   25   26 ar
    41   25   43 1
    42   26   27 ar
    43   26   29 1
    44   27   28 ar
    45   27   44 1
    46   28   45 1
    47   29   30 2
    48   29   31 1
@<TRIPOS>MOLECULE
ZINC43202844
   69    73     0     0     0
SMALL
USER_CHARGES

@<TRIPOS>ATOM
      1 C1          0.0444    1.5338   -0.2143 C.3       1 <0>         0.0837
      2 N1          0.2311    0.0819   -0.1562 N.am      1 <0>        -0.7275
      3 C2          0.3054   -0.6341   -1.2956 C.2       1 <0>         0.5630
      4 O1          0.2176   -0.0749   -2.3720 O.2       1 <0>        -0.5155
      5 C3          0.4931   -2.0941   -1.2372 C.ar      1 <0>        -0.1988
      6 C4         -0.6202   -2.9489   -1.1967 C.ar      1 <0>         0.2153
      7 C5         -0.4304   -4.3228   -1.1418 C.ar      1 <0>        -0.1276
      8 C6          0.8476   -4.8461   -1.1270 C.ar      1 <0>        -0.0528
      9 C7          1.9492   -4.0089   -1.1662 C.ar      1 <0>        -0.1679
     10 C8          1.7820   -2.6388   -1.2274 C.ar      1 <0>         0.1531
     11 F1          2.8606   -1.8265   -1.2720 F         1 <0>        -0.1266
     12 N2         -1.9068   -2.4214   -1.2112 N.pl3     1 <0>        -0.6365
     13 C9         -2.9248   -3.0973   -1.8623 C.ar      1 <0>         0.5212
     14 C10        -4.2051   -2.5325   -1.9745 C.ar      1 <0>        -0.2893
     15 C11        -4.8245   -1.2809   -1.5407 C.2       1 <0>        -0.1501
     16 C12        -6.1020   -1.3166   -1.9522 C.2       1 <0>         0.0304
     17 N3         -6.3441   -2.4941   -2.6144 N.pl3     1 <0>        -0.5686
     18 H1         -7.1953   -2.7486   -3.0037 H         1 <0>         0.4169
     19 C13        -5.2084   -3.2559   -2.6447 C.ar      1 <0>         0.3860
     20 N4         -4.9053   -4.4516   -3.1480 N.ar      1 <0>        -0.5937
     21 C14        -3.6863   -4.9476   -3.0199 C.ar      1 <0>         0.6168
     22 N5         -2.7114   -4.2934   -2.4003 N.ar      1 <0>        -0.6100
     23 N6         -3.4145   -6.1953   -3.5583 N.pl3     1 <0>        -0.6216
     24 C15        -4.3817   -6.8504   -4.3305 C.ar      1 <0>         0.1714
     25 C16        -5.3531   -6.1176   -4.9899 C.ar      1 <0>        -0.0957
     26 C17        -6.3200   -6.7637   -5.7612 C.ar      1 <0>         0.0987
     27 C18        -6.2945   -8.1459   -5.8584 C.ar      1 <0>        -0.1043
     28 C19        -5.3245   -8.8804   -5.2008 C.ar      1 <0>        -0.1496
     29 C20        -4.3621   -8.2391   -4.4393 C.ar      1 <0>         0.0986
     30 O2         -3.4050   -8.9620   -3.7969 O.3       1 <0>        -0.3131
     31 C21        -3.4487  -10.3815   -3.9551 C.3       1 <0>         0.0267
     32 C22        -7.4385   -8.5874   -6.7438 C.3       1 <0>        -0.0870
     33 C23        -8.1386   -7.2816   -7.1532 C.3       1 <0>         0.0904
     34 N7         -7.3766   -6.2149   -6.4986 N.am      1 <0>        -0.5220
     35 C24        -7.6523   -4.8990   -6.5920 C.2       1 <0>         0.5014
     36 O3         -6.9594   -4.0913   -6.0099 O.2       1 <0>        -0.5079
     37 C25        -8.8214   -4.4309   -7.4197 C.3       1 <0>        -0.0275
     38 N8         -8.9081   -2.9657   -7.3603 N.4       1 <0>        -0.3725
     39 C26        -7.7214   -2.3788   -7.9970 C.3       1 <0>        -0.0606
     40 C27       -10.1153   -2.5175   -8.0673 C.3       1 <0>        -0.0472
     41 H2          0.8758    1.9856   -0.7554 H         1 <0>         0.0645
     42 H3         -0.8896    1.7598   -0.7287 H         1 <0>         0.0626
     43 H4          0.0082    1.9363    0.7981 H         1 <0>         0.0817
     44 H5          0.3011   -0.3641    0.7023 H         1 <0>         0.4054
     45 H6         -1.2838   -4.9839   -1.1102 H         1 <0>         0.1570
     46 H7          0.9884   -5.9160   -1.0841 H         1 <0>         0.1431
     47 H8          2.9441   -4.4289   -1.1538 H         1 <0>         0.1451
     48 H9         -2.0911   -1.5800   -0.7652 H         1 <0>         0.4238
     49 H10        -4.3464   -0.4815   -0.9941 H         1 <0>         0.1496
     50 H11        -6.8299   -0.5362   -1.7866 H         1 <0>         0.1805
     51 H12        -2.5543   -6.6148   -3.4002 H         1 <0>         0.4328
     52 H13        -5.3631   -5.0408   -4.9069 H         1 <0>         0.1823
     53 H14        -5.3157   -9.9571   -5.2842 H         1 <0>         0.1418
     54 H15        -3.3461  -10.6328   -5.0108 H         1 <0>         0.0589
     55 H16        -2.6325  -10.8350   -3.3927 H         1 <0>         0.1063
     56 H17        -4.4007  -10.7596   -3.5824 H         1 <0>         0.0585
     57 H18        -7.0593   -9.1074   -7.6235 H         1 <0>         0.1000
     58 H19        -8.1236   -9.2280   -6.1884 H         1 <0>         0.0996
     59 H20        -8.1069   -7.1590   -8.2359 H         1 <0>         0.0924
     60 H21        -9.1703   -7.2795   -6.8018 H         1 <0>         0.0924
     61 H22        -8.6830   -4.7451   -8.4543 H         1 <0>         0.1604
     62 H23        -9.7411   -4.8655   -7.0280 H         1 <0>         0.1607
     63 H24        -7.7858   -1.2916   -7.9529 H         1 <0>         0.1275
     64 H25        -6.8257   -2.7113   -7.4724 H         1 <0>         0.1396
     65 H26        -7.6724   -2.6979   -9.0381 H         1 <0>         0.1203
     66 H27       -10.9957   -2.9530   -7.5949 H         1 <0>         0.1255
     67 H28       -10.1796   -1.4303   -8.0232 H         1 <0>         0.1306
     68 H29       -10.0662   -2.8367   -9.1084 H         1 <0>         0.1251
     69 H30        -8.9535   -2.6703   -6.3966 H         1 <0>         0.4323
@<TRIPOS>BOND
     1    1    2 1
     2    1   41 1
     3    1   42 1
     4    1   43 1
     5    2    3 am
     6    2   44 1
     7    3    4 2
     8    3    5 1
     9    5   10 ar
    10    5    6 ar
    11    6    7 ar
    12    6   12 1
    13    7    8 ar
    14    7   45 1
    15    8    9 ar
    16    8   46 1
    17    9   10 ar
    18    9   47 1
    19   10   11 1
    20   12   13 1
    21   12   48 1
    22   13   22 ar
    23   13   14 ar
    24   14   19 ar
    25   14   15 1
    26   15   16 2
    27   15   49 1
    28   16   17 1
    29   16   50 1
    30   17   18 1
    31   17   19 1
    32   19   20 ar
    33   20   21 ar
    34   21   22 ar
    35   21   23 1
    36   23   24 1
    37   23   51 1
    38   24   29 ar
    39   24   25 ar
    40   25   26 ar
    41   25   52 1
    42   26   34 1
    43   26   27 ar
    44   27   28 ar
    45   27   32 1
    46   28   29 ar
    47   28   53 1
    48   29   30 1
    49   30   31 1
    50   31   54 1
    51   31   55 1
    52   31   56 1
    53   32   33 1
    54   32   57 1
    55   32   58 1
    56   33   34 1
    57   33   59 1
    58   33   60 1
    59   34   35 am
    60   35   36 2
    61   35   37 1
    62   37   38 1
    63   37   61 1
    64   37   62 1
    65   38   39 1
    66   38   40 1
    67   38   69 1
    68   39   63 1
    69   39   64 1
    70   39   65 1
    71   40   66 1
    72   40   67 1
    73   40   68 1
@<TRIPOS>MOLECULE
ZINC01468126
   37    39     0     0     0
SMALL
USER_CHARGES
(3E)-3-[(4-isopropylphenyl)methylene]indolin-2-one
@<TRIPOS>ATOM
      1 C1          3.1160    3.1355   -2.6209 C.3       1 <0>        -0.1470
      2 C2          3.1715    2.7123   -1.1516 C.3       1 <0>        -0.0613
      3 C3          3.0941    3.9534   -0.2602 C.3       1 <0>        -0.1468
      4 C4          2.0101    1.8017   -0.8470 C.ar      1 <0>        -0.0572
      5 C5          0.7143    2.2584   -1.0172 C.ar      1 <0>        -0.1233
      6 C6         -0.3538    1.4322   -0.7409 C.ar      1 <0>        -0.0818
      7 C7         -0.1253    0.1275   -0.2868 C.ar      1 <0>        -0.0919
      8 C8          1.1885   -0.3263   -0.1174 C.ar      1 <0>        -0.0862
      9 C9          2.2450    0.5133   -0.3984 C.ar      1 <0>        -0.1227
     10 C10        -1.2568   -0.7595    0.0105 C.2       1 <0>         0.0245
     11 C11        -2.3320   -0.2847    0.7008 C.2       1 <0>        -0.1592
     12 C12        -2.4462    1.0083    1.4136 C.ar      1 <0>        -0.1116
     13 C13        -1.5723    2.0741    1.5996 C.ar      1 <0>        -0.0679
     14 C14        -1.9770    3.1712    2.3332 C.ar      1 <0>        -0.1451
     15 C15        -3.2485    3.2094    2.8807 C.ar      1 <0>        -0.0803
     16 C16        -4.1256    2.1599    2.6956 C.ar      1 <0>        -0.1414
     17 C17        -3.7343    1.0441    1.9635 C.ar      1 <0>         0.1430
     18 N1         -4.4024   -0.1323    1.6438 N.am      1 <0>        -0.6671
     19 C18        -3.6319   -0.9494    0.9058 C.2       1 <0>         0.5669
     20 O1         -3.9509   -2.0448    0.4815 O.2       1 <0>        -0.5048
     21 H1          3.1716    2.2432   -3.2618 H         1 <0>         0.0571
     22 H2          3.9638    3.8002   -2.8433 H         1 <0>         0.0607
     23 H3          2.1727    3.6673   -2.8139 H         1 <0>         0.0583
     24 H4          4.1066    2.1677   -0.9541 H         1 <0>         0.0799
     25 H5          3.1340    3.6492    0.7961 H         1 <0>         0.0573
     26 H6          2.1508    4.4852   -0.4533 H         1 <0>         0.0585
     27 H7          3.9419    4.6180   -0.4827 H         1 <0>         0.0607
     28 H8          0.5399    3.2649   -1.3679 H         1 <0>         0.1272
     29 H9         -1.3640    1.7886   -0.8785 H         1 <0>         0.1278
     30 H10         1.3734   -1.3311    0.2328 H         1 <0>         0.1289
     31 H11         3.2589    0.1650   -0.2680 H         1 <0>         0.1267
     32 H12        -1.2369   -1.8073   -0.3238 H         1 <0>         0.1495
     33 H13        -0.5810    2.0433    1.1722 H         1 <0>         0.1375
     34 H14        -1.3014    4.0009    2.4799 H         1 <0>         0.1284
     35 H15        -3.5588    4.0712    3.4529 H         1 <0>         0.1307
     36 H16        -5.1138    2.2005    3.1293 H         1 <0>         0.1277
     37 H17        -5.4331   -0.2919    1.9933 H         1 <0>         0.4441
@<TRIPOS>BOND
     1    1    2 1
     2    1   21 1
     3    1   22 1
     4    1   23 1
     5    2    3 1
     6    2    4 1
     7    2   24 1
     8    3   25 1
     9    3   26 1
    10    3   27 1
    11    4    9 ar
    12    4    5 ar
    13    5    6 ar
    14    5   28 1
    15    6    7 ar
    16    6   29 1
    17    7    8 ar
    18    7   10 1
    19    8    9 ar
    20    8   30 1
    21    9   31 1
    22   10   11 2
    23   10   32 1
    24   11   19 1
    25   11   12 1
    26   12   17 ar
    27   12   13 ar
    28   13   14 ar
    29   13   33 1
    30   14   15 ar
    31   14   34 1
    32   15   16 ar
    33   15   35 1
    34   16   17 ar
    35   16   36 1
    36   17   18 1
    37   18   19 am
    38   18   37 1
    39   19   20 2
@<TRIPOS>MOLECULE
ZINC00012342
   44    45     0     0     0
SMALL
USER_CHARGES

@<TRIPOS>ATOM
      1 C1         -0.0187    1.5258    0.0104 C.3       1 <0>        -0.1561
      2 C2          0.0021   -0.0041    0.0020 C.3       1 <0>        -0.0796
      3 H1          0.5293   -0.3651    0.8851 H         1 <0>         0.0729
      4 C3          0.7182   -0.4975   -1.2568 C.3       1 <0>        -0.0804
      5 C4          2.1652   -0.0794   -1.2080 C.ar      1 <0>        -0.0687
      6 C5          2.5498    1.1377   -1.7391 C.ar      1 <0>        -0.1081
      7 C6          3.8760    1.5258   -1.6968 C.ar      1 <0>        -0.1282
      8 C7          4.8231    0.6944   -1.1208 C.ar      1 <0>         0.0741
      9 C8          4.4359   -0.5305   -0.5858 C.ar      1 <0>         0.0830
     10 C9          3.1042   -0.9112   -0.6272 C.ar      1 <0>        -0.1289
     11 O1          5.3617   -1.3499   -0.0194 O.3       1 <0>        -0.4885
     12 O2          6.1281    1.0745   -1.0788 O.3       1 <0>        -0.4888
     13 C10        -1.4333   -0.5336    0.0129 C.3       1 <0>        -0.0796
     14 H2         -1.9605   -0.1726   -0.8702 H         1 <0>         0.0741
     15 C11        -1.4126   -2.0635    0.0045 C.3       1 <0>        -0.1556
     16 C12        -2.1494   -0.0402    1.2717 C.3       1 <0>        -0.0803
     17 C13        -3.5965   -0.4583    1.2229 C.ar      1 <0>        -0.0689
     18 C14        -4.5346    0.3711    0.6369 C.ar      1 <0>        -0.1099
     19 C15        -5.8633   -0.0079    0.5896 C.ar      1 <0>        -0.1274
     20 C16        -6.2571   -1.2216    1.1299 C.ar      1 <0>         0.0740
     21 C17        -5.3128   -2.0566    1.7193 C.ar      1 <0>         0.0821
     22 C18        -3.9819   -1.6728    1.7591 C.ar      1 <0>        -0.1267
     23 O3         -5.6945   -3.2487    2.2510 O.3       1 <0>        -0.4883
     24 O4         -7.5638   -1.5957    1.0847 O.3       1 <0>        -0.4888
     25 H3          1.0039    1.9031    0.0027 H         1 <0>         0.0591
     26 H4         -0.5459    1.8868   -0.8726 H         1 <0>         0.0559
     27 H5         -0.5289    1.8773    0.9072 H         1 <0>         0.0587
     28 H6          0.6556   -1.5845   -1.3079 H         1 <0>         0.0790
     29 H7          0.2444   -0.0644   -2.1377 H         1 <0>         0.0758
     30 H8          1.8126    1.7866   -2.1884 H         1 <0>         0.1297
     31 H9          4.1739    2.4768   -2.1131 H         1 <0>         0.1330
     32 H10         2.8006   -1.8597   -0.2093 H         1 <0>         0.1318
     33 H11         5.4917   -1.2014    0.9273 H         1 <0>         0.3874
     34 H12         6.3681    1.5701   -0.2838 H         1 <0>         0.3869
     35 H13        -0.9024   -2.4150   -0.8923 H         1 <0>         0.0589
     36 H14        -0.8854   -2.4246    0.8875 H         1 <0>         0.0553
     37 H15        -2.4352   -2.4408    0.0122 H         1 <0>         0.0575
     38 H16        -1.6756   -0.4733    2.1526 H         1 <0>         0.0744
     39 H17        -2.0868    1.0468    1.3228 H         1 <0>         0.0805
     40 H18        -4.2289    1.3173    0.2154 H         1 <0>         0.1294
     41 H19        -6.5943    0.6421    0.1319 H         1 <0>         0.1330
     42 H20        -3.2464   -2.3207    2.2126 H         1 <0>         0.1323
     43 H21        -5.6653   -3.9856    1.6255 H         1 <0>         0.3872
     44 H22        -7.8025   -2.0960    0.2923 H         1 <0>         0.3869
@<TRIPOS>BOND
     1    1    2 1
     2    1   25 1
     3    1   26 1
     4    1   27 1
     5    2    3 1
     6    2    4 1
     7    2   13 1
     8    4    5 1
     9    4   28 1
    10    4   29 1
    11    5   10 ar
    12    5    6 ar
    13    6    7 ar
    14    6   30 1
    15    7    8 ar
    16    7   31 1
    17    8    9 ar
    18    8   12 1
    19    9   10 ar
    20    9   11 1
    21   10   32 1
    22   11   33 1
    23   12   34 1
    24   13   14 1
    25   13   15 1
    26   13   16 1
    27   15   35 1
    28   15   36 1
    29   15   37 1
    30   16   17 1
    31   16   38 1
    32   16   39 1
    33   17   22 ar
    34   17   18 ar
    35   18   19 ar
    36   18   40 1
    37   19   20 ar
    38   19   41 1
    39   20   21 ar
    40   20   24 1
    41   21   22 ar
    42   21   23 1
    43   22   42 1
    44   23   43 1
    45   24   44 1
@<TRIPOS>MOLECULE
ZINC00056472
   44    45     0     0     0
SMALL
USER_CHARGES

@<TRIPOS>ATOM
      1 C1         -0.0187    1.5258    0.0104 C.3       1 <0>        -0.1531
      2 C2          0.0021   -0.0041    0.0020 C.3       1 <0>        -0.0796
      3 H1          0.5293   -0.3651    0.8851 H         1 <0>         0.0740
      4 C3         -1.4333   -0.5336    0.0129 C.3       1 <0>        -0.0824
      5 C4         -2.1001   -0.1511    1.3091 C.ar      1 <0>        -0.0689
      6 C5         -2.0198   -0.9949    2.4013 C.ar      1 <0>        -0.1099
      7 C6         -2.6297   -0.6485    3.5925 C.ar      1 <0>        -0.1273
      8 C7         -3.3231    0.5469    3.6939 C.ar      1 <0>         0.0740
      9 C8         -3.4036    1.3964    2.5947 C.ar      1 <0>         0.0820
     10 C9         -2.7858    1.0454    1.4050 C.ar      1 <0>        -0.1267
     11 O1         -4.0829    2.5707    2.6892 O.3       1 <0>        -0.4883
     12 O2         -3.9241    0.8890    4.8649 O.3       1 <0>        -0.4888
     13 C10         0.7182   -0.4975   -1.2568 C.3       1 <0>        -0.0796
     14 H2          0.1910   -0.1364   -2.1398 H         1 <0>         0.0740
     15 C11         2.1536    0.0321   -1.2676 C.3       1 <0>        -0.1531
     16 C12         0.7390   -2.0273   -1.2652 C.3       1 <0>        -0.0824
     17 C13         1.3339   -2.5145   -2.5613 C.ar      1 <0>        -0.0689
     18 C14         0.5162   -2.7441   -3.6522 C.ar      1 <0>        -0.1099
     19 C15         1.0571   -3.1910   -4.8433 C.ar      1 <0>        -0.1273
     20 C16         2.4216   -3.4095   -4.9459 C.ar      1 <0>         0.0740
     21 C17         3.2446   -3.1780   -3.8479 C.ar      1 <0>         0.0820
     22 C18         2.6966   -2.7254   -2.6584 C.ar      1 <0>        -0.1267
     23 O3          4.5844   -3.3909   -3.9436 O.3       1 <0>        -0.4884
     24 O4          2.9552   -3.8496   -6.1168 O.3       1 <0>        -0.4888
     25 H3          1.0039    1.9031    0.0027 H         1 <0>         0.0586
     26 H4         -0.5459    1.8868   -0.8726 H         1 <0>         0.0549
     27 H5         -0.5289    1.8773    0.9072 H         1 <0>         0.0570
     28 H6         -1.9862   -0.1019   -0.8214 H         1 <0>         0.0754
     29 H7         -1.4207   -1.6194   -0.0826 H         1 <0>         0.0803
     30 H8         -1.4796   -1.9269    2.3236 H         1 <0>         0.1296
     31 H9         -2.5661   -1.3097    4.4441 H         1 <0>         0.1331
     32 H10        -2.8436    1.7047    0.5515 H         1 <0>         0.1323
     33 H11        -3.5398    3.3172    2.9769 H         1 <0>         0.3871
     34 H12        -3.3584    1.3947    5.4643 H         1 <0>         0.3869
     35 H13         2.1388    1.1220   -1.2617 H         1 <0>         0.0587
     36 H14         2.6808   -0.3290   -0.3846 H         1 <0>         0.0549
     37 H15         2.6638   -0.3194   -2.1644 H         1 <0>         0.0570
     38 H16         1.3413   -2.3871   -0.4310 H         1 <0>         0.0754
     39 H17        -0.2789   -2.4050   -1.1679 H         1 <0>         0.0803
     40 H18        -0.5474   -2.5742   -3.5736 H         1 <0>         0.1296
     41 H19         0.4161   -3.3703   -5.6939 H         1 <0>         0.1331
     42 H20         3.3337   -2.5414   -1.8059 H         1 <0>         0.1323
     43 H21         5.0860   -2.6165   -4.2331 H         1 <0>         0.3871
     44 H22         3.2237   -3.1410   -6.7176 H         1 <0>         0.3869
@<TRIPOS>BOND
     1    1    2 1
     2    1   25 1
     3    1   26 1
     4    1   27 1
     5    2    3 1
     6    2    4 1
     7    2   13 1
     8    4    5 1
     9    4   28 1
    10    4   29 1
    11    5   10 ar
    12    5    6 ar
    13    6    7 ar
    14    6   30 1
    15    7    8 ar
    16    7   31 1
    17    8    9 ar
    18    8   12 1
    19    9   10 ar
    20    9   11 1
    21   10   32 1
    22   11   33 1
    23   12   34 1
    24   13   14 1
    25   13   15 1
    26   13   16 1
    27   15   35 1
    28   15   36 1
    29   15   37 1
    30   16   17 1
    31   16   38 1
    32   16   39 1
    33   17   22 ar
    34   17   18 ar
    35   18   19 ar
    36   18   40 1
    37   19   20 ar
    38   19   41 1
    39   20   21 ar
    40   20   24 1
    41   21   22 ar
    42   21   23 1
    43   22   42 1
    44   23   43 1
    45   24   44 1
@<TRIPOS>MOLECULE
ZINC00056474
   44    45     0     0     0
SMALL
USER_CHARGES

@<TRIPOS>ATOM
      1 C1         -0.0187    1.5258    0.0104 C.3       1 <0>        -0.1537
      2 C2          0.0021   -0.0041    0.0020 C.3       1 <0>        -0.0795
      3 H1          0.5293   -0.3651    0.8851 H         1 <0>         0.0731
      4 C3          0.7182   -0.4975   -1.2568 C.3       1 <0>        -0.0826
      5 C4          2.1652   -0.0794   -1.2080 C.ar      1 <0>        -0.0685
      6 C5          2.5498    1.1377   -1.7391 C.ar      1 <0>        -0.1081
      7 C6          3.8760    1.5258   -1.6968 C.ar      1 <0>        -0.1282
      8 C7          4.8231    0.6944   -1.1208 C.ar      1 <0>         0.0741
      9 C8          4.4359   -0.5305   -0.5858 C.ar      1 <0>         0.0831
     10 C9          3.1042   -0.9112   -0.6272 C.ar      1 <0>        -0.1290
     11 O1          5.3617   -1.3499   -0.0194 O.3       1 <0>        -0.4884
     12 O2          6.1281    1.0745   -1.0788 O.3       1 <0>        -0.4888
     13 C10        -1.4333   -0.5336    0.0129 C.3       1 <0>        -0.0794
     14 H2         -1.9605   -0.1726   -0.8702 H         1 <0>         0.0731
     15 C11        -2.1494   -0.0402    1.2717 C.3       1 <0>        -0.1537
     16 C12        -1.4126   -2.0635    0.0045 C.3       1 <0>        -0.0827
     17 C13        -2.8221   -2.5844   -0.1087 C.ar      1 <0>        -0.0685
     18 C14        -3.5623   -2.8252    1.0339 C.ar      1 <0>        -0.1081
     19 C15        -4.8557   -3.3030    0.9354 C.ar      1 <0>        -0.1282
     20 C16        -5.4133   -3.5412   -0.3106 C.ar      1 <0>         0.0741
     21 C17        -4.6685   -3.2984   -1.4606 C.ar      1 <0>         0.0831
     22 C18        -3.3742   -2.8149   -1.3550 C.ar      1 <0>        -0.1289
     23 O3         -5.2113   -3.5306   -2.6858 O.3       1 <0>        -0.4884
     24 O4         -6.6854   -4.0117   -0.4092 O.3       1 <0>        -0.4888
     25 H3          1.0039    1.9031    0.0027 H         1 <0>         0.0588
     26 H4         -0.5459    1.8868   -0.8726 H         1 <0>         0.0549
     27 H5         -0.5289    1.8773    0.9072 H         1 <0>         0.0586
     28 H6          0.6556   -1.5845   -1.3079 H         1 <0>         0.0790
     29 H7          0.2444   -0.0644   -2.1377 H         1 <0>         0.0763
     30 H8          1.8126    1.7866   -2.1884 H         1 <0>         0.1296
     31 H9          4.1739    2.4768   -2.1131 H         1 <0>         0.1329
     32 H10         2.8006   -1.8597   -0.2093 H         1 <0>         0.1321
     33 H11         5.4917   -1.2014    0.9273 H         1 <0>         0.3874
     34 H12         6.3681    1.5701   -0.2838 H         1 <0>         0.3869
     35 H13        -3.1720   -0.4175    1.2794 H         1 <0>         0.0588
     36 H14        -1.6223   -0.4013    2.1547 H         1 <0>         0.0549
     37 H15        -2.1642    1.0497    1.2777 H         1 <0>         0.0586
     38 H16        -0.8263   -2.4142   -0.8449 H         1 <0>         0.0790
     39 H17        -0.9645   -2.4259    0.9297 H         1 <0>         0.0763
     40 H18        -3.1289   -2.6399    2.0056 H         1 <0>         0.1296
     41 H19        -5.4316   -3.4910    1.8295 H         1 <0>         0.1329
     42 H20        -2.7953   -2.6221   -2.2461 H         1 <0>         0.1322
     43 H21        -5.6728   -2.7688   -3.0623 H         1 <0>         0.3874
     44 H22        -7.3582   -3.3189   -0.4598 H         1 <0>         0.3869
@<TRIPOS>BOND
     1    1    2 1
     2    1   25 1
     3    1   26 1
     4    1   27 1
     5    2    3 1
     6    2    4 1
     7    2   13 1
     8    4    5 1
     9    4   28 1
    10    4   29 1
    11    5   10 ar
    12    5    6 ar
    13    6    7 ar
    14    6   30 1
    15    7    8 ar
    16    7   31 1
    17    8    9 ar
    18    8   12 1
    19    9   10 ar
    20    9   11 1
    21   10   32 1
    22   11   33 1
    23   12   34 1
    24   13   14 1
    25   13   15 1
    26   13   16 1
    27   15   35 1
    28   15   36 1
    29   15   37 1
    30   16   17 1
    31   16   38 1
    32   16   39 1
    33   17   22 ar
    34   17   18 ar
    35   18   19 ar
    36   18   40 1
    37   19   20 ar
    38   19   41 1
    39   20   21 ar
    40   20   24 1
    41   21   22 ar
    42   21   23 1
    43   22   42 1
    44   23   43 1
    45   24   44 1
@<TRIPOS>MOLECULE
ZINC03964325
   57    59     0     0     0
SMALL
USER_CHARGES

@<TRIPOS>ATOM
      1 C1          0.1489    2.0884    0.1150 C.3       1 <0>        -0.1876
      2 C2          0.1348    0.5603    0.1888 C.3       1 <0>        -0.0191
      3 N1         -1.2520    0.0881    0.2979 N.4       1 <0>        -0.3822
      4 C3         -1.9779    0.4111   -0.9377 C.3       1 <0>        -0.0142
      5 C4         -3.4549    0.0484   -0.7712 C.3       1 <0>        -0.1895
      6 C5         -1.2593   -1.3663    0.5041 C.3       1 <0>        -0.0265
      7 C6         -0.6131   -1.6936    1.8518 C.3       1 <0>         0.0952
      8 N2         -0.6203   -3.1440    2.0575 N.am      1 <0>        -0.7289
      9 C7         -0.0988   -3.6675    3.1846 C.2       1 <0>         0.6111
     10 O1          0.3779   -2.9358    4.0309 O.2       1 <0>        -0.5184
     11 C8         -0.1061   -5.1270    3.3915 C.2       1 <0>        -0.2420
     12 C9          0.9071   -6.0320    3.0089 C.2       1 <0>        -0.0577
     13 C10         0.4868   -7.2892    3.3960 C.2       1 <0>        -0.0075
     14 N3         -0.7476   -7.1595    3.9982 N.pl3     1 <0>        -0.4910
     15 H1         -1.2731   -7.8879    4.3645 H         1 <0>         0.4270
     16 C11        -1.1044   -5.8642    4.0022 C.2       1 <0>         0.1158
     17 C12        -2.3825   -5.3072    4.5743 C.3       1 <0>        -0.0999
     18 C13         1.1957   -8.4957    3.2079 C.2       1 <0>         0.0729
     19 C14         0.5100   -9.6674    2.9570 C.2       1 <0>        -0.1889
     20 C15         1.0648  -11.0377    2.8871 C.ar      1 <0>        -0.0736
     21 C16         2.3472  -11.5557    3.0375 C.ar      1 <0>        -0.1000
     22 C17         2.5553  -12.9162    2.9116 C.ar      1 <0>         0.0861
     23 C18         1.4888  -13.7593    2.6366 C.ar      1 <0>        -0.1139
     24 C19         0.2139  -13.2531    2.4856 C.ar      1 <0>        -0.1021
     25 C20        -0.0144  -11.8871    2.6092 C.ar      1 <0>         0.1282
     26 N4         -1.1765  -11.1301    2.5069 N.am      1 <0>        -0.6466
     27 C21        -0.9294   -9.8245    2.7079 C.2       1 <0>         0.5595
     28 O2         -1.7538   -8.9280    2.6842 O.2       1 <0>        -0.5156
     29 F1          3.7984  -13.4252    3.0561 F         1 <0>        -0.1318
     30 C22         2.1990   -5.6919    2.3116 C.3       1 <0>        -0.0931
     31 H2          1.1793    2.4435    0.1331 H         1 <0>         0.1076
     32 H3         -0.3308    2.4121   -0.8087 H         1 <0>         0.0811
     33 H4         -0.3916    2.4984    0.9682 H         1 <0>         0.0809
     34 H5          0.5888    0.1488   -0.7126 H         1 <0>         0.1317
     35 H6          0.6996    0.2334    1.0619 H         1 <0>         0.1337
     36 H7         -1.8867    1.4775   -1.1444 H         1 <0>         0.1351
     37 H8         -1.5554   -0.1571   -1.7664 H         1 <0>         0.1307
     38 H9         -3.5537   -1.0316   -0.6617 H         1 <0>         0.0802
     39 H10        -3.8523    0.5414    0.1160 H         1 <0>         0.0808
     40 H11        -4.0109    0.3769   -1.6492 H         1 <0>         0.1074
     41 H12        -2.2871   -1.7292    0.4963 H         1 <0>         0.1397
     42 H13        -0.6973   -1.8494   -0.2952 H         1 <0>         0.1376
     43 H14         0.4147   -1.3306    1.8596 H         1 <0>         0.0893
     44 H15        -1.1751   -1.2105    2.6511 H         1 <0>         0.0890
     45 H16        -1.0005   -3.7277    1.3824 H         1 <0>         0.4099
     46 H17        -3.1529   -5.3000    3.8032 H         1 <0>         0.0840
     47 H18        -2.7087   -5.9289    5.4080 H         1 <0>         0.0782
     48 H19        -2.2103   -4.2898    4.9254 H         1 <0>         0.0840
     49 H20         2.2744   -8.5020    3.2604 H         1 <0>         0.1589
     50 H21         3.1765  -10.8977    3.2512 H         1 <0>         0.1436
     51 H22         1.6578  -14.8215    2.5394 H         1 <0>         0.1485
     52 H23        -0.6084  -13.9196    2.2712 H         1 <0>         0.1415
     53 H24        -2.0541  -11.4980    2.3189 H         1 <0>         0.4217
     54 H25         2.9686   -5.4822    3.0545 H         1 <0>         0.0785
     55 H26         2.5107   -6.5337    1.6932 H         1 <0>         0.0726
     56 H27         2.0522   -4.8138    1.6827 H         1 <0>         0.0634
     57 H28        -1.7009    0.5410    1.0799 H         1 <0>         0.4247
@<TRIPOS>BOND
     1    1    2 1
     2    1   31 1
     3    1   32 1
     4    1   33 1
     5    2    3 1
     6    2   34 1
     7    2   35 1
     8    3    4 1
     9    3    6 1
    10    3   57 1
    11    4    5 1
    12    4   36 1
    13    4   37 1
    14    5   38 1
    15    5   39 1
    16    5   40 1
    17    6    7 1
    18    6   41 1
    19    6   42 1
    20    7    8 1
    21    7   43 1
    22    7   44 1
    23    8    9 am
    24    8   45 1
    25    9   10 2
    26    9   11 1
    27   11   16 2
    28   11   12 1
    29   12   13 2
    30   12   30 1
    31   13   14 1
    32   13   18 1
    33   14   15 1
    34   14   16 1
    35   16   17 1
    36   17   46 1
    37   17   47 1
    38   17   48 1
    39   18   19 2
    40   18   49 1
    41   19   27 1
    42   19   20 1
    43   20   25 ar
    44   20   21 ar
    45   21   22 ar
    46   21   50 1
    47   22   23 ar
    48   22   29 1
    49   23   24 ar
    50   23   51 1
    51   24   25 ar
    52   24   52 1
    53   25   26 1
    54   26   27 am
    55   26   53 1
    56   27   28 2
    57   30   54 1
    58   30   55 1
    59   30   56 1
@<TRIPOS>MOLECULE
ZINC03820040
   62    66     0     0     0
SMALL
USER_CHARGES
N-[4-[4-(4-methylpiperazin-1-yl)-6-[(5-methyl-2H-pyrazol-3-yl)amino]pyrimidin-2-yl]sulfanylphenyl]cyclopropanecarboxamide
@<TRIPOS>ATOM
      1 C1          1.8035   -7.6837    0.5070 C.3       1 <0>        -0.0779
      2 C2          2.3685   -6.3674    0.0389 C.2       1 <0>         0.0949
      3 C3          1.9325   -5.1020    0.4407 C.2       1 <0>        -0.2905
      4 C4          2.6904   -4.1743   -0.2066 C.2       1 <0>         0.3252
      5 N1          3.5799   -4.8447   -0.9836 N.pl3     1 <0>        -0.4853
      6 H1          4.2729   -4.4328   -1.5753 H         1 <0>         0.4473
      7 N2          3.3537   -6.2159   -0.8085 N.2       1 <0>        -0.2711
      8 N3          2.5778   -2.7905   -0.0888 N.pl3     1 <0>        -0.6296
      9 C5          1.3376   -2.2123    0.1391 C.ar      1 <0>         0.4706
     10 C6          0.1755   -2.9717    0.0343 C.ar      1 <0>        -0.2983
     11 C7         -1.0466   -2.3490    0.2714 C.ar      1 <0>         0.3791
     12 N4         -1.0643   -1.0564    0.5886 N.ar      1 <0>        -0.5664
     13 C8          0.0620   -0.3646    0.6795 C.ar      1 <0>         0.3511
     14 N5          1.2425   -0.9231    0.4557 N.ar      1 <0>        -0.5606
     15 S1         -0.0125    1.3444    1.1018 S.3       1 <0>         0.1303
     16 C9          1.7078    1.7032    1.2298 C.ar      1 <0>        -0.1638
     17 C10         2.3806    1.4637    2.4214 C.ar      1 <0>        -0.0284
     18 C11         3.7293    1.7409    2.5200 C.ar      1 <0>        -0.1315
     19 C12         4.4114    2.2681    1.4313 C.ar      1 <0>         0.1902
     20 C13         3.7379    2.5125    0.2417 C.ar      1 <0>        -0.1573
     21 C14         2.3903    2.2311    0.1410 C.ar      1 <0>        -0.0288
     22 N6          5.7793    2.5539    1.5333 N.am      1 <0>        -0.6744
     23 C15         6.5739    1.7808    2.2997 C.2       1 <0>         0.5466
     24 O1          6.1269    0.7811    2.8213 O.2       1 <0>        -0.5140
     25 C16         8.0178    2.1584    2.5086 C.3       1 <0>        -0.2022
     26 C17         9.0818    1.2604    1.8742 C.3       1 <0>        -0.1494
     27 C18         8.8679    1.2402    3.3890 C.3       1 <0>        -0.1425
     28 N7         -2.2296   -3.0657    0.1789 N.pl3     1 <0>        -0.4710
     29 C19        -2.3617   -3.6957   -1.1422 C.3       1 <0>         0.0277
     30 C20        -3.6379   -4.5399   -1.1765 C.3       1 <0>         0.0040
     31 C21        -4.6643   -3.0537    0.4349 C.3       1 <0>        -0.0004
     32 C22        -3.3881   -2.2095    0.4692 C.3       1 <0>         0.0347
     33 C23        -6.0501   -4.4431   -0.9842 C.3       1 <0>        -0.0407
     34 H2          2.3381   -8.0122    1.3982 H         1 <0>         0.0831
     35 H3          0.7460   -7.5623    0.7417 H         1 <0>         0.0784
     36 H4          1.9177   -8.4287   -0.2805 H         1 <0>         0.0774
     37 H5          1.1347   -4.8964    1.1389 H         1 <0>         0.1550
     38 H6          3.3667   -2.2314   -0.1662 H         1 <0>         0.4241
     39 H7          0.2211   -4.0192   -0.2246 H         1 <0>         0.1631
     40 H8          1.8494    1.0573    3.2693 H         1 <0>         0.1319
     41 H9          4.2533    1.5509    3.4451 H         1 <0>         0.1405
     42 H10         4.2686    2.9225   -0.6049 H         1 <0>         0.1339
     43 H11         1.8666    2.4209   -0.7843 H         1 <0>         0.1341
     44 H12         6.1543    3.3081    1.0523 H         1 <0>         0.4168
     45 H13         8.2224    3.2282    2.5520 H         1 <0>         0.1306
     46 H14         8.7374    0.3965    1.3057 H         1 <0>         0.0995
     47 H15         9.9866    1.7393    1.5000 H         1 <0>         0.1100
     48 H16         9.6320    1.7059    4.0114 H         1 <0>         0.1092
     49 H17         8.3827    0.3633    3.8175 H         1 <0>         0.1093
     50 H18        -2.4158   -2.9234   -1.9095 H         1 <0>         0.0737
     51 H19        -1.4982   -4.3342   -1.3286 H         1 <0>         0.1318
     52 H20        -3.5722   -5.3290   -0.4274 H         1 <0>         0.1439
     53 H21        -3.7533   -4.9852   -2.1646 H         1 <0>         0.1412
     54 H22        -4.6102   -3.8259    1.2022 H         1 <0>         0.1407
     55 H23        -5.5278   -2.4152    0.6217 H         1 <0>         0.1407
     56 H24        -3.2729   -1.7645    1.4575 H         1 <0>         0.1357
     57 H25        -3.4537   -1.4201   -0.2796 H         1 <0>         0.0793
     58 H26        -6.8948   -3.7714   -0.8313 H         1 <0>         0.1238
     59 H27        -6.1225   -4.8989   -1.9717 H         1 <0>         0.1230
     60 H28        -6.0632   -5.2226   -0.2224 H         1 <0>         0.1251
     61 N8         -4.7966   -3.6630   -0.9051 N.4       1 <0>        -0.4014
     62 H29        -4.8229   -2.9169   -1.6099 H         1 <0>         0.4281
@<TRIPOS>BOND
     1    1    2 1
     2    1   34 1
     3    1   35 1
     4    1   36 1
     5    2    7 2
     6    2    3 1
     7    3    4 2
     8    3   37 1
     9    4    5 1
    10    4    8 1
    11    5    6 1
    12    5    7 1
    13    8    9 1
    14    8   38 1
    15    9   14 ar
    16    9   10 ar
    17   10   11 ar
    18   10   39 1
    19   11   12 ar
    20   11   28 1
    21   12   13 ar
    22   13   14 ar
    23   13   15 1
    24   15   16 1
    25   16   21 ar
    26   16   17 ar
    27   17   18 ar
    28   17   40 1
    29   18   19 ar
    30   18   41 1
    31   19   20 ar
    32   19   22 1
    33   20   21 ar
    34   20   42 1
    35   21   43 1
    36   22   23 am
    37   22   44 1
    38   23   24 2
    39   23   25 1
    40   25   27 1
    41   25   26 1
    42   25   45 1
    43   26   27 1
    44   26   46 1
    45   26   47 1
    46   27   48 1
    47   27   49 1
    48   28   32 1
    49   28   29 1
    50   29   30 1
    51   29   50 1
    52   29   51 1
    53   30   52 1
    54   30   53 1
    55   30   61 1
    56   31   32 1
    57   31   54 1
    58   31   55 1
    59   31   61 1
    60   32   56 1
    61   32   57 1
    62   33   58 1
    63   33   59 1
    64   33   60 1
    65   33   61 1
    66   61   62 1
@<TRIPOS>MOLECULE
ZINC43203317
   59    64     0     0     0
SMALL
USER_CHARGES

@<TRIPOS>ATOM
      1 C1          1.7535   -2.6140    1.5911 C.3       1 <0>        -0.1576
      2 C2          1.9372   -1.1974    1.0429 C.3       1 <0>         0.1323
      3 C3          2.2996   -1.2576   -0.4560 C.3       1 <0>        -0.1134
      4 C4          1.5200   -0.0551   -1.0506 C.3       1 <0>        -0.1390
      5 C5          0.2292   -0.0672   -0.1942 C.3       1 <0>         0.1045
      6 N1          0.6767   -0.4495    1.1575 N.pl3     1 <0>        -0.5678
      7 C6          0.0168   -0.1528    2.3424 C.cat     1 <0>         0.7218
      8 N2         -1.1775    0.4452    2.2857 N.2       1 <0>        -0.5913
      9 C7         -1.8506    0.7504    3.3820 C.2       1 <0>         0.5986
     10 C8         -1.2954    0.4378    4.6446 C.2       1 <0>        -0.1075
     11 C9         -1.7243    0.6153    5.9471 C.2       1 <0>        -0.0396
     12 C10        -0.7288    0.0950    6.7743 C.2       1 <0>        -0.1604
     13 C11         0.2678   -0.3803    5.9800 C.2       1 <0>         0.0915
     14 N3         -0.0622   -0.1793    4.6913 N.pl3     1 <0>        -0.2309
     15 N4          0.5826   -0.4728    3.4813 N.pl3     1 <0>        -0.4793
     16 N5         -3.0823    1.3684    3.2951 N.pl3     1 <0>        -0.5428
     17 C12        -3.6742    1.5771    2.0432 C.2       1 <0>         0.2706
     18 C13        -3.0895    1.2980    0.7973 C.2       1 <0>        -0.2564
     19 C14        -3.9781    1.6382   -0.1637 C.2       1 <0>         0.1447
     20 N6         -5.0843    2.1149    0.4453 N.pl3     1 <0>        -0.4469
     21 H1         -5.8860    2.4338    0.0021 H         1 <0>         0.4486
     22 N7         -4.8747    2.0624    1.8293 N.2       1 <0>        -0.2849
     23 C15        -3.7699    1.5087   -1.6506 C.3       1 <0>        -0.1084
     24 C16        -4.4171    2.5645   -2.5491 C.3       1 <0>        -0.1663
     25 C17        -4.9858    1.1448   -2.5051 C.3       1 <0>        -0.1664
     26 C18         3.0250   -0.4890    1.8083 C.2       1 <0>         0.4854
     27 O1          3.8838   -1.1306    2.3757 O.2       1 <0>        -0.4818
     28 N8          3.0435    0.8576    1.8624 N.am      1 <0>        -0.6582
     29 C19         4.1149    1.5191    2.4758 C.ar      1 <0>         0.0600
     30 C20         5.4063    1.0037    2.3886 C.ar      1 <0>        -0.0399
     31 C21         6.4332    1.6923    3.0108 C.ar      1 <0>        -0.1677
     32 C22         6.1456    2.8626    3.6948 C.ar      1 <0>         0.3115
     33 N9          4.9102    3.3236    3.7580 N.ar      1 <0>        -0.4898
     34 C23         3.9057    2.6998    3.1737 C.ar      1 <0>         0.1268
     35 F1          7.1422    3.5404    4.3052 F         1 <0>        -0.1003
     36 H2          0.9186   -3.0952    1.0817 H         1 <0>         0.0948
     37 H3          2.6632   -3.1900    1.4216 H         1 <0>         0.1103
     38 H4          1.5478   -2.5659    2.6604 H         1 <0>         0.0538
     39 H5          3.3726   -1.1301   -0.5988 H         1 <0>         0.1067
     40 H6          1.9593   -2.1942   -0.8977 H         1 <0>         0.1138
     41 H7          2.0716    0.8748   -0.9127 H         1 <0>         0.0884
     42 H8          1.2917   -0.2196   -2.1036 H         1 <0>         0.1180
     43 H9         -0.2243    0.9238   -0.1775 H         1 <0>         0.1095
     44 H10        -0.4765   -0.8018   -0.5820 H         1 <0>         0.1052
     45 H11        -2.6516    1.0698    6.2632 H         1 <0>         0.1822
     46 H12        -0.7461    0.0739    7.8539 H         1 <0>         0.1890
     47 H13         1.1787   -0.8443    6.3282 H         1 <0>         0.2011
     48 H14        -3.5375    1.6579    4.1012 H         1 <0>         0.4456
     49 H15        -2.1046    0.8854    0.6353 H         1 <0>         0.1821
     50 H16        -2.8023    1.1113   -1.9570 H         1 <0>         0.1357
     51 H17        -4.9935    3.3528   -2.0648 H         1 <0>         0.0972
     52 H18        -3.8753    2.8620   -3.4469 H         1 <0>         0.1127
     53 H19        -4.8180    0.5082   -3.3738 H         1 <0>         0.1125
     54 H20        -5.9362    0.9990   -1.9917 H         1 <0>         0.0972
     55 H21         2.3148    1.3685    1.4766 H         1 <0>         0.4141
     56 H22         5.6014    0.0888    1.8488 H         1 <0>         0.1571
     57 H23         7.4466    1.3217    2.9641 H         1 <0>         0.1613
     58 H24         2.9090    3.1098    3.2433 H         1 <0>         0.1645
     59 H25         1.4487   -0.9095    3.4868 H         1 <0>         0.4476
@<TRIPOS>BOND
     1    1    2 1
     2    1   36 1
     3    1   37 1
     4    1   38 1
     5    2    6 1
     6    2    3 1
     7    2   26 1
     8    3    4 1
     9    3   39 1
    10    3   40 1
    11    4    5 1
    12    4   41 1
    13    4   42 1
    14    5    6 1
    15    5   43 1
    16    5   44 1
    17    6    7 1
    18    7   15 2
    19    7    8 1
    20    8    9 2
    21    9   10 1
    22    9   16 1
    23   10   14 1
    24   10   11 2
    25   11   12 1
    26   11   45 1
    27   12   13 2
    28   12   46 1
    29   13   14 1
    30   13   47 1
    31   14   15 1
    32   15   59 1
    33   16   17 1
    34   16   48 1
    35   17   22 2
    36   17   18 1
    37   18   19 2
    38   18   49 1
    39   19   20 1
    40   19   23 1
    41   20   21 1
    42   20   22 1
    43   23   25 1
    44   23   24 1
    45   23   50 1
    46   24   25 1
    47   24   51 1
    48   24   52 1
    49   25   53 1
    50   25   54 1
    51   26   27 2
    52   26   28 am
    53   28   29 1
    54   28   55 1
    55   29   34 ar
    56   29   30 ar
    57   30   31 ar
    58   30   56 1
    59   31   32 ar
    60   31   57 1
    61   32   33 ar
    62   32   35 1
    63   33   34 ar
    64   34   58 1
@<TRIPOS>MOLECULE
ZINC43203317
   59    64     0     0     0
SMALL
USER_CHARGES

@<TRIPOS>ATOM
      1 C1         -0.2400   -0.0323   -0.4481 C.3       1 <0>        -0.1608
      2 C2         -0.9173   -1.3602   -0.1032 C.3       1 <0>         0.1638
      3 C3         -0.9523   -2.2705   -1.3489 C.3       1 <0>        -0.1176
      4 C4         -0.6761   -3.6784   -0.7582 C.3       1 <0>        -0.1322
      5 C5          0.3239   -3.3483    0.3779 C.3       1 <0>         0.0799
      6 N1         -0.1425   -2.0633    0.9296 N.pl3     1 <0>        -0.5749
      7 C6          0.1088   -1.5945    2.2120 C.cat     1 <0>         0.7200
      8 N2         -0.6553   -0.6140    2.7038 N.2       1 <0>        -0.5959
      9 C7         -0.4614   -0.1295    3.9186 C.2       1 <0>         0.5946
     10 C8          0.5781   -0.6599    4.7174 C.2       1 <0>        -0.1068
     11 C9          1.0359   -0.3876    5.9934 C.2       1 <0>        -0.0422
     12 C10         2.1046   -1.2520    6.2318 C.2       1 <0>        -0.1613
     13 C11         2.2764   -2.0194    5.1220 C.2       1 <0>         0.0935
     14 N3          1.3606   -1.6716    4.1999 N.pl3     1 <0>        -0.2317
     15 N4          1.0846   -2.1313    2.9043 N.pl3     1 <0>        -0.4707
     16 N5         -1.2652    0.8841    4.4022 N.pl3     1 <0>        -0.5597
     17 C12        -2.2770    1.4121    3.6031 C.2       1 <0>         0.2587
     18 C13        -2.2998    1.4336    2.2418 C.2       1 <0>        -0.2133
     19 C14        -3.4890    2.0493    1.8429 C.2       1 <0>         0.1357
     20 N6         -4.1598    2.3873    2.9141 N.2       1 <0>        -0.2440
     21 H1         -3.6859    2.1176    4.9651 H         1 <0>         0.4424
     22 N7         -3.4239    1.9942    4.0393 N.pl3     1 <0>        -0.4751
     23 C15        -3.9249    2.2847    0.4196 C.3       1 <0>        -0.0827
     24 C16        -2.9477    1.8967   -0.6919 C.3       1 <0>        -0.1184
     25 C17        -3.1956    3.3721   -0.3719 C.3       1 <0>        -0.1818
     26 C18        -2.3186   -1.1075    0.3904 C.2       1 <0>         0.5120
     27 O1         -3.0087   -0.2675   -0.1473 O.2       1 <0>        -0.4663
     28 N8         -2.8049   -1.8150    1.4293 N.am      1 <0>        -0.6484
     29 C19        -4.1419   -1.6608    1.8170 C.ar      1 <0>         0.0931
     30 C20        -5.1185   -1.3455    0.8748 C.ar      1 <0>        -0.0458
     31 C21        -6.4264   -1.2030    1.3049 C.ar      1 <0>        -0.1648
     32 C22        -6.7194   -1.3772    2.6481 C.ar      1 <0>         0.2983
     33 N9         -5.7696   -1.6756    3.5150 N.ar      1 <0>        -0.4903
     34 C23        -4.5129   -1.8255    3.1437 C.ar      1 <0>         0.1109
     35 F1         -7.9934   -1.2394    3.0760 F         1 <0>        -0.1066
     36 H2          0.8421   -0.1627   -0.4371 H         1 <0>         0.0770
     37 H3         -0.5571    0.2906   -1.4397 H         1 <0>         0.1035
     38 H4         -0.5225    0.7213    0.2870 H         1 <0>         0.0781
     39 H5         -1.9329   -2.2370   -1.8236 H         1 <0>         0.1107
     40 H6         -0.1711   -1.9884   -2.0548 H         1 <0>         0.1083
     41 H7         -1.5889   -4.1206   -0.3590 H         1 <0>         0.0906
     42 H8         -0.2204   -4.3317   -1.5023 H         1 <0>         0.1146
     43 H9          0.2962   -4.1227    1.1444 H         1 <0>         0.0963
     44 H10         1.3325   -3.2456   -0.0225 H         1 <0>         0.1041
     45 H11         0.6419    0.3520    6.6746 H         1 <0>         0.1796
     46 H12         2.6919   -1.3025    7.1367 H         1 <0>         0.1885
     47 H13         3.0281   -2.7852    5.0004 H         1 <0>         0.2040
     48 H14        -1.1253    1.2284    5.2981 H         1 <0>         0.4411
     49 H15        -1.5346    1.0440    1.5868 H         1 <0>         0.1629
     50 H16        -4.9888    2.1485    0.2251 H         1 <0>         0.1168
     51 H17        -1.9896    1.4711   -0.3937 H         1 <0>         0.0996
     52 H18        -3.3686    1.5049   -1.6179 H         1 <0>         0.1017
     53 H19        -3.7796    3.9511   -1.0874 H         1 <0>         0.1014
     54 H20        -2.4006    3.9173    0.1368 H         1 <0>         0.0905
     55 H21        -2.2289   -2.4311    1.9086 H         1 <0>         0.3988
     56 H22        -4.8613   -1.2151   -0.1660 H         1 <0>         0.1610
     57 H23        -7.2092   -0.9586    0.6021 H         1 <0>         0.1557
     58 H24        -3.7640   -2.0743    3.8810 H         1 <0>         0.1500
     59 H25         1.6178   -2.8440    2.5187 H         1 <0>         0.4537
@<TRIPOS>BOND
     1    1    2 1
     2    1   36 1
     3    1   37 1
     4    1   38 1
     5    2    6 1
     6    2    3 1
     7    2   26 1
     8    3    4 1
     9    3   39 1
    10    3   40 1
    11    4    5 1
    12    4   41 1
    13    4   42 1
    14    5    6 1
    15    5   43 1
    16    5   44 1
    17    6    7 1
    18    7   15 2
    19    7    8 1
    20    8    9 2
    21    9   10 1
    22    9   16 1
    23   10   14 1
    24   10   11 2
    25   11   12 1
    26   11   45 1
    27   12   13 2
    28   12   46 1
    29   13   14 1
    30   13   47 1
    31   14   15 1
    32   15   59 1
    33   16   17 1
    34   16   48 1
    35   17   18 2
    36   17   22 1
    37   18   49 1
    38   18   19 1
    39   19   23 1
    40   19   20 2
    41   20   22 1
    42   21   22 1
    43   23   25 1
    44   23   24 1
    45   23   50 1
    46   24   25 1
    47   24   51 1
    48   24   52 1
    49   25   53 1
    50   25   54 1
    51   26   27 2
    52   26   28 am
    53   28   29 1
    54   28   55 1
    55   29   34 ar
    56   29   30 ar
    57   30   31 ar
    58   30   56 1
    59   31   32 ar
    60   31   57 1
    61   32   33 ar
    62   32   35 1
    63   33   34 ar
    64   34   58 1
@<TRIPOS>MOLECULE
ZINC13881360
   31    33     0     0     0
SMALL
USER_CHARGES
(5Z)-5-[(6-ethoxy-1,3-benzodioxol-5-yl)methylene]thiazolidine-2,4-dione
@<TRIPOS>ATOM
      1 C1          6.6199   -1.2483   -0.3593 C.3       1 <0>        -0.1547
      2 C2          6.5553    0.2804   -0.3584 C.3       1 <0>         0.0486
      3 O1          5.1942    0.6996   -0.2420 O.3       1 <0>        -0.2985
      4 C3          4.9603    2.0369   -0.2259 C.ar      1 <0>         0.1933
      5 C4          6.0154    2.9268   -0.3203 C.ar      1 <0>        -0.2012
      6 C5          5.7796    4.2933   -0.3045 C.ar      1 <0>         0.1103
      7 C6          4.4743    4.7800   -0.1932 C.ar      1 <0>        -0.0021
      8 C7          3.4138    3.9031   -0.1038 C.ar      1 <0>        -0.0357
      9 C8          3.6459    2.5209   -0.1137 C.ar      1 <0>        -0.1263
     10 C9          2.5224    1.5847   -0.0137 C.2       1 <0>         0.1043
     11 C10         1.2590    2.0083   -0.2808 C.2       1 <0>        -0.2291
     12 C11        -0.0244    1.3039   -0.1083 C.2       1 <0>         0.5633
     13 O2         -0.0768    0.1698    0.3313 O.2       1 <0>        -0.4706
     14 N1         -1.1156    1.9630   -0.4600 N.am      1 <0>        -0.6847
     15 C12        -1.0537    3.2210   -0.9422 C.2       1 <0>         0.5392
     16 O3         -1.9682    3.9401   -1.2976 O.2       1 <0>        -0.4176
     17 S1          0.6970    3.5725   -0.9389 S.3       1 <0>        -0.0414
     18 O4          4.5176    6.1456   -0.2013 O.3       1 <0>        -0.3001
     19 C13         5.8131    6.4852   -0.7295 C.3       1 <0>         0.2114
     20 O5          6.6333    5.3546   -0.3812 O.3       1 <0>        -0.3007
     21 H1          7.6582   -1.5680   -0.4481 H         1 <0>         0.0829
     22 H2          6.2004   -1.6302    0.5715 H         1 <0>         0.0700
     23 H3          6.0472   -1.6356   -1.2019 H         1 <0>         0.0696
     24 H4          6.9748    0.6623   -1.2891 H         1 <0>         0.0698
     25 H5          7.1281    0.6677    0.4842 H         1 <0>         0.0701
     26 H6          7.0261    2.5560   -0.4069 H         1 <0>         0.1512
     27 H7          2.4054    4.2811   -0.0219 H         1 <0>         0.1570
     28 H8          2.6986    0.5582    0.2722 H         1 <0>         0.1707
     29 H9         -1.9801    1.5334   -0.3655 H         1 <0>         0.4210
     30 H10         5.7658    6.6049   -1.8119 H         1 <0>         0.0914
     31 H11         6.1912    7.3939   -0.2611 H         1 <0>         0.1387
@<TRIPOS>BOND
     1    1    2 1
     2    1   21 1
     3    1   22 1
     4    1   23 1
     5    2    3 1
     6    2   24 1
     7    2   25 1
     8    3    4 1
     9    4    9 ar
    10    4    5 ar
    11    5    6 ar
    12    5   26 1
    13    6   20 1
    14    6    7 ar
    15    7    8 ar
    16    7   18 1
    17    8    9 ar
    18    8   27 1
    19    9   10 1
    20   10   11 2
    21   10   28 1
    22   11   17 1
    23   11   12 1
    24   12   13 2
    25   12   14 am
    26   14   15 am
    27   14   29 1
    28   15   16 2
    29   15   17 1
    30   18   19 1
    31   19   20 1
    32   19   30 1
    33   19   31 1
@<TRIPOS>MOLECULE
ZINC00973806
   24    26     0     0     0
SMALL
USER_CHARGES
5-[(6-bromobenzo[1,3]dioxol-5-yl)methylene]thiazolidine-2,4-dione
@<TRIPOS>ATOM
      1 C1         -0.8166    3.9799   -0.0577 C.ar      1 <0>        -0.0301
      2 C2          0.5340    4.3508   -0.0744 C.ar      1 <0>        -0.0555
      3 C3          0.8819    5.7049   -0.1612 C.ar      1 <0>        -0.0540
      4 C4         -0.1043    6.6650   -0.2410 C.ar      1 <0>        -0.0828
      5 C5         -1.4424    6.2961   -0.2238 C.ar      1 <0>         0.0653
      6 C6         -1.7969    4.9485   -0.1320 C.ar      1 <0>         0.0453
      7 O1         -3.1593    4.8559   -0.1342 O.3       1 <0>        -0.3000
      8 C7         -3.6343    6.1771    0.1846 C.3       1 <0>         0.2112
      9 O2         -2.5831    7.0421   -0.2836 O.3       1 <0>        -0.2995
     10 Br1         2.7027    6.2151   -0.1764 Br        1 <0>        -0.0151
     11 C8          1.5808    3.3248    0.0048 C.2       1 <0>         0.0725
     12 C9          1.4548    2.1708   -0.6989 C.2       1 <0>        -0.2007
     13 C10         0.4488    1.7901   -1.7096 C.2       1 <0>         0.5511
     14 O3         -0.4434    2.5489   -2.0407 O.2       1 <0>        -0.4549
     15 N1          0.5688    0.5853   -2.2412 N.am      1 <0>        -0.6839
     16 C11         1.5621   -0.2504   -1.8753 C.2       1 <0>         0.5535
     17 O4          1.7895   -1.3755   -2.2778 O.2       1 <0>        -0.4094
     18 S1          2.4618    0.6943   -0.6562 S.3       1 <0>        -0.0330
     19 H1         -1.0904    2.9375    0.0128 H         1 <0>         0.1444
     20 H2          0.1652    7.7085   -0.3116 H         1 <0>         0.1529
     21 H3         -3.7689    6.2862    1.2608 H         1 <0>         0.0918
     22 H4         -4.5655    6.3866   -0.3418 H         1 <0>         0.1386
     23 H5          2.4513    3.4881    0.6230 H         1 <0>         0.1683
     24 H6         -0.0719    0.2961   -2.9096 H         1 <0>         0.4239
@<TRIPOS>BOND
     1    1    6 ar
     2    1    2 ar
     3    1   19 1
     4    2    3 ar
     5    2   11 1
     6    3    4 ar
     7    3   10 1
     8    4    5 ar
     9    4   20 1
    10    5    9 1
    11    5    6 ar
    12    6    7 1
    13    7    8 1
    14    8    9 1
    15    8   21 1
    16    8   22 1
    17   11   12 2
    18   11   23 1
    19   12   18 1
    20   12   13 1
    21   13   14 2
    22   13   15 am
    23   15   16 am
    24   15   24 1
    25   16   17 2
    26   16   18 1
@<TRIPOS>MOLECULE
ZINC17293205
   29    30     0     0     0
SMALL
USER_CHARGES
(5Z)-5-[(5-bromo-3-ethoxy-2-hydroxy-phenyl)methylene]thiazolidine-2,4-dione
@<TRIPOS>ATOM
      1 C1          4.4935   10.8622   -0.5449 C.3       1 <0>        -0.1528
      2 C2          3.2221   10.0175   -0.4399 C.3       1 <0>         0.0480
      3 O1          3.5740    8.6347   -0.3615 O.3       1 <0>        -0.2974
      4 C3          2.5524    7.7423   -0.2630 C.ar      1 <0>         0.1145
      5 C4          1.2412    8.1901   -0.2419 C.ar      1 <0>        -0.1472
      6 C5          0.1939    7.2880   -0.1413 C.ar      1 <0>        -0.0591
      7 C6          0.4452    5.9348   -0.0664 C.ar      1 <0>        -0.0888
      8 C7          1.7651    5.4669   -0.0811 C.ar      1 <0>        -0.0772
      9 C8          2.8242    6.3817   -0.1830 C.ar      1 <0>         0.1315
     10 O2          4.1084    5.9397   -0.2030 O.3       1 <0>        -0.4750
     11 C9          2.0388    4.0271    0.0036 C.2       1 <0>         0.0787
     12 C10         1.0565    3.1321   -0.2727 C.2       1 <0>        -0.2071
     13 C11         1.0495    1.6642   -0.1159 C.2       1 <0>         0.5619
     14 O3          2.0150    1.0629    0.3170 O.2       1 <0>        -0.4641
     15 N1         -0.0591    1.0356   -0.4692 N.am      1 <0>        -0.6845
     16 C12        -1.1251    1.7053   -0.9528 C.2       1 <0>         0.5386
     17 O4         -2.1961    1.2585   -1.3172 O.2       1 <0>        -0.4125
     18 S1         -0.5844    3.4068   -0.9265 S.3       1 <0>        -0.0344
     19 Br1        -1.5894    7.9164   -0.1139 Br        1 <0>        -0.0245
     20 H1          5.1146   10.6946    0.3350 H         1 <0>         0.0692
     21 H2          5.0465   10.5767   -1.4398 H         1 <0>         0.0684
     22 H3          4.2250   11.9169   -0.6047 H         1 <0>         0.0824
     23 H4          2.6009   10.1850   -1.3198 H         1 <0>         0.0666
     24 H5          2.6691   10.3030    0.4549 H         1 <0>         0.0670
     25 H6          1.0342    9.2483   -0.3047 H         1 <0>         0.1496
     26 H7         -0.3750    5.2361    0.0077 H         1 <0>         0.1532
     27 H8          4.4463    5.7529   -1.0895 H         1 <0>         0.3986
     28 H9          3.0218    3.6800    0.2857 H         1 <0>         0.1738
     29 H10        -0.1051    0.0706   -0.3822 H         1 <0>         0.4227
@<TRIPOS>BOND
     1    1    2 1
     2    1   20 1
     3    1   21 1
     4    1   22 1
     5    2    3 1
     6    2   23 1
     7    2   24 1
     8    3    4 1
     9    4    9 ar
    10    4    5 ar
    11    5    6 ar
    12    5   25 1
    13    6    7 ar
    14    6   19 1
    15    7    8 ar
    16    7   26 1
    17    8    9 ar
    18    8   11 1
    19    9   10 1
    20   10   27 1
    21   11   12 2
    22   11   28 1
    23   12   18 1
    24   12   13 1
    25   13   14 2
    26   13   15 am
    27   15   16 am
    28   15   29 1
    29   16   17 2
    30   16   18 1
@<TRIPOS>MOLECULE
ZINC02068457
   29    30     0     0     0
SMALL
USER_CHARGES
5-[(3-bromo-5-ethoxy-4-hydroxy-phenyl)methylene]thiazolidine-2,4-dione
@<TRIPOS>ATOM
      1 C1         -3.4991   -0.7185   -1.4669 C.3       1 <0>        -0.1520
      2 C2         -2.3213    0.1876   -1.1028 C.3       1 <0>         0.0510
      3 O1         -1.1709   -0.6141   -0.8272 O.3       1 <0>        -0.2992
      4 C3         -0.0294    0.0410   -0.4849 C.ar      1 <0>         0.1084
      5 C4         -0.0193    1.4204   -0.4167 C.ar      1 <0>        -0.1116
      6 C5          1.1578    2.0919   -0.0644 C.ar      1 <0>        -0.0635
      7 C6          2.3184    1.3607    0.2169 C.ar      1 <0>        -0.0757
      8 C7          2.2988   -0.0156    0.1462 C.ar      1 <0>        -0.0965
      9 C8          1.1299   -0.6801   -0.2035 C.ar      1 <0>         0.1291
     10 O2          1.1166   -2.0370   -0.2710 O.3       1 <0>        -0.4711
     11 Br1         3.8670   -1.0018    0.5257 Br        1 <0>        -0.0183
     12 C9          1.1752    3.5583    0.0095 C.2       1 <0>         0.0814
     13 C10         0.1086    4.2248    0.5196 C.2       1 <0>        -0.2125
     14 C11        -1.0907    3.6998    1.2019 C.2       1 <0>         0.5512
     15 O3         -1.2496    2.5076    1.3886 O.2       1 <0>        -0.4580
     16 N1         -1.9834    4.5903    1.6005 N.am      1 <0>        -0.6845
     17 C12        -1.8030    5.9105    1.3924 C.2       1 <0>         0.5533
     18 O4         -2.5347    6.8311    1.7032 O.2       1 <0>        -0.4096
     19 S1         -0.2265    5.9804    0.5569 S.3       1 <0>        -0.0376
     20 H1         -4.3766   -0.1070   -1.6771 H         1 <0>         0.0800
     21 H2         -3.2461   -1.3064   -2.3492 H         1 <0>         0.0678
     22 H3         -3.7138   -1.3878   -0.6337 H         1 <0>         0.0689
     23 H4         -2.5743    0.7754   -0.2204 H         1 <0>         0.0678
     24 H5         -2.1066    0.8568   -1.9359 H         1 <0>         0.0605
     25 H6         -0.9159    1.9800   -0.6389 H         1 <0>         0.1395
     26 H7          3.2284    1.8749    0.4886 H         1 <0>         0.1471
     27 H8          1.3444   -2.3897   -1.1421 H         1 <0>         0.3944
     28 H9          2.0368    4.1065   -0.3422 H         1 <0>         0.1662
     29 H10        -2.7860    4.2871    2.0530 H         1 <0>         0.4232
@<TRIPOS>BOND
     1    1    2 1
     2    1   20 1
     3    1   21 1
     4    1   22 1
     5    2    3 1
     6    2   23 1
     7    2   24 1
     8    3    4 1
     9    4    9 ar
    10    4    5 ar
    11    5    6 ar
    12    5   25 1
    13    6    7 ar
    14    6   12 1
    15    7    8 ar
    16    7   26 1
    17    8    9 ar
    18    8   11 1
    19    9   10 1
    20   10   27 1
    21   12   13 2
    22   12   28 1
    23   13   19 1
    24   13   14 1
    25   14   15 2
    26   14   16 am
    27   16   17 am
    28   16   29 1
    29   17   18 2
    30   17   19 1
@<TRIPOS>MOLECULE
ZINC01012980
   26    27     0     0     0
SMALL
USER_CHARGES
5-[(4-hydroxy-3-iodo-5-methoxy-phenyl)methylene]thiazolidine-2,4-dione
@<TRIPOS>ATOM
      1 C1          1.5243    2.5464    3.3773 C.3       1 <0>         0.0220
      2 O1          0.9973    1.9134    2.2096 O.3       1 <0>        -0.3017
      3 C2          1.7617    1.9565    1.0856 C.ar      1 <0>         0.1003
      4 C3          2.9897    2.5880    1.1100 C.ar      1 <0>        -0.1442
      5 C4          3.7714    2.6359   -0.0507 C.ar      1 <0>        -0.0651
      6 C5          3.3059    2.0381   -1.2283 C.ar      1 <0>        -0.0354
      7 C6          2.0819    1.4053   -1.2415 C.ar      1 <0>        -0.1049
      8 C7          1.3076    1.3587   -0.0891 C.ar      1 <0>         0.1344
      9 O2          0.1017    0.7334   -0.1084 O.3       1 <0>        -0.4721
     10 I1          1.3865    0.5119   -3.0042 I         1 <0>        -0.0076
     11 C8          5.0756    3.3105   -0.0331 C.2       1 <0>         0.0763
     12 C9          5.4714    4.0503   -1.0998 C.2       1 <0>        -0.2086
     13 C10         4.7114    4.4533   -2.2998 C.2       1 <0>         0.5495
     14 O3          3.5491    4.1293   -2.4590 O.2       1 <0>        -0.4517
     15 N1          5.3573    5.1844   -3.1925 N.am      1 <0>        -0.6839
     16 C11         6.6451    5.5416   -3.0120 C.2       1 <0>         0.5544
     17 O4          7.3547    6.2054   -3.7437 O.2       1 <0>        -0.4100
     18 S1          7.0540    4.8113   -1.4347 S.3       1 <0>        -0.0402
     19 H1          1.6874    3.6049    3.1745 H         1 <0>         0.0584
     20 H2          0.8169    2.4388    4.1995 H         1 <0>         0.1061
     21 H3          2.4706    2.0784    3.6485 H         1 <0>         0.0588
     22 H4          3.3442    3.0475    2.0208 H         1 <0>         0.1462
     23 H5          3.9058    2.0731   -2.1257 H         1 <0>         0.1369
     24 H6          0.1421   -0.2060    0.1171 H         1 <0>         0.3940
     25 H7          5.7198    3.2181    0.8288 H         1 <0>         0.1640
     26 H8          4.8942    5.4706   -3.9954 H         1 <0>         0.4240
@<TRIPOS>BOND
     1    1    2 1
     2    1   19 1
     3    1   20 1
     4    1   21 1
     5    2    3 1
     6    3    8 ar
     7    3    4 ar
     8    4    5 ar
     9    4   22 1
    10    5    6 ar
    11    5   11 1
    12    6    7 ar
    13    6   23 1
    14    7    8 ar
    15    7   10 1
    16    8    9 1
    17    9   24 1
    18   11   12 2
    19   11   25 1
    20   12   18 1
    21   12   13 1
    22   13   14 2
    23   13   15 am
    24   15   16 am
    25   15   26 1
    26   16   17 2
    27   16   18 1
@<TRIPOS>MOLECULE
ZINC00973810
   28    30     0     0     0
SMALL
USER_CHARGES
5-[[5-(4-fluorophenyl)-2-furyl]methylene]thiazolidine-2,4-dione
@<TRIPOS>ATOM
      1 C1          0.0145    0.9499   -1.0307 C.ar      1 <0>        -0.0587
      2 C2         -1.1794    1.5910   -1.2836 C.ar      1 <0>        -0.1542
      3 C3         -1.2077    2.9661   -1.4576 C.ar      1 <0>         0.1146
      4 C4         -0.0356    3.7033   -1.3890 C.ar      1 <0>        -0.1533
      5 C5          1.1652    3.0726   -1.1423 C.ar      1 <0>        -0.0602
      6 C6          1.1993    1.6875   -0.9608 C.ar      1 <0>        -0.0446
      7 C7          2.4811    1.0066   -0.6960 C.2       1 <0>         0.0740
      8 C8          3.7114    1.6172   -0.6036 C.2       1 <0>        -0.2086
      9 C9          4.6474    0.6130   -0.3445 C.2       1 <0>        -0.1198
     10 C10         3.9490   -0.5800   -0.2881 C.2       1 <0>        -0.0444
     11 O1          2.6426   -0.3145   -0.4986 O.3       1 <0>        -0.1018
     12 C11         4.5057   -1.8538   -0.0463 C.2       1 <0>         0.1149
     13 C12         3.6926   -2.9453    0.0591 C.2       1 <0>        -0.2326
     14 C13         2.2672   -3.0155    0.0976 C.2       1 <0>         0.5465
     15 O2          1.5876   -2.0068    0.0332 O.2       1 <0>        -0.4504
     16 N1          1.7070   -4.2082    0.2004 N.am      1 <0>        -0.6860
     17 C14         2.4617   -5.3266    0.2792 C.2       1 <0>         0.5543
     18 O3          2.1011   -6.4840    0.3814 O.2       1 <0>        -0.4141
     19 S1          4.1228   -4.6750    0.1945 S.3       1 <0>        -0.0447
     20 F1         -2.3814    3.5896   -1.7001 F         1 <0>        -0.1337
     21 H1          0.0347   -0.1209   -0.8912 H         1 <0>         0.1462
     22 H2         -2.0951    1.0214   -1.3427 H         1 <0>         0.1423
     23 H3         -0.0633    4.7737   -1.5295 H         1 <0>         0.1449
     24 H4          2.0777    3.6478   -1.0898 H         1 <0>         0.1416
     25 H5          3.9145    2.6726   -0.7105 H         1 <0>         0.1601
     26 H6          5.7115    0.7430   -0.2131 H         1 <0>         0.1654
     27 H7          5.5751   -1.9653    0.0553 H         1 <0>         0.1810
     28 H8          0.7401   -4.2815    0.2244 H         1 <0>         0.4214
@<TRIPOS>BOND
     1    1    6 ar
     2    1    2 ar
     3    1   21 1
     4    2    3 ar
     5    2   22 1
     6    3    4 ar
     7    3   20 1
     8    4    5 ar
     9    4   23 1
    10    5    6 ar
    11    5   24 1
    12    6    7 1
    13    7   11 1
    14    7    8 2
    15    8    9 1
    16    8   25 1
    17    9   10 2
    18    9   26 1
    19   10   11 1
    20   10   12 1
    21   12   13 2
    22   12   27 1
    23   13   19 1
    24   13   14 1
    25   14   15 2
    26   14   16 am
    27   16   17 am
    28   16   28 1
    29   17   18 2
    30   17   19 1
@<TRIPOS>MOLECULE
ZINC00975830
   28    30     0     0     0
SMALL
USER_CHARGES
5-[[5-(2,4-dichlorophenyl)-2-furyl]methylene]thiazolidine-2,4-dione
@<TRIPOS>ATOM
      1 C1          0.3520    2.8902   -0.6920 C.ar      1 <0>        -0.1049
      2 C2         -0.7021    2.0144   -0.5381 C.ar      1 <0>        -0.0610
      3 C3         -0.4679    0.6371   -0.5385 C.ar      1 <0>        -0.0154
      4 C4          0.8360    0.1560   -0.6952 C.ar      1 <0>        -0.0001
      5 C5          1.8814    1.0438   -0.8483 C.ar      1 <0>        -0.1024
      6 C6          1.6411    2.4078   -0.8464 C.ar      1 <0>        -0.0121
      7 Cl1         2.9617    3.5180   -1.0394 Cl        1 <0>        -0.0468
      8 Cl2         1.1387   -1.5534   -0.6967 Cl        1 <0>        -0.0389
      9 C7         -1.5908   -0.3055   -0.3738 C.2       1 <0>         0.0565
     10 C8         -1.8547   -1.3898   -1.1800 C.2       1 <0>        -0.1872
     11 C9         -3.0009   -2.0066   -0.6727 C.2       1 <0>        -0.1231
     12 C10        -3.3959   -1.2711    0.4306 C.2       1 <0>        -0.0394
     13 O1         -2.5251   -0.2529    0.5928 O.3       1 <0>        -0.0957
     14 C11        -4.5133   -1.5422    1.2485 C.2       1 <0>         0.1133
     15 C12        -4.7508   -0.7784    2.3548 C.2       1 <0>        -0.2294
     16 C13        -3.9431    0.2396    2.9460 C.2       1 <0>         0.5442
     17 O2         -2.8658    0.5432    2.4658 O.2       1 <0>        -0.4460
     18 N1         -4.4014    0.8457    4.0274 N.am      1 <0>        -0.6861
     19 C14        -5.5935    0.5032    4.5643 C.2       1 <0>         0.5545
     20 O3         -6.1452    0.9578    5.5486 O.2       1 <0>        -0.4137
     21 S1         -6.1541   -0.7860    3.4620 S.3       1 <0>        -0.0440
     22 H1          0.1718    3.9551   -0.6918 H         1 <0>         0.1481
     23 H2         -1.7071    2.3923   -0.4220 H         1 <0>         0.1474
     24 H3          2.8890    0.6742   -0.9695 H         1 <0>         0.1528
     25 H4         -1.2840   -1.7038   -2.0415 H         1 <0>         0.1597
     26 H5         -3.4857   -2.8877   -1.0663 H         1 <0>         0.1662
     27 H6         -5.1807   -2.3540    0.9994 H         1 <0>         0.1818
     28 H7         -3.8722    1.5433    4.4447 H         1 <0>         0.4216
@<TRIPOS>BOND
     1    1    6 ar
     2    1    2 ar
     3    1   22 1
     4    2    3 ar
     5    2   23 1
     6    3    4 ar
     7    3    9 1
     8    4    5 ar
     9    4    8 1
    10    5    6 ar
    11    5   24 1
    12    6    7 1
    13    9   13 1
    14    9   10 2
    15   10   11 1
    16   10   25 1
    17   11   12 2
    18   11   26 1
    19   12   13 1
    20   12   14 1
    21   14   15 2
    22   14   27 1
    23   15   21 1
    24   15   16 1
    25   16   17 2
    26   16   18 am
    27   18   19 am
    28   18   28 1
    29   19   20 2
    30   19   21 1
@<TRIPOS>MOLECULE
ZINC01774538
   23    24     0     0     0
SMALL
USER_CHARGES
5-[(3-nitrophenyl)methylene]thiazolidine-2,4-dione
@<TRIPOS>ATOM
      1 C1         -2.2853    4.0581    0.0436 C.ar      1 <0>        -0.1202
      2 C2         -1.1382    3.2938    0.0058 C.ar      1 <0>        -0.0008
      3 C3         -1.2300    1.8986    0.0544 C.ar      1 <0>        -0.0921
      4 C4         -2.4866    1.2906    0.1533 C.ar      1 <0>        -0.0217
      5 C5         -3.6233    2.0693    0.1963 C.ar      1 <0>        -0.0526
      6 C6         -3.5242    3.4490    0.1419 C.ar      1 <0>        -0.0323
      7 N1         -4.9534    1.4284    0.3013 N.pl3     1 <0>         0.0272
      8 O1         -5.0425    0.2146    0.3497 O.2       1 <0>        -0.1557
      9 O2         -5.9588    2.1148    0.3394 O.3       1 <0>        -0.1541
     10 C7         -0.0126    1.0758    0.0080 C.2       1 <0>         0.0740
     11 C8          1.0157    1.4317   -0.8009 C.2       1 <0>        -0.2064
     12 C9          1.0806    2.4876   -1.8336 C.2       1 <0>         0.5544
     13 O3          0.1274    3.2035   -2.0772 O.2       1 <0>        -0.4617
     14 N2          2.2294    2.6172   -2.4757 N.am      1 <0>        -0.6836
     15 C10         3.2810    1.8168   -2.2076 C.2       1 <0>         0.5530
     16 O4          4.3836    1.8214   -2.7208 O.2       1 <0>        -0.4056
     17 S1          2.6633    0.7481   -0.9174 S.3       1 <0>        -0.0302
     18 H1         -2.2165    5.1351    0.0016 H         1 <0>         0.1532
     19 H2         -0.1719    3.7707   -0.0657 H         1 <0>         0.1427
     20 H3         -2.5656    0.2144    0.1962 H         1 <0>         0.1611
     21 H4         -4.4186    4.0535    0.1759 H         1 <0>         0.1580
     22 H5          0.0609    0.1855    0.6148 H         1 <0>         0.1687
     23 H6          2.3161    3.3006   -3.1586 H         1 <0>         0.4248
@<TRIPOS>BOND
     1    1    6 ar
     2    1    2 ar
     3    1   18 1
     4    2    3 ar
     5    2   19 1
     6    3    4 ar
     7    3   10 1
     8    4    5 ar
     9    4   20 1
    10    5    6 ar
    11    5    7 1
    12    6   21 1
    13    7    8 2
    14    7    9 1
    15   10   11 2
    16   10   22 1
    17   11   17 1
    18   11   12 1
    19   12   13 2
    20   12   14 am
    21   14   15 am
    22   14   23 1
    23   15   16 2
    24   15   17 1
@<TRIPOS>MOLECULE
ZINC00974520
   28    30     0     0     0
SMALL
USER_CHARGES
5-[[5-(3-bromophenyl)-2-furyl]methylene]thiazolidine-2,4-dione
@<TRIPOS>ATOM
      1 C1          0.8993    2.1217   -1.6913 C.ar      1 <0>        -0.1122
      2 C2         -0.2310    1.4142   -1.3382 C.ar      1 <0>        -0.0736
      3 C3         -0.1620    0.0282   -1.1775 C.ar      1 <0>        -0.0254
      4 C4          1.0532   -0.6320   -1.3759 C.ar      1 <0>        -0.0633
      5 C5          2.1761    0.0883   -1.7288 C.ar      1 <0>        -0.0922
      6 C6          2.0997    1.4621   -1.8867 C.ar      1 <0>        -0.0767
      7 Br1         3.8223   -0.8023   -1.9980 Br        1 <0>        -0.0383
      8 C7         -1.3672   -0.7351   -0.7994 C.2       1 <0>         0.0737
      9 C8         -1.4281   -2.0881   -0.6183 C.2       1 <0>        -0.2057
     10 C9         -2.7444   -2.3979   -0.2671 C.2       1 <0>        -0.1207
     11 C10        -3.4454   -1.2049   -0.2562 C.2       1 <0>        -0.0390
     12 O1         -2.5884   -0.2143   -0.5819 O.3       1 <0>        -0.1062
     13 C11        -4.8164   -1.0510    0.0422 C.2       1 <0>         0.1139
     14 C12        -5.3537    0.1983    0.1571 C.2       1 <0>        -0.2304
     15 C13        -4.7017    1.4686    0.1850 C.2       1 <0>         0.5469
     16 O2         -3.4898    1.5537    0.0995 O.2       1 <0>        -0.4512
     17 N1         -5.4534    2.5494    0.3023 N.am      1 <0>        -0.6861
     18 C14        -6.7978    2.4541    0.4035 C.2       1 <0>         0.5544
     19 O3         -7.6184    3.3445    0.5203 O.2       1 <0>        -0.4137
     20 S1         -7.0645    0.6896    0.3216 S.3       1 <0>        -0.0438
     21 H1          0.8470    3.1932   -1.8161 H         1 <0>         0.1395
     22 H2         -1.1683    1.9301   -1.1907 H         1 <0>         0.1418
     23 H3          1.1138   -1.7033   -1.2529 H         1 <0>         0.1407
     24 H4          2.9812    2.0211   -2.1637 H         1 <0>         0.1386
     25 H5         -0.6114   -2.7867   -0.7248 H         1 <0>         0.1599
     26 H6         -3.1394   -3.3793   -0.0500 H         1 <0>         0.1661
     27 H7         -5.4402   -1.9219    0.1796 H         1 <0>         0.1815
     28 H8         -5.0337    3.4237    0.3204 H         1 <0>         0.4215
@<TRIPOS>BOND
     1    1    6 ar
     2    1    2 ar
     3    1   21 1
     4    2    3 ar
     5    2   22 1
     6    3    4 ar
     7    3    8 1
     8    4    5 ar
     9    4   23 1
    10    5    6 ar
    11    5    7 1
    12    6   24 1
    13    8   12 1
    14    8    9 2
    15    9   10 1
    16    9   25 1
    17   10   11 2
    18   10   26 1
    19   11   12 1
    20   11   13 1
    21   13   14 2
    22   13   27 1
    23   14   20 1
    24   14   15 1
    25   15   16 2
    26   15   17 am
    27   17   18 am
    28   17   28 1
    29   18   19 2
    30   18   20 1
@<TRIPOS>MOLECULE
ZINC16194447
   25    26     0     0     0
SMALL
USER_CHARGES
(5Z)-5-[(3,5-dibromo-4-methoxy-phenyl)methylene]thiazolidine-2,4-dione
@<TRIPOS>ATOM
      1 C1         -2.9276    4.3412   -0.9441 C.3       1 <0>         0.0321
      2 O1         -2.4609    3.7141    0.2521 O.3       1 <0>        -0.3177
      3 C2         -1.2642    3.0755    0.1870 C.ar      1 <0>         0.1778
      4 C3         -1.2144    1.7315   -0.1664 C.ar      1 <0>        -0.1102
      5 C4         -0.0036    1.0775   -0.2285 C.ar      1 <0>        -0.0370
      6 C5          1.1794    1.7713    0.0547 C.ar      1 <0>        -0.0889
      7 C6          1.1241    3.1260    0.4050 C.ar      1 <0>        -0.0232
      8 C7         -0.0924    3.7691    0.4692 C.ar      1 <0>        -0.1158
      9 Br1        -0.1691    5.5983    0.9426 Br        1 <0>        -0.0077
     10 C8          2.4734    1.0807   -0.0157 C.2       1 <0>         0.0734
     11 C9          2.5447   -0.1773   -0.5199 C.2       1 <0>        -0.2067
     12 C10         3.6858   -1.1134   -0.5563 C.2       1 <0>         0.5630
     13 O2          4.7715   -0.8163   -0.0933 O.2       1 <0>        -0.4642
     14 N1          3.4675   -2.2926   -1.1137 N.am      1 <0>        -0.6840
     15 C11         2.2648   -2.6154   -1.6312 C.2       1 <0>         0.5349
     16 O3          1.9287   -3.6517   -2.1721 O.2       1 <0>        -0.4112
     17 S1          1.2848   -1.1536   -1.3295 S.3       1 <0>        -0.0359
     18 Br2        -2.8123    0.7980   -0.5556 Br        1 <0>        -0.0061
     19 H1         -3.8916    4.8132   -0.7546 H         1 <0>         0.1084
     20 H2         -2.2093    5.0968   -1.2622 H         1 <0>         0.0553
     21 H3         -3.0378    3.5919   -1.7280 H         1 <0>         0.0556
     22 H4          0.0337    0.0327   -0.4994 H         1 <0>         0.1536
     23 H5          2.0336    3.6657    0.6240 H         1 <0>         0.1581
     24 H6          3.3684    1.5740    0.3336 H         1 <0>         0.1734
     25 H7          4.1901   -2.9384   -1.1550 H         1 <0>         0.4229
@<TRIPOS>BOND
     1    1    2 1
     2    1   19 1
     3    1   20 1
     4    1   21 1
     5    2    3 1
     6    3    8 ar
     7    3    4 ar
     8    4    5 ar
     9    4   18 1
    10    5    6 ar
    11    5   22 1
    12    6    7 ar
    13    6   10 1
    14    7    8 ar
    15    7   23 1
    16    8    9 1
    17   10   11 2
    18   10   24 1
    19   11   17 1
    20   11   12 1
    21   12   13 2
    22   12   14 am
    23   14   15 am
    24   14   25 1
    25   15   16 2
    26   15   17 1
@<TRIPOS>MOLECULE
ZINC13549069
   30    32     0     0     0
SMALL
USER_CHARGES
(5Z)-5-[[5-(2-nitrophenyl)-2-furyl]methylene]thiazolidine-2,4-dione
@<TRIPOS>ATOM
      1 C1         -6.9949    2.7256    0.9742 C.ar      1 <0>        -0.0621
      2 C2         -7.5708    1.8640    0.0522 C.ar      1 <0>        -0.1044
      3 C3         -6.7845    1.2027   -0.8798 C.ar      1 <0>        -0.0505
      4 C4         -5.4225    1.4010   -0.8992 C.ar      1 <0>         0.0096
      5 C5         -4.8325    2.2700    0.0375 C.ar      1 <0>         0.0401
      6 C6         -5.6450    2.9332    0.9760 C.ar      1 <0>        -0.0889
      7 C7         -3.3874    2.4867    0.0319 C.2       1 <0>         0.0253
      8 C8         -2.7513    3.7499    0.0352 C.2       1 <0>        -0.1621
      9 C9         -1.4097    3.5331    0.0338 C.2       1 <0>        -0.1196
     10 C10        -1.2274    2.0755    0.0192 C.2       1 <0>        -0.0310
     11 O1         -2.4578    1.5167    0.0224 O.3       1 <0>        -0.0914
     12 C11        -0.0169    1.3984    0.0097 C.2       1 <0>         0.0927
     13 C12         0.0021   -0.0041    0.0020 C.2       1 <0>        -0.2506
     14 C13         1.1732   -0.9347   -0.0203 C.2       1 <0>         0.5606
     15 O2          2.3166   -0.5287   -0.0345 O.2       1 <0>        -0.4672
     16 N1          0.8880   -2.2275   -0.0194 N.am      1 <0>        -0.6852
     17 C14        -0.3945   -2.6407   -0.0096 C.2       1 <0>         0.5345
     18 O3         -0.8160   -3.7798   -0.0117 O.2       1 <0>        -0.4163
     19 S1         -1.3273   -1.1207    0.0081 S.3       1 <0>         0.0272
     20 N2         -4.5825    0.7001   -1.8965 N.pl3     1 <0>        -0.0254
     21 O4         -5.1384   -0.1123   -2.7714 O.2       1 <0>        -0.1692
     22 O5         -3.2791    0.8889   -1.9088 O.3       1 <0>        -0.1386
     23 H1         -7.6175    3.2353    1.6946 H         1 <0>         0.1535
     24 H2         -8.6393    1.7071    0.0598 H         1 <0>         0.1550
     25 H3         -7.2422    0.5344   -1.5941 H         1 <0>         0.1620
     26 H4         -5.2019    3.6048    1.6963 H         1 <0>         0.1566
     27 H5         -3.2424    4.7117    0.0424 H         1 <0>         0.1653
     28 H6         -0.6325    4.2829    0.0397 H         1 <0>         0.1721
     29 H7          0.9109    1.9511    0.0038 H         1 <0>         0.1844
     30 H8          1.6055   -2.8802   -0.0304 H         1 <0>         0.4238
@<TRIPOS>BOND
     1    1    6 ar
     2    1    2 ar
     3    1   23 1
     4    2    3 ar
     5    2   24 1
     6    3    4 ar
     7    3   25 1
     8    4    5 ar
     9    4   20 1
    10    5    6 ar
    11    5    7 1
    12    6   26 1
    13    7   11 1
    14    7    8 2
    15    8    9 1
    16    8   27 1
    17    9   10 2
    18    9   28 1
    19   10   11 1
    20   10   12 1
    21   12   13 2
    22   12   29 1
    23   13   19 1
    24   13   14 1
    25   14   15 2
    26   14   16 am
    27   16   17 am
    28   16   30 1
    29   17   18 2
    30   17   19 1
    31   20   21 2
    32   20   22 1
@<TRIPOS>MOLECULE
ZINC00975836
   21    22     0     0     0
SMALL
USER_CHARGES
5-[(3,4-dichlorophenyl)methylene]thiazolidine-2,4-dione
@<TRIPOS>ATOM
      1 C1         -1.2758    3.1368    0.4487 C.ar      1 <0>        -0.0319
      2 C2         -0.1008    3.8557    0.5033 C.ar      1 <0>        -0.1046
      3 C3          1.1048    3.2430    0.2041 C.ar      1 <0>        -0.0086
      4 C4          1.1400    1.9031   -0.1520 C.ar      1 <0>        -0.0433
      5 C5         -0.0274    1.1712   -0.2105 C.ar      1 <0>        -0.0629
      6 C6         -1.2496    1.7858    0.0851 C.ar      1 <0>        -0.0819
      7 C7         -2.4989    1.0144    0.0194 C.2       1 <0>         0.0773
      8 C8         -3.6260    1.5895   -0.4685 C.2       1 <0>        -0.2091
      9 C9         -3.8042    2.8965   -1.1351 C.2       1 <0>         0.5526
     10 O1         -2.8680    3.6498   -1.3262 O.2       1 <0>        -0.4575
     11 N1         -5.0332    3.2051   -1.5136 N.am      1 <0>        -0.6842
     12 C10        -6.0679    2.3672   -1.2997 C.2       1 <0>         0.5537
     13 O2         -7.2382    2.5223   -1.5924 O.2       1 <0>        -0.4091
     14 S1         -5.3034    0.9718   -0.4893 S.3       1 <0>        -0.0372
     15 Cl1         2.6569    1.1454   -0.5245 Cl        1 <0>        -0.0405
     16 Cl2         2.5792    4.1568    0.2756 Cl        1 <0>        -0.0398
     17 H1         -2.2149    3.6163    0.6820 H         1 <0>         0.1390
     18 H2         -0.1204    4.8993    0.7805 H         1 <0>         0.1477
     19 H3          0.0009    0.1278   -0.4879 H         1 <0>         0.1508
     20 H4         -2.5194   -0.0104    0.3596 H         1 <0>         0.1656
     21 H5         -5.1941    4.0538   -1.9549 H         1 <0>         0.4239
@<TRIPOS>BOND
     1    1    6 ar
     2    1    2 ar
     3    1   17 1
     4    2    3 ar
     5    2   18 1
     6    3    4 ar
     7    3   16 1
     8    4    5 ar
     9    4   15 1
    10    5    6 ar
    11    5   19 1
    12    6    7 1
    13    7    8 2
    14    7   20 1
    15    8   14 1
    16    8    9 1
    17    9   10 2
    18    9   11 am
    19   11   12 am
    20   11   21 1
    21   12   13 2
    22   12   14 1
@<TRIPOS>MOLECULE
ZINC02119943
   31    33     0     0     0
SMALL
USER_CHARGES
5-[[5-(2-bromo-4-methyl-phenyl)-2-furyl]methylene]thiazolidine-2,4-dione
@<TRIPOS>ATOM
      1 C1         -8.3316   -2.7775   -0.3613 C.3       1 <0>        -0.1196
      2 C2         -7.5215   -1.5077   -0.3109 C.ar      1 <0>        -0.0630
      3 C3         -6.4326   -1.3517   -1.1512 C.ar      1 <0>        -0.1072
      4 C4         -5.6864   -0.1929   -1.1111 C.ar      1 <0>        -0.0725
      5 C5         -6.0317    0.8261   -0.2196 C.ar      1 <0>        -0.0126
      6 C6         -7.1292    0.6599    0.6299 C.ar      1 <0>        -0.0622
      7 C7         -7.8700   -0.5037    0.5746 C.ar      1 <0>        -0.0938
      8 Br1        -7.6020    2.0279    1.8469 Br        1 <0>        -0.0334
      9 C8         -5.2380    2.0691   -0.1709 C.2       1 <0>         0.0598
     10 C9         -5.7441    3.3481   -0.2226 C.2       1 <0>        -0.1899
     11 C10        -4.6558    4.2212   -0.1480 C.2       1 <0>        -0.1216
     12 C11        -3.5199    3.4373   -0.0531 C.2       1 <0>        -0.0441
     13 O1         -3.8981    2.1421   -0.0741 O.3       1 <0>        -0.0957
     14 C12        -2.1937    3.9105    0.0430 C.2       1 <0>         0.1159
     15 C13        -1.1529    3.0276    0.0505 C.2       1 <0>        -0.2324
     16 C14        -1.1579    1.6156   -0.1627 C.2       1 <0>         0.5449
     17 O2         -2.1948    1.0196   -0.3925 O.2       1 <0>        -0.4473
     18 N1         -0.0039    0.9744   -0.0991 N.am      1 <0>        -0.6861
     19 C15         1.1473    1.6369    0.1504 C.2       1 <0>         0.5546
     20 O3          2.2778    1.1958    0.2348 O.2       1 <0>        -0.4150
     21 S1          0.5884    3.3247    0.3244 S.3       1 <0>        -0.0454
     22 H1         -7.9165   -3.5014    0.3399 H         1 <0>         0.0782
     23 H2         -9.3647   -2.5603   -0.0902 H         1 <0>         0.0726
     24 H3         -8.2995   -3.1891   -1.3701 H         1 <0>         0.0734
     25 H4         -6.1666   -2.1400   -1.8400 H         1 <0>         0.1363
     26 H5         -4.8368   -0.0733   -1.7671 H         1 <0>         0.1388
     27 H6         -8.7210   -0.6322    1.2271 H         1 <0>         0.1404
     28 H7         -6.7849    3.6244   -0.3051 H         1 <0>         0.1597
     29 H8         -4.6941    5.3004   -0.1621 H         1 <0>         0.1653
     30 H9         -2.0025    4.9713    0.1105 H         1 <0>         0.1809
     31 H10         0.0176    0.0145   -0.2376 H         1 <0>         0.4211
@<TRIPOS>BOND
     1    1    2 1
     2    1   22 1
     3    1   23 1
     4    1   24 1
     5    2    7 ar
     6    2    3 ar
     7    3    4 ar
     8    3   25 1
     9    4    5 ar
    10    4   26 1
    11    5    6 ar
    12    5    9 1
    13    6    7 ar
    14    6    8 1
    15    7   27 1
    16    9   13 1
    17    9   10 2
    18   10   11 1
    19   10   28 1
    20   11   12 2
    21   11   29 1
    22   12   13 1
    23   12   14 1
    24   14   15 2
    25   14   30 1
    26   15   21 1
    27   15   16 1
    28   16   17 2
    29   16   18 am
    30   18   19 am
    31   18   31 1
    32   19   20 2
    33   19   21 1
@<TRIPOS>MOLECULE
ZINC01001756
   28    30     0     0     0
SMALL
USER_CHARGES
5-[[5-(3-chloro-4-fluoro-phenyl)-2-furyl]methylene]thiazolidine-2,4-dione
@<TRIPOS>ATOM
      1 C1         -7.4236    0.8859   -0.3224 C.ar      1 <0>        -0.0576
      2 C2         -8.1601   -0.2788   -0.3728 C.ar      1 <0>        -0.1393
      3 C3         -7.5232   -1.5080   -0.3118 C.ar      1 <0>         0.1235
      4 C4         -6.1414   -1.5750   -0.2051 C.ar      1 <0>        -0.0757
      5 C5         -5.3939   -0.4165   -0.1596 C.ar      1 <0>        -0.0543
      6 C6         -6.0315    0.8256   -0.2209 C.ar      1 <0>        -0.0280
      7 C7         -5.2379    2.0685   -0.1723 C.2       1 <0>         0.0670
      8 C8         -5.7441    3.3476   -0.2238 C.2       1 <0>        -0.2010
      9 C9         -4.6561    4.2207   -0.1484 C.2       1 <0>        -0.1222
     10 C10        -3.5200    3.4369   -0.0532 C.2       1 <0>        -0.0376
     11 O1         -3.8980    2.1416   -0.0748 O.3       1 <0>        -0.1012
     12 C11        -2.1942    3.9102    0.0436 C.2       1 <0>         0.1117
     13 C12        -1.1532    3.0272    0.0534 C.2       1 <0>        -0.2286
     14 C13        -1.1577    1.6155   -0.1595 C.2       1 <0>         0.5466
     15 O2         -2.1944    1.0194   -0.3904 O.2       1 <0>        -0.4499
     16 N1         -0.0039    0.9742   -0.0941 N.am      1 <0>        -0.6859
     17 C14         1.1470    1.6369    0.1564 C.2       1 <0>         0.5544
     18 O3          2.2776    1.1958    0.2421 O.2       1 <0>        -0.4129
     19 S1          0.5878    3.3247    0.3290 S.3       1 <0>        -0.0433
     20 Cl1        -5.3519   -3.1192   -0.1292 Cl        1 <0>        -0.0386
     21 F1         -8.2506   -2.6457   -0.3567 F         1 <0>        -0.1203
     22 H1         -7.9218    1.8432   -0.3656 H         1 <0>         0.1489
     23 H2         -9.2359   -0.2329   -0.4554 H         1 <0>         0.1554
     24 H3         -4.3184   -0.4693   -0.0766 H         1 <0>         0.1567
     25 H4         -6.7849    3.6238   -0.3061 H         1 <0>         0.1616
     26 H5         -4.6945    5.3000   -0.1614 H         1 <0>         0.1665
     27 H6         -2.0030    4.9711    0.1100 H         1 <0>         0.1819
     28 H7          0.0177    0.0142   -0.2317 H         1 <0>         0.4220
@<TRIPOS>BOND
     1    1    6 ar
     2    1    2 ar
     3    1   22 1
     4    2    3 ar
     5    2   23 1
     6    3    4 ar
     7    3   21 1
     8    4    5 ar
     9    4   20 1
    10    5    6 ar
    11    5   24 1
    12    6    7 1
    13    7   11 1
    14    7    8 2
    15    8    9 1
    16    8   25 1
    17    9   10 2
    18    9   26 1
    19   10   11 1
    20   10   12 1
    21   12   13 2
    22   12   27 1
    23   13   19 1
    24   13   14 1
    25   14   15 2
    26   14   16 am
    27   16   17 am
    28   16   28 1
    29   17   18 2
    30   17   19 1
@<TRIPOS>MOLECULE
ZINC17028451
   21    22     0     0     0
SMALL
USER_CHARGES
(5Z)-5-[(2-fluorophenyl)methylene]thiazolidine-2,4-dione
@<TRIPOS>ATOM
      1 C1          5.3240    3.1276    0.1502 C.ar      1 <0>        -0.1266
      2 C2          5.6597    4.4672    0.2533 C.ar      1 <0>        -0.0632
      3 C3          4.6732    5.4362    0.2757 C.ar      1 <0>        -0.1562
      4 C4          3.3422    5.0737    0.1952 C.ar      1 <0>         0.1374
      5 C5          2.9952    3.7198    0.0907 C.ar      1 <0>        -0.1286
      6 C6          4.0017    2.7472    0.0747 C.ar      1 <0>        -0.0650
      7 C7          1.5832    3.3234    0.0044 C.2       1 <0>         0.0708
      8 C8          1.2516    2.0905   -0.4540 C.2       1 <0>        -0.2107
      9 C9         -0.0656    1.4227   -0.4922 C.2       1 <0>         0.5645
     10 O1         -1.0719    1.9696   -0.0808 O.2       1 <0>        -0.4702
     11 N1         -0.0965    0.2026   -1.0012 N.am      1 <0>        -0.6991
     12 C10         1.0202   -0.3976   -1.4609 C.2       1 <0>         0.5416
     13 O2          1.1357   -1.5056   -1.9493 O.2       1 <0>        -0.4184
     14 S1          2.2884    0.8272   -1.1786 S.3       1 <0>        -0.0452
     15 F1          2.3789    6.0207    0.2176 F         1 <0>        -0.1267
     16 H1          6.1013    2.3779    0.1335 H         1 <0>         0.1404
     17 H2          6.6982    4.7570    0.3169 H         1 <0>         0.1416
     18 H3          4.9437    6.4787    0.3567 H         1 <0>         0.1452
     19 H4          3.7427    1.7015   -0.0010 H         1 <0>         0.1462
     20 H5          0.7949    4.0264    0.3115 H         1 <0>         0.1709
     21 H6         -1.0482   -0.3462   -1.0567 H         1 <0>         0.4513
@<TRIPOS>BOND
     1    1    6 ar
     2    1    2 ar
     3    1   16 1
     4    2    3 ar
     5    2   17 1
     6    3    4 ar
     7    3   18 1
     8    4    5 ar
     9    4   15 1
    10    5    6 ar
    11    5    7 1
    12    6   19 1
    13    7    8 2
    14    7   20 1
    15    8   14 1
    16    8    9 1
    17    9   10 2
    18    9   11 am
    19   11   12 am
    20   11   21 1
    21   12   13 2
    22   12   14 1
@<TRIPOS>MOLECULE
ZINC00975814
   28    30     0     0     0
SMALL
USER_CHARGES
5-[[5-(2,3-dichlorophenyl)-2-furyl]methylene]thiazolidine-2,4-dione
@<TRIPOS>ATOM
      1 C1         -6.4332   -1.3526   -1.1464 C.ar      1 <0>        -0.1021
      2 C2         -5.6875   -0.1929   -1.1071 C.ar      1 <0>        -0.0680
      3 C3         -6.0319    0.8261   -0.2157 C.ar      1 <0>        -0.0101
      4 C4         -7.1289    0.6602    0.6352 C.ar      1 <0>        -0.0094
      5 C5         -7.8701   -0.5044    0.5807 C.ar      1 <0>        -0.0337
      6 C6         -7.5213   -1.5092   -0.3061 C.ar      1 <0>        -0.0841
      7 Cl1        -9.2372   -0.7114    1.6304 Cl        1 <0>        -0.0380
      8 Cl2        -7.5623    1.9166    1.7521 Cl        1 <0>        -0.0316
      9 C7         -5.2382    2.0690   -0.1682 C.2       1 <0>         0.0577
     10 C8         -5.7442    3.3481   -0.2198 C.2       1 <0>        -0.1870
     11 C9         -4.6559    4.2212   -0.1460 C.2       1 <0>        -0.1229
     12 C10        -3.5199    3.4372   -0.0516 C.2       1 <0>        -0.0392
     13 O1         -3.8981    2.1420   -0.0729 O.3       1 <0>        -0.0956
     14 C11        -2.1938    3.9105    0.0444 C.2       1 <0>         0.1139
     15 C12        -1.1530    3.0275    0.0520 C.2       1 <0>        -0.2298
     16 C13        -1.1579    1.6156   -0.1613 C.2       1 <0>         0.5455
     17 O2         -2.1949    1.0196   -0.3910 O.2       1 <0>        -0.4479
     18 N1         -0.0040    0.9742   -0.0973 N.am      1 <0>        -0.6860
     19 C14         1.1472    1.6368    0.1521 C.2       1 <0>         0.5544
     20 O3          2.2778    1.1957    0.2362 O.2       1 <0>        -0.4138
     21 S1          0.5883    3.3246    0.3258 S.3       1 <0>        -0.0437
     22 H1         -6.1673   -2.1406   -1.8354 H         1 <0>         0.1471
     23 H2         -4.8386   -0.0730   -1.7640 H         1 <0>         0.1458
     24 H3         -8.1011   -2.4196   -0.3418 H         1 <0>         0.1488
     25 H4         -6.7851    3.6244   -0.3014 H         1 <0>         0.1597
     26 H5         -4.6942    5.3004   -0.1600 H         1 <0>         0.1664
     27 H6         -2.0026    4.9713    0.1118 H         1 <0>         0.1818
     28 H7          0.0174    0.0143   -0.2353 H         1 <0>         0.4215
@<TRIPOS>BOND
     1    1    6 ar
     2    1    2 ar
     3    1   22 1
     4    2    3 ar
     5    2   23 1
     6    3    4 ar
     7    3    9 1
     8    4    5 ar
     9    4    8 1
    10    5    6 ar
    11    5    7 1
    12    6   24 1
    13    9   13 1
    14    9   10 2
    15   10   11 1
    16   10   25 1
    17   11   12 2
    18   11   26 1
    19   12   13 1
    20   12   14 1
    21   14   15 2
    22   14   27 1
    23   15   21 1
    24   15   16 1
    25   16   17 2
    26   16   18 am
    27   18   19 am
    28   18   28 1
    29   19   20 2
    30   19   21 1
@<TRIPOS>MOLECULE
ZINC00975865
   29    30     0     0     0
SMALL
USER_CHARGES
5-[(3-ethoxy-2-hydroxy-phenyl)methylene]thiazolidine-2,4-dione
@<TRIPOS>ATOM
      1 C1         -0.3058   10.3406   -0.5068 C.3       1 <0>        -0.1527
      2 C2         -0.8671    8.9205   -0.4104 C.3       1 <0>         0.0519
      3 O1          0.2114    7.9860   -0.3361 O.3       1 <0>        -0.3057
      4 C3         -0.1175    6.6695   -0.2452 C.ar      1 <0>         0.0976
      5 C4         -1.4497    6.2879   -0.2277 C.ar      1 <0>        -0.1711
      6 C5         -1.7941    4.9495   -0.1350 C.ar      1 <0>        -0.0932
      7 C6         -0.8159    3.9819   -0.0654 C.ar      1 <0>        -0.0695
      8 C7          0.5349    4.3510   -0.0761 C.ar      1 <0>        -0.0864
      9 C8          0.8825    5.7073   -0.1696 C.ar      1 <0>         0.1100
     10 O2          2.1891    6.0777   -0.1856 O.3       1 <0>        -0.4810
     11 C9          1.5814    3.3245    0.0040 C.2       1 <0>         0.0897
     12 C10         1.4571    2.1721   -0.7023 C.2       1 <0>        -0.2152
     13 C11         0.4535    1.7937   -1.7168 C.2       1 <0>         0.5522
     14 O3         -0.4381    2.5530   -2.0482 O.2       1 <0>        -0.4571
     15 N1          0.5754    0.5903   -2.2511 N.am      1 <0>        -0.6848
     16 C12         1.5684   -0.2457   -1.8852 C.2       1 <0>         0.5534
     17 O4          1.7975   -1.3695   -2.2903 O.2       1 <0>        -0.4126
     18 S1          2.4646    0.6960   -0.6612 S.3       1 <0>        -0.0412
     19 H1         -1.1285   11.0534   -0.5635 H         1 <0>         0.0800
     20 H2          0.2989   10.5529    0.3749 H         1 <0>         0.0679
     21 H3          0.3121   10.4271   -1.4005 H         1 <0>         0.0668
     22 H4         -1.4717    8.7082   -1.2921 H         1 <0>         0.0627
     23 H5         -1.4850    8.8340    0.4834 H         1 <0>         0.0636
     24 H6         -2.2239    7.0387   -0.2864 H         1 <0>         0.1353
     25 H7         -2.8352    4.6626   -0.1221 H         1 <0>         0.1331
     26 H8         -1.0908    2.9397    0.0022 H         1 <0>         0.1285
     27 H9          2.5744    6.1225   -1.0714 H         1 <0>         0.3914
     28 H10         2.4501    3.4862    0.6249 H         1 <0>         0.1639
     29 H11        -0.0636    0.3024   -2.9217 H         1 <0>         0.4225
@<TRIPOS>BOND
     1    1    2 1
     2    1   19 1
     3    1   20 1
     4    1   21 1
     5    2    3 1
     6    2   22 1
     7    2   23 1
     8    3    4 1
     9    4    9 ar
    10    4    5 ar
    11    5    6 ar
    12    5   24 1
    13    6    7 ar
    14    6   25 1
    15    7    8 ar
    16    7   26 1
    17    8    9 ar
    18    8   11 1
    19    9   10 1
    20   10   27 1
    21   11   12 2
    22   11   28 1
    23   12   18 1
    24   12   13 1
    25   13   14 2
    26   13   15 am
    27   15   16 am
    28   15   29 1
    29   16   17 2
    30   16   18 1
@<TRIPOS>MOLECULE
ZINC13551648
   35    37     0     0     0
SMALL
USER_CHARGES
(5Z)-5-[[3-[(2,4-dichlorophenyl)methoxy]phenyl]methylene]thiazolidine-2,4-dione
@<TRIPOS>ATOM
      1 C1          0.2243    1.0089   -1.0176 C.ar      1 <0>        -0.0799
      2 C2          1.3083    1.8295   -0.7860 C.ar      1 <0>        -0.1123
      3 C3          2.4928    1.2925   -0.2698 C.ar      1 <0>        -0.0570
      4 C4          2.5695   -0.0761    0.0084 C.ar      1 <0>        -0.1214
      5 C5          1.4744   -0.8876   -0.2288 C.ar      1 <0>         0.1348
      6 C6          0.3033   -0.3439   -0.7415 C.ar      1 <0>        -0.1820
      7 O1          1.5445   -2.2181    0.0396 O.3       1 <0>        -0.3065
      8 C7          0.3769   -2.9967   -0.2297 C.3       1 <0>         0.1006
      9 C8          0.6402   -4.4370    0.1270 C.ar      1 <0>        -0.0808
     10 C9          1.8726   -4.8101    0.6300 C.ar      1 <0>        -0.0718
     11 C10         2.1149   -6.1308    0.9573 C.ar      1 <0>        -0.1022
     12 C11         1.1239   -7.0805    0.7812 C.ar      1 <0>        -0.0221
     13 C12        -0.1092   -6.7078    0.2780 C.ar      1 <0>        -0.0994
     14 C13        -0.3532   -5.3845   -0.0438 C.ar      1 <0>        -0.0193
     15 Cl1        -1.9032   -4.9143   -0.6683 Cl        1 <0>        -0.0511
     16 Cl2         1.4284   -8.7394    1.1924 Cl        1 <0>        -0.0514
     17 C14         3.6512    2.1629   -0.0206 C.2       1 <0>         0.0742
     18 C15         4.7320    1.6802    0.6404 C.2       1 <0>        -0.2120
     19 C16         6.0582    2.2971    0.8557 C.2       1 <0>         0.5621
     20 O2          6.3291    3.4000    0.4188 O.2       1 <0>        -0.4683
     21 N1          6.9347    1.5890    1.5478 N.am      1 <0>        -0.6855
     22 C17         6.6301    0.3672    2.0304 C.2       1 <0>         0.5278
     23 O3          7.3329   -0.3859    2.6770 O.2       1 <0>        -0.4171
     24 S1          4.9429    0.1259    1.4980 S.3       1 <0>        -0.0240
     25 H1         -0.6881    1.4236   -1.4202 H         1 <0>         0.1367
     26 H2          1.2431    2.8855   -1.0032 H         1 <0>         0.1382
     27 H3          3.4803   -0.4978    0.4072 H         1 <0>         0.1440
     28 H4         -0.5496   -0.9806   -0.9249 H         1 <0>         0.1357
     29 H5         -0.4554   -2.6212    0.3657 H         1 <0>         0.0870
     30 H6          0.1280   -2.9242   -1.2884 H         1 <0>         0.0869
     31 H7          2.6465   -4.0694    0.7669 H         1 <0>         0.1534
     32 H8          3.0779   -6.4217    1.3503 H         1 <0>         0.1450
     33 H9         -0.8830   -7.4486    0.1407 H         1 <0>         0.1488
     34 H10         3.6412    3.1867   -0.3641 H         1 <0>         0.1684
     35 H11         7.8172    1.9567    1.7117 H         1 <0>         0.4207
@<TRIPOS>BOND
     1    1    6 ar
     2    1    2 ar
     3    1   25 1
     4    2    3 ar
     5    2   26 1
     6    3    4 ar
     7    3   17 1
     8    4    5 ar
     9    4   27 1
    10    5    6 ar
    11    5    7 1
    12    6   28 1
    13    7    8 1
    14    8    9 1
    15    8   29 1
    16    8   30 1
    17    9   14 ar
    18    9   10 ar
    19   10   11 ar
    20   10   31 1
    21   11   12 ar
    22   11   32 1
    23   12   13 ar
    24   12   16 1
    25   13   14 ar
    26   13   33 1
    27   14   15 1
    28   17   18 2
    29   17   34 1
    30   18   24 1
    31   18   19 1
    32   19   20 2
    33   19   21 am
    34   21   22 am
    35   21   35 1
    36   22   23 2
    37   22   24 1
@<TRIPOS>MOLECULE
ZINC00975826
   28    30     0     0     0
SMALL
USER_CHARGES
5-[[5-(4-bromophenyl)-2-furyl]methylene]thiazolidine-2,4-dione
@<TRIPOS>ATOM
      1 C1          0.0142    0.9504   -1.0308 C.ar      1 <0>        -0.0833
      2 C2         -1.1799    1.5919   -1.2838 C.ar      1 <0>        -0.0906
      3 C3         -1.2083    2.9656   -1.4575 C.ar      1 <0>        -0.0799
      4 C4         -0.0379    3.7027   -1.3890 C.ar      1 <0>        -0.0901
      5 C5          1.1638    3.0731   -1.1423 C.ar      1 <0>        -0.0851
      6 C6          1.1988    1.6881   -0.9608 C.ar      1 <0>        -0.0158
      7 C7          2.4811    1.0076   -0.6960 C.2       1 <0>         0.0668
      8 C8          3.7109    1.6186   -0.6036 C.2       1 <0>        -0.2035
      9 C9          4.6475    0.6145   -0.3453 C.2       1 <0>        -0.1220
     10 C10         3.9496   -0.5786   -0.2895 C.2       1 <0>        -0.0406
     11 O1          2.6431   -0.3134   -0.4986 O.3       1 <0>        -0.1009
     12 C11         4.5071   -1.8528   -0.0493 C.2       1 <0>         0.1132
     13 C12         3.6945   -2.9444    0.0558 C.2       1 <0>        -0.2304
     14 C13         2.2689   -3.0152    0.0954 C.2       1 <0>         0.5464
     15 O2          1.5888   -2.0069    0.0324 O.2       1 <0>        -0.4496
     16 N1          1.7094   -4.2083    0.1975 N.am      1 <0>        -0.6860
     17 C14         2.4646   -5.3265    0.2747 C.2       1 <0>         0.5544
     18 O3          2.1046   -6.4841    0.3761 O.2       1 <0>        -0.4135
     19 S1          4.1254   -4.6741    0.1893 S.3       1 <0>        -0.0440
     20 Br1        -2.8514    3.8376   -1.7975 Br        1 <0>        -0.0416
     21 H1          0.0344   -0.1204   -0.8914 H         1 <0>         0.1451
     22 H2         -2.0956    1.0223   -1.3429 H         1 <0>         0.1392
     23 H3         -0.0664    4.7732   -1.5295 H         1 <0>         0.1418
     24 H4          2.0758    3.6490   -1.0899 H         1 <0>         0.1404
     25 H5          3.9135    2.6741   -0.7101 H         1 <0>         0.1606
     26 H6          5.7116    0.7448   -0.2144 H         1 <0>         0.1659
     27 H7          5.5766   -1.9640    0.0514 H         1 <0>         0.1814
     28 H8          0.7425   -4.2821    0.2225 H         1 <0>         0.4216
@<TRIPOS>BOND
     1    1    6 ar
     2    1    2 ar
     3    1   21 1
     4    2    3 ar
     5    2   22 1
     6    3    4 ar
     7    3   20 1
     8    4    5 ar
     9    4   23 1
    10    5    6 ar
    11    5   24 1
    12    6    7 1
    13    7   11 1
    14    7    8 2
    15    8    9 1
    16    8   25 1
    17    9   10 2
    18    9   26 1
    19   10   11 1
    20   10   12 1
    21   12   13 2
    22   12   27 1
    23   13   19 1
    24   13   14 1
    25   14   15 2
    26   14   16 am
    27   16   17 am
    28   16   28 1
    29   17   18 2
    30   17   19 1
@<TRIPOS>MOLECULE
ZINC15659798
   31    33     0     0     0
SMALL
USER_CHARGES
5-[5-[(Z)-(2,4-dioxothiazolidin-5-ylidene)methyl]-2-furyl]-2-hydroxy-benzoic acid
@<TRIPOS>ATOM
      1 C1          6.2500    6.2710   -0.0234 C.ar      1 <0>        -0.0697
      2 C2          6.5169    7.6221   -0.0191 C.ar      1 <0>        -0.1681
      3 C3          5.4760    8.5409   -0.0052 C.ar      1 <0>         0.1631
      4 C4          4.1453    8.0942    0.0042 C.ar      1 <0>        -0.1446
      5 C5          3.8744    6.7268   -0.0050 C.ar      1 <0>        -0.0259
      6 C6          4.9271    5.8135   -0.0136 C.ar      1 <0>        -0.0846
      7 C7          4.6472    4.3650   -0.0187 C.2       1 <0>         0.1183
      8 C8          5.5923    3.3638   -0.0327 C.2       1 <0>        -0.2251
      9 C9          4.9013    2.1498   -0.0263 C.2       1 <0>        -0.1110
     10 C10         3.5522    2.4573   -0.0180 C.2       1 <0>        -0.0616
     11 O1          3.4258    3.8011   -0.0101 O.3       1 <0>        -0.1427
     12 C11         2.4920    1.5268   -0.0127 C.2       1 <0>         0.1185
     13 C12         1.1989    1.9652    0.0012 C.2       1 <0>        -0.2472
     14 C13        -0.0144    1.2138    0.0087 C.2       1 <0>         0.5659
     15 O2          0.0021   -0.0041    0.0020 O.2       1 <0>        -0.4900
     16 N1         -1.1566    1.8788    0.0176 N.am      1 <0>        -0.6887
     17 C14        -1.1745    3.2302    0.0297 C.2       1 <0>         0.5380
     18 O3         -2.1325    3.9799    0.0428 O.2       1 <0>        -0.4141
     19 S1          0.5650    3.6365    0.0155 S.3       1 <0>         0.0012
     20 C15         3.0381    9.0677    0.0190 C.2       1 <0>         0.4875
     21 O4          3.2767   10.2591    0.0231 O.co2     1 <0>        -0.6131
     22 O5          5.7449    9.8698   -0.0011 O.3       1 <0>        -0.4744
     23 H1          7.0644    5.5618   -0.0338 H         1 <0>         0.1284
     24 H2          7.5398    7.9683   -0.0263 H         1 <0>         0.1325
     25 H3          2.8528    6.3765   -0.0019 H         1 <0>         0.1437
     26 H4          6.6645    3.4927   -0.0422 H         1 <0>         0.1602
     27 H5          5.3364    1.1613   -0.0295 H         1 <0>         0.1632
     28 H6          2.7030    0.4676   -0.0197 H         1 <0>         0.1815
     29 H7         -1.9943    1.3898    0.0188 H         1 <0>         0.4172
     30 H8          5.8149   10.2596   -0.8832 H         1 <0>         0.3906
     31 O6          1.7616    8.6362    0.0280 O.co2     1 <0>        -0.7486
@<TRIPOS>BOND
     1    1    6 ar
     2    1    2 ar
     3    1   23 1
     4    2    3 ar
     5    2   24 1
     6    3    4 ar
     7    3   22 1
     8    4    5 ar
     9    4   20 1
    10    5    6 ar
    11    5   25 1
    12    6    7 1
    13    7   11 1
    14    7    8 2
    15    8    9 1
    16    8   26 1
    17    9   10 2
    18    9   27 1
    19   10   11 1
    20   10   12 1
    21   12   13 2
    22   12   28 1
    23   13   19 1
    24   13   14 1
    25   14   15 2
    26   14   16 am
    27   16   17 am
    28   16   29 1
    29   17   18 2
    30   17   19 1
    31   20   21 2
    32   20   31 1
    33   22   30 1
@<TRIPOS>MOLECULE
ZINC00975828
   28    30     0     0     0
SMALL
USER_CHARGES
5-[[5-(3,4-dichlorophenyl)-2-furyl]methylene]thiazolidine-2,4-dione
@<TRIPOS>ATOM
      1 C1         -7.4238    0.8860   -0.3220 C.ar      1 <0>        -0.0758
      2 C2         -8.1599   -0.2792   -0.3722 C.ar      1 <0>        -0.0962
      3 C3         -7.5235   -1.5073   -0.3102 C.ar      1 <0>        -0.0221
      4 C4         -6.1428   -1.5746   -0.2032 C.ar      1 <0>        -0.0318
      5 C5         -5.3946   -0.4162   -0.1583 C.ar      1 <0>        -0.0715
      6 C6         -6.0317    0.8259   -0.2205 C.ar      1 <0>        -0.0120
      7 C7         -5.2379    2.0689   -0.1731 C.2       1 <0>         0.0635
      8 C8         -5.7439    3.3479   -0.2256 C.2       1 <0>        -0.1985
      9 C9         -4.6558    4.2211   -0.1508 C.2       1 <0>        -0.1233
     10 C10        -3.5199    3.4372   -0.0549 C.2       1 <0>        -0.0359
     11 O1         -3.8980    2.1420   -0.0759 O.3       1 <0>        -0.1007
     12 C11        -2.1938    3.9105    0.0420 C.2       1 <0>         0.1109
     13 C12        -1.1530    3.0275    0.0521 C.2       1 <0>        -0.2276
     14 C13        -1.1577    1.6155   -0.1605 C.2       1 <0>         0.5464
     15 O2         -2.1943    1.0193   -0.3912 O.2       1 <0>        -0.4494
     16 N1         -0.0038    0.9743   -0.0954 N.am      1 <0>        -0.6859
     17 C14         1.1471    1.6370    0.1551 C.2       1 <0>         0.5545
     18 O3          2.2776    1.1960    0.2409 O.2       1 <0>        -0.4126
     19 S1          0.5879    3.3248    0.3277 S.3       1 <0>        -0.0429
     20 Cl1        -5.3540   -3.1191   -0.1261 Cl        1 <0>        -0.0386
     21 Cl2        -8.4582   -2.9691   -0.3673 Cl        1 <0>        -0.0391
     22 H1         -7.9222    1.8432   -0.3660 H         1 <0>         0.1477
     23 H2         -9.2358   -0.2336   -0.4555 H         1 <0>         0.1525
     24 H3         -4.3191   -0.4693   -0.0750 H         1 <0>         0.1557
     25 H4         -6.7847    3.6241   -0.3088 H         1 <0>         0.1618
     26 H5         -4.6941    5.3003   -0.1648 H         1 <0>         0.1668
     27 H6         -2.0026    4.9714    0.1082 H         1 <0>         0.1821
     28 H7          0.0179    0.0144   -0.2334 H         1 <0>         0.4221
@<TRIPOS>BOND
     1    1    6 ar
     2    1    2 ar
     3    1   22 1
     4    2    3 ar
     5    2   23 1
     6    3    4 ar
     7    3   21 1
     8    4    5 ar
     9    4   20 1
    10    5    6 ar
    11    5   24 1
    12    6    7 1
    13    7   11 1
    14    7    8 2
    15    8    9 1
    16    8   25 1
    17    9   10 2
    18    9   26 1
    19   10   11 1
    20   10   12 1
    21   12   13 2
    22   12   27 1
    23   13   19 1
    24   13   14 1
    25   14   15 2
    26   14   16 am
    27   16   17 am
    28   16   28 1
    29   17   18 2
    30   17   19 1
