@<TRIPOS>MOLECULE
ZINC01489583
   40    43     0     0     0
SMALL
USER_CHARGES

@<TRIPOS>ATOM
      1 C1         -0.4141    0.4949   -1.7191 C.3       1 <0>        -0.1016
      2 C2         -0.3980   -0.8905   -1.1263 C.2       1 <0>        -0.0931
      3 C3         -0.6694   -2.0392   -1.7674 C.2       1 <0>        -0.1404
      4 C4         -0.5235   -3.1273   -0.7753 C.2       1 <0>         0.5461
      5 O1         -0.6902   -4.3106   -0.9895 O.2       1 <0>        -0.4413
      6 N1         -0.1743   -2.5828    0.4042 N.am      1 <0>        -0.3836
      7 C5         -0.0740   -1.2479    0.2725 C.2       1 <0>         0.5480
      8 O2          0.2285   -0.4683    1.1527 O.2       1 <0>        -0.4382
      9 N2          0.0555   -3.2973    1.5872 N.pl3     1 <0>        -0.4735
     10 C6          1.2201   -4.0194    1.7414 C.ar      1 <0>         0.4958
     11 C7          1.2865   -5.1029    2.6502 C.ar      1 <0>        -0.2047
     12 C8          2.5086   -5.8105    2.7682 C.ar      1 <0>         0.2291
     13 C9          2.5978   -6.8859    3.6615 C.ar      1 <0>        -0.1439
     14 C10         1.5119   -7.2416    4.4073 C.ar      1 <0>        -0.0289
     15 C11         0.3098   -6.5537    4.2981 C.ar      1 <0>        -0.2285
     16 C12         0.1840   -5.4882    3.4283 C.ar      1 <0>         0.1823
     17 O3         -0.9936   -4.8211    3.3267 O.3       1 <0>        -0.3269
     18 C13        -2.0689   -5.2737    4.1520 C.3       1 <0>         0.0265
     19 N3          3.5510   -5.4278    2.0172 N.ar      1 <0>        -0.5258
     20 C14         3.4361   -4.4077    1.1827 C.ar      1 <0>         0.4612
     21 N4          2.3021   -3.7196    1.0390 N.ar      1 <0>        -0.5778
     22 C15         4.6069   -4.0190    0.3748 C.2       1 <0>        -0.1253
     23 C16         5.8591   -4.5770    0.3437 C.2       1 <0>        -0.0902
     24 C17         6.8020   -4.0390   -0.5005 C.2       1 <0>        -0.1685
     25 C18         6.4664   -2.9741   -1.2762 C.2       1 <0>        -0.1632
     26 S1          4.7607   -2.7042   -0.8234 S.3       1 <0>         0.1114
     27 H1          0.5729    0.7315   -2.1165 H         1 <0>         0.0945
     28 H2         -1.1492    0.5376   -2.5229 H         1 <0>         0.0907
     29 H3         -0.6778    1.2175   -0.9469 H         1 <0>         0.0860
     30 H4         -0.9422   -2.1477   -2.8067 H         1 <0>         0.1911
     31 H5         -0.6047   -3.2841    2.2977 H         1 <0>         0.4473
     32 H6          3.5240   -7.4326    3.7594 H         1 <0>         0.1461
     33 H7          1.5881   -8.0720    5.0936 H         1 <0>         0.1403
     34 H8         -0.5351   -6.8553    4.8994 H         1 <0>         0.1397
     35 H9         -2.9490   -4.6561    3.9732 H         1 <0>         0.1072
     36 H10        -2.2987   -6.3119    3.9123 H         1 <0>         0.0661
     37 H11        -1.7790   -5.1984    5.2001 H         1 <0>         0.0659
     38 H12         6.1003   -5.4228    0.9705 H         1 <0>         0.1468
     39 H13         7.7968   -4.4570   -0.5464 H         1 <0>         0.1414
     40 H14         7.0740   -2.4332   -1.9866 H         1 <0>         0.1919
@<TRIPOS>BOND
     1    1    2 1
     2    1   27 1
     3    1   28 1
     4    1   29 1
     5    2    7 1
     6    2    3 2
     7    3    4 1
     8    3   30 1
     9    4    5 2
    10    4    6 am
    11    6    7 am
    12    6    9 1
    13    7    8 2
    14    9   10 1
    15    9   31 1
    16   10   21 ar
    17   10   11 ar
    18   11   16 ar
    19   11   12 ar
    20   12   13 ar
    21   12   19 ar
    22   13   14 ar
    23   13   32 1
    24   14   15 ar
    25   14   33 1
    26   15   16 ar
    27   15   34 1
    28   16   17 1
    29   17   18 1
    30   18   35 1
    31   18   36 1
    32   18   37 1
    33   19   20 ar
    34   20   21 ar
    35   20   22 1
    36   22   26 1
    37   22   23 2
    38   23   24 1
    39   23   38 1
    40   24   25 2
    41   24   39 1
    42   25   26 1
    43   25   40 1
@<TRIPOS>MOLECULE
ZINC03814434
   62    69     0     0     0
SMALL
USER_CHARGES

@<TRIPOS>ATOM
      1 C1         -0.1295    1.5952   -0.2973 C.3       1 <0>        -0.1687
      2 C2         -0.0862    0.0696   -0.1900 C.3       1 <0>         0.3342
      3 C3          0.5692   -0.4501   -1.4637 C.3       1 <0>         0.0405
      4 H1          1.4796    0.1159   -1.6612 H         1 <0>         0.1372
      5 C4          0.9167   -1.9328   -1.2889 C.3       1 <0>        -0.0061
      6 H2          1.3963   -2.3075   -2.1932 H         1 <0>         0.1555
      7 C5          1.8785   -2.0596   -0.1021 C.3       1 <0>        -0.1827
      8 C6          1.2061   -1.5198    1.1541 C.3       1 <0>         0.2999
      9 H3          1.9797   -1.4243    1.9161 H         1 <0>         0.1550
     10 O1          0.6555   -0.2442    0.9666 O.3       1 <0>        -0.3234
     11 N1          0.2189   -2.4746    1.6600 N.pl3     1 <0>        -0.5366
     12 C7          0.4705   -3.5508    2.4739 C.ar      1 <0>         0.1469
     13 C8          1.6649   -4.0152    3.0240 C.ar      1 <0>        -0.1522
     14 C9          1.5948   -5.1456    3.8201 C.ar      1 <0>        -0.0582
     15 C10         0.4006   -5.7997    4.0696 C.ar      1 <0>        -0.1457
     16 C11        -0.7984   -5.3597    3.5358 C.ar      1 <0>        -0.0280
     17 C12        -0.7487   -4.2198    2.7307 C.ar      1 <0>        -0.1131
     18 C13        -1.7893   -3.4830    2.0197 C.ar      1 <0>         0.0276
     19 C14        -1.1442   -2.4197    1.3841 C.ar      1 <0>         0.0376
     20 C15        -1.8806   -1.5095    0.6175 C.ar      1 <0>         0.0894
     21 N2         -1.4718   -0.3951   -0.1095 N.pl3     1 <0>        -0.5183
     22 C16        -2.5611    0.1913   -0.7090 C.ar      1 <0>         0.1618
     23 C17        -2.6521    1.3277   -1.5118 C.ar      1 <0>        -0.1305
     24 C18        -3.9109    1.6745   -1.9733 C.ar      1 <0>        -0.0737
     25 C19        -5.0393    0.9368   -1.6616 C.ar      1 <0>        -0.1358
     26 C20        -4.9745   -0.1955   -0.8662 C.ar      1 <0>        -0.0503
     27 C21        -3.7147   -0.5596   -0.3919 C.ar      1 <0>        -0.1042
     28 C22        -3.2693   -1.6660    0.4845 C.ar      1 <0>        -0.0360
     29 C23        -3.9084   -2.7313    1.1102 C.ar      1 <0>        -0.0288
     30 C24        -3.1873   -3.6421    1.8754 C.ar      1 <0>        -0.1255
     31 C25        -4.1221   -4.6480    2.4030 C.2       1 <0>         0.5632
     32 O2         -3.8062   -5.5851    3.1110 O.2       1 <0>        -0.5106
     33 N3         -5.3744   -4.3851    1.9926 N.am      1 <0>        -0.7162
     34 C26        -5.3495   -3.1771    1.1601 C.3       1 <0>         0.1358
     35 N4         -0.3067   -2.7008   -1.0216 N.4       1 <0>        -0.5252
     36 C27         0.0145   -4.1336   -0.9773 C.3       1 <0>        -0.0497
     37 O3         -0.3340   -0.2979   -2.5607 O.3       1 <0>        -0.3614
     38 C28         0.3101   -0.0933   -3.8198 C.3       1 <0>         0.0162
     39 H4          0.8261    2.0094    0.0240 H         1 <0>         0.0984
     40 H5         -0.3202    1.8814   -1.3317 H         1 <0>         0.1036
     41 H6         -0.9255    1.9818    0.3392 H         1 <0>         0.0921
     42 H7          2.1370   -3.1081    0.0458 H         1 <0>         0.1233
     43 H8          2.7835   -1.4869   -0.3048 H         1 <0>         0.1455
     44 H9          2.6036   -3.5149    2.8368 H         1 <0>         0.1365
     45 H10         2.5026   -5.5304    4.2610 H         1 <0>         0.1359
     46 H11         0.4045   -6.6780    4.6980 H         1 <0>         0.1352
     47 H12        -1.7278   -5.8736    3.7323 H         1 <0>         0.1600
     48 H13        -1.7792    1.9122   -1.7624 H         1 <0>         0.1440
     49 H14        -4.0153    2.5500   -2.5970 H         1 <0>         0.1336
     50 H15        -5.9967    1.2527   -2.0488 H         1 <0>         0.1332
     51 H16        -5.8575   -0.7687   -0.6249 H         1 <0>         0.1415
     52 H17        -6.1628   -4.9065    2.2103 H         1 <0>         0.4348
     53 H18        -5.9671   -2.3994    1.6094 H         1 <0>         0.1115
     54 H19        -5.7060   -3.4063    0.1559 H         1 <0>         0.1103
     55 H20        -0.6958   -2.4158   -0.1353 H         1 <0>         0.4186
     56 H21         0.4349   -4.4415   -1.9347 H         1 <0>         0.1256
     57 H22         0.7403   -4.3189   -0.1854 H         1 <0>         0.1191
     58 H23        -0.8932   -4.7035   -0.7789 H         1 <0>         0.1256
     59 H24         0.9168    0.8112   -3.7748 H         1 <0>         0.0633
     60 H25         0.9482   -0.9479   -4.0446 H         1 <0>         0.0514
     61 H26        -0.4433    0.0130   -4.6003 H         1 <0>         0.1100
     62 H27        -0.9785   -2.5293   -1.7546 H         1 <0>         0.4274
@<TRIPOS>BOND
     1    1    2 1
     2    1   39 1
     3    1   40 1
     4    1   41 1
     5    2   10 1
     6    2   21 1
     7    2    3 1
     8    3    4 1
     9    3    5 1
    10    3   37 1
    11    5    6 1
    12    5    7 1
    13    5   35 1
    14    7    8 1
    15    7   42 1
    16    7   43 1
    17    8    9 1
    18    8   10 1
    19    8   11 1
    20   11   19 1
    21   11   12 1
    22   12   17 ar
    23   12   13 ar
    24   13   14 ar
    25   13   44 1
    26   14   15 ar
    27   14   45 1
    28   15   16 ar
    29   15   46 1
    30   16   17 ar
    31   16   47 1
    32   17   18 1
    33   18   30 ar
    34   18   19 ar
    35   19   20 ar
    36   20   28 ar
    37   20   21 1
    38   21   22 1
    39   22   27 ar
    40   22   23 ar
    41   23   24 ar
    42   23   48 1
    43   24   25 ar
    44   24   49 1
    45   25   26 ar
    46   25   50 1
    47   26   27 ar
    48   26   51 1
    49   27   28 1
    50   28   29 ar
    51   29   34 1
    52   29   30 ar
    53   30   31 1
    54   31   32 2
    55   31   33 am
    56   33   34 1
    57   33   52 1
    58   34   53 1
    59   34   54 1
    60   35   36 1
    61   35   55 1
    62   35   62 1
    63   36   56 1
    64   36   57 1
    65   36   58 1
    66   37   38 1
    67   38   59 1
    68   38   60 1
    69   38   61 1
@<TRIPOS>MOLECULE
ZINC13831229
   65    70     0     0     0
SMALL
USER_CHARGES

@<TRIPOS>ATOM
      1 C1         -2.0927    0.6313   -0.5689 C.ar      1 <0>        -0.1231
      2 C2         -3.0798    0.7519    0.4011 C.ar      1 <0>        -0.0799
      3 C3         -3.3236   -0.3016    1.2591 C.ar      1 <0>        -0.0820
      4 C4         -2.5838   -1.4595    1.1414 C.ar      1 <0>        -0.1033
      5 C5         -1.5742   -1.6084    0.1639 C.ar      1 <0>        -0.1072
      6 C6         -1.3562   -0.5034   -0.6962 C.ar      1 <0>        -0.0635
      7 C7         -0.8946   -2.8910    0.1815 C.2       1 <0>        -0.0634
      8 C8         -1.2627   -3.8182    1.0988 C.2       1 <0>        -0.1297
      9 S1         -2.5653   -3.0081    2.0069 S.3       1 <0>         0.0748
     10 C9         -0.7157   -5.1758    1.2982 C.ar      1 <0>         0.3071
     11 C10        -1.2260   -6.0080    2.3019 C.ar      1 <0>        -0.2582
     12 C11        -0.6818   -7.2701    2.4501 C.ar      1 <0>         0.1966
     13 N1          0.2980   -7.6522    1.6454 N.ar      1 <0>        -0.5578
     14 C12         0.7625   -6.8443    0.7033 C.ar      1 <0>         0.5645
     15 N2          0.2679   -5.6302    0.5219 N.ar      1 <0>        -0.5506
     16 N3          1.7890   -7.2843   -0.1173 N.pl3     1 <0>        -0.6396
     17 C13         2.2383   -8.5990   -0.0259 C.ar      1 <0>         0.2030
     18 C14         3.5947   -8.8804   -0.1620 C.ar      1 <0>        -0.1525
     19 C15         4.0420  -10.1789   -0.0727 C.ar      1 <0>        -0.0739
     20 C16         3.1326  -11.2156    0.1555 C.ar      1 <0>        -0.1606
     21 C17         1.7712  -10.9297    0.2922 C.ar      1 <0>        -0.0414
     22 C18         1.3309   -9.6285    0.2070 C.ar      1 <0>        -0.1141
     23 C19         3.6087  -12.6089    0.2513 C.2       1 <0>         0.5713
     24 O1          3.0241  -13.4934   -0.3439 O.2       1 <0>        -0.5158
     25 N4          4.6915  -12.9011    0.9987 N.am      1 <0>        -0.6198
     26 C20         5.1265  -14.2935    1.1739 C.3       1 <0>         0.1161
     27 C21         5.2477  -14.5874    2.6725 C.3       1 <0>        -0.1547
     28 C22         6.1736  -13.5537    3.3177 C.3       1 <0>         0.0296
     29 C23         5.5771  -12.1547    3.1465 C.3       1 <0>        -0.1571
     30 C24         5.4629  -11.8329    1.6487 C.3       1 <0>         0.0965
     31 N5          6.3185  -13.8521    4.7488 N.4       1 <0>        -0.3932
     32 C25         6.9782  -15.1701    4.9328 C.3       1 <0>        -0.0065
     33 C26         7.5533  -15.0812    6.3688 C.3       1 <0>        -0.1453
     34 C27         8.0201  -13.6105    6.4637 C.3       1 <0>        -0.1447
     35 C28         7.2112  -12.8615    5.3885 C.3       1 <0>        -0.0094
     36 H1         -1.9095    1.4571   -1.2403 H         1 <0>         0.1325
     37 H2         -3.6523    1.6640    0.4837 H         1 <0>         0.1396
     38 H3         -4.0881   -0.2195    2.0175 H         1 <0>         0.1361
     39 H4         -0.5967   -0.5640   -1.4616 H         1 <0>         0.1293
     40 H5         -0.1072   -3.1035   -0.5264 H         1 <0>         0.1476
     41 H6         -2.0256   -5.6717    2.9453 H         1 <0>         0.1513
     42 H7         -1.0516   -7.9375    3.2145 H         1 <0>         0.1781
     43 H8          2.1944   -6.6764   -0.7552 H         1 <0>         0.4283
     44 H9          4.2968   -8.0789   -0.3383 H         1 <0>         0.1353
     45 H10         5.0945  -10.3966   -0.1791 H         1 <0>         0.1339
     46 H11         1.0661  -11.7285    0.4685 H         1 <0>         0.1340
     47 H12         0.2797   -9.4064    0.3165 H         1 <0>         0.1396
     48 H13         4.3923  -14.9646    0.7282 H         1 <0>         0.1136
     49 H14         6.0946  -14.4370    0.6939 H         1 <0>         0.0811
     50 H15         4.2622  -14.5319    3.1349 H         1 <0>         0.0918
     51 H16         5.6614  -15.5856    2.8152 H         1 <0>         0.1002
     52 H17         7.1516  -13.5926    2.8380 H         1 <0>         0.1384
     53 H18         4.5885  -12.1222    3.6045 H         1 <0>         0.0931
     54 H19         6.2253  -11.4216    3.6266 H         1 <0>         0.1000
     55 H20         6.4579  -11.7798    1.2067 H         1 <0>         0.0838
     56 H21         4.9507  -10.8799    1.5163 H         1 <0>         0.1218
     57 H22         6.2504  -15.9782    4.8593 H         1 <0>         0.1352
     58 H23         7.7787  -15.3046    4.2054 H         1 <0>         0.1338
     59 H24         6.7794  -15.2888    7.1078 H         1 <0>         0.0979
     60 H25         8.3960  -15.7619    6.4896 H         1 <0>         0.1168
     61 H26         7.8002  -13.2069    7.4521 H         1 <0>         0.1049
     62 H27         9.0872  -13.5379    6.2534 H         1 <0>         0.1037
     63 H28         7.8859  -12.4356    4.6459 H         1 <0>         0.1302
     64 H29         6.6189  -12.0726    5.8519 H         1 <0>         0.1313
     65 H30         5.4153  -13.8482    5.1986 H         1 <0>         0.4250
@<TRIPOS>BOND
     1    1    6 ar
     2    1    2 ar
     3    1   36 1
     4    2    3 ar
     5    2   37 1
     6    3    4 ar
     7    3   38 1
     8    4    9 1
     9    4    5 ar
    10    5    6 ar
    11    5    7 1
    12    6   39 1
    13    7    8 2
    14    7   40 1
    15    8    9 1
    16    8   10 1
    17   10   15 ar
    18   10   11 ar
    19   11   12 ar
    20   11   41 1
    21   12   13 ar
    22   12   42 1
    23   13   14 ar
    24   14   15 ar
    25   14   16 1
    26   16   17 1
    27   16   43 1
    28   17   22 ar
    29   17   18 ar
    30   18   19 ar
    31   18   44 1
    32   19   20 ar
    33   19   45 1
    34   20   21 ar
    35   20   23 1
    36   21   22 ar
    37   21   46 1
    38   22   47 1
    39   23   24 2
    40   23   25 am
    41   25   30 1
    42   25   26 1
    43   26   27 1
    44   26   48 1
    45   26   49 1
    46   27   28 1
    47   27   50 1
    48   27   51 1
    49   28   29 1
    50   28   31 1
    51   28   52 1
    52   29   30 1
    53   29   53 1
    54   29   54 1
    55   30   55 1
    56   30   56 1
    57   31   35 1
    58   31   32 1
    59   31   65 1
    60   32   33 1
    61   32   57 1
    62   32   58 1
    63   33   34 1
    64   33   59 1
    65   33   60 1
    66   34   35 1
    67   34   61 1
    68   34   62 1
    69   35   63 1
    70   35   64 1
@<TRIPOS>MOLECULE
ZINC13285379
   37    39     0     0     0
SMALL
USER_CHARGES

@<TRIPOS>ATOM
      1 C1         -0.1691    1.4999    0.0133 C.3       1 <0>        -0.1207
      2 C2         -0.1324   -0.0066    0.0047 C.ar      1 <0>        -0.0625
      3 C3         -0.1566   -0.6897   -1.2024 C.ar      1 <0>        -0.1000
      4 C4         -0.1236   -2.0647   -1.2260 C.ar      1 <0>        -0.0777
      5 C5         -0.0647   -2.7834   -0.0247 C.ar      1 <0>         0.1217
      6 C6         -0.0400   -2.0862    1.1945 C.ar      1 <0>         0.0674
      7 C7         -0.0692   -0.6972    1.1965 C.ar      1 <0>        -0.1239
      8 N1          0.0182   -2.7878    2.3884 N.pl3     1 <0>        -0.3561
      9 C8          0.0539   -2.4134    3.6956 C.2       1 <0>         0.0033
     10 C9          0.1071   -3.5485    4.4325 C.2       1 <0>         0.0091
     11 N2          0.1043   -4.5925    3.6025 N.2       1 <0>        -0.4435
     12 C10         0.0509   -4.1577    2.3589 C.2       1 <0>         0.1393
     13 C11         0.0232   -4.8407    1.0614 C.2       1 <0>         0.4957
     14 N3         -0.0326   -4.1400   -0.0479 N.2       1 <0>        -0.5390
     15 N4          0.0553   -6.2216    1.0061 N.pl3     1 <0>        -0.6977
     16 C12         0.0276   -6.9036   -0.2902 C.3       1 <0>         0.1069
     17 C13         0.0724   -8.4172   -0.0713 C.3       1 <0>        -0.0225
     18 N5          0.0446   -9.1010   -1.3711 N.4       1 <0>        -0.6304
     19 C14         0.0381   -1.0022    4.2239 C.3       1 <0>        -0.0925
     20 H1          0.8486    1.8884   -0.0244 H         1 <0>         0.0797
     21 H2         -0.7258    1.8548   -0.8540 H         1 <0>         0.0764
     22 H3         -0.6566    1.8463    0.9246 H         1 <0>         0.0719
     23 H4         -0.2020   -0.1383   -2.1299 H         1 <0>         0.1405
     24 H5         -0.1435   -2.5898   -2.1696 H         1 <0>         0.1433
     25 H6         -0.0462   -0.1582    2.1320 H         1 <0>         0.1436
     26 H7          0.1453   -3.5996    5.5106 H         1 <0>         0.1920
     27 H8          0.0962   -6.7390    1.8255 H         1 <0>         0.4260
     28 H9         -0.8879   -6.6400   -0.8199 H         1 <0>         0.0917
     29 H10         0.8905   -6.5962   -0.8810 H         1 <0>         0.0917
     30 H11         0.9878   -8.6807    0.4584 H         1 <0>         0.1427
     31 H12        -0.7905   -8.7245    0.5195 H         1 <0>         0.1427
     32 H13        -0.8028   -8.8570   -1.8614 H         1 <0>         0.4391
     33 H14         0.8434   -8.8165   -1.9180 H         1 <0>         0.4391
     34 H15        -0.9902   -0.6438    4.2724 H         1 <0>         0.0843
     35 H16         0.4771   -0.9828    5.2215 H         1 <0>         0.0972
     36 H17         0.6160   -0.3592    3.5601 H         1 <0>         0.0768
     37 H18         0.0741  -10.0992   -1.2267 H         1 <0>         0.4446
@<TRIPOS>BOND
     1    1    2 1
     2    1   20 1
     3    1   21 1
     4    1   22 1
     5    2    7 ar
     6    2    3 ar
     7    3    4 ar
     8    3   23 1
     9    4    5 ar
    10    4   24 1
    11    5   14 1
    12    5    6 ar
    13    6    7 ar
    14    6    8 1
    15    7   25 1
    16    8   12 1
    17    8    9 1
    18    9   10 2
    19    9   19 1
    20   10   11 1
    21   10   26 1
    22   11   12 2
    23   12   13 1
    24   13   14 2
    25   13   15 1
    26   15   16 1
    27   15   27 1
    28   16   17 1
    29   16   28 1
    30   16   29 1
    31   17   18 1
    32   17   30 1
    33   17   31 1
    34   18   32 1
    35   18   33 1
    36   18   37 1
    37   19   34 1
    38   19   35 1
    39   19   36 1
@<TRIPOS>MOLECULE
ZINC13535819
   21    23     0     0     0
SMALL
USER_CHARGES
6-chloro-9H-pyrido[3,4-b]indole
@<TRIPOS>ATOM
      1 C1         -2.4158    1.3474    0.0332 C.ar      1 <0>        -0.0665
      2 C2         -1.2391    2.0647    0.0301 C.ar      1 <0>        -0.1294
      3 C3         -0.0170    1.3998    0.0097 C.ar      1 <0>         0.1523
      4 C4          0.0021   -0.0041    0.0020 C.ar      1 <0>        -0.1022
      5 C5         -1.1950   -0.7169    0.0100 C.ar      1 <0>        -0.0433
      6 C6         -2.3962   -0.0398    0.0255 C.ar      1 <0>        -0.0663
      7 Cl1        -3.8889   -0.9261    0.0361 Cl        1 <0>        -0.0627
      8 C7          1.4185   -0.4007   -0.0136 C.ar      1 <0>        -0.0670
      9 C8          2.0938   -1.6208   -0.0266 C.ar      1 <0>        -0.1103
     10 C9          3.4724   -1.6148   -0.0397 C.ar      1 <0>         0.0603
     11 N1          4.1482   -0.4792   -0.0401 N.ar      1 <0>        -0.4525
     12 C10         3.5552    0.6966   -0.0281 C.ar      1 <0>         0.0979
     13 C11         2.1682    0.7882   -0.0144 C.ar      1 <0>         0.0863
     14 N2          1.2898    1.8547   -0.0003 N.pl3     1 <0>        -0.6033
     15 H1          1.5517    2.7887    0.0019 H         1 <0>         0.4235
     16 H2         -3.3612    1.8696    0.0457 H         1 <0>         0.1434
     17 H3         -1.2655    3.1444    0.0366 H         1 <0>         0.1379
     18 H4         -1.1822   -1.7969    0.0044 H         1 <0>         0.1389
     19 H5          1.5473   -2.5523   -0.0261 H         1 <0>         0.1402
     20 H6          4.0081   -2.5525   -0.0502 H         1 <0>         0.1631
     21 H7          4.1514    1.5971   -0.0293 H         1 <0>         0.1595
@<TRIPOS>BOND
     1    1    6 ar
     2    1    2 ar
     3    1   16 1
     4    2    3 ar
     5    2   17 1
     6    3   14 1
     7    3    4 ar
     8    4    5 ar
     9    4    8 1
    10    5    6 ar
    11    5   18 1
    12    6    7 1
    13    8   13 ar
    14    8    9 ar
    15    9   10 ar
    16    9   19 1
    17   10   11 ar
    18   10   20 1
    19   11   12 ar
    20   12   13 ar
    21   12   21 1
    22   13   14 1
    23   14   15 1
@<TRIPOS>MOLECULE
ZINC28332410
   52    55     0     0     0
SMALL
USER_CHARGES
2-amino-6-[2-(cyclopropylmethoxy)-6-hydroxy-phenyl]-4-(4-piperidyl)pyridine-3-carbonitrile
@<TRIPOS>ATOM
      1 C1          1.2296   -2.0678   -0.0293 C.ar      1 <0>        -0.0144
      2 C2          1.0414   -0.9626   -0.8387 C.ar      1 <0>        -0.2020
      3 C3         -0.1660   -0.2835   -0.8212 C.ar      1 <0>         0.2405
      4 C4         -1.1987   -0.7223    0.0155 C.ar      1 <0>        -0.2008
      5 C5         -0.9973   -1.8384    0.8349 C.ar      1 <0>         0.1982
      6 C6          0.2170   -2.5054    0.8038 C.ar      1 <0>        -0.2563
      7 O1         -1.9906   -2.2700    1.6540 O.3       1 <0>        -0.3111
      8 C7         -1.7155   -3.4192    2.4575 C.3       1 <0>         0.0599
      9 C8         -2.9431   -3.7529    3.3075 C.3       1 <0>        -0.2555
     10 C9         -2.7976   -3.6550    4.8275 C.3       1 <0>        -0.1225
     11 C10        -2.8910   -5.0259    4.1546 C.3       1 <0>        -0.1087
     12 C11        -2.4935   -0.0069    0.0374 C.ar      1 <0>         0.2858
     13 C12        -3.6824   -0.7333   -0.0553 C.ar      1 <0>        -0.2100
     14 C13        -4.8886   -0.0641   -0.0346 C.ar      1 <0>         0.0482
     15 C14        -4.8760    1.3332    0.0797 C.ar      1 <0>        -0.1668
     16 C15        -3.6403    1.9989    0.1688 C.ar      1 <0>         0.4751
     17 N1         -2.5080    1.3165    0.1504 N.ar      1 <0>        -0.5511
     18 N2         -3.6095    3.3779    0.2821 N.pl3     1 <0>        -0.8528
     19 C16        -6.1028    2.0714    0.1050 C.1       1 <0>         0.2517
     20 N3         -7.0760    2.6571    0.1250 N.1       1 <0>        -0.4106
     21 C17        -6.1899   -0.8177   -0.1331 C.3       1 <0>        -0.0658
     22 C18        -6.3023   -1.7999    1.0362 C.3       1 <0>        -0.1414
     23 C19        -7.5957   -2.6059    0.8964 C.3       1 <0>        -0.0010
     24 N4         -7.5870   -3.3329   -0.3795 N.4       1 <0>        -0.5357
     25 C20        -7.5281   -2.4071   -1.5178 C.3       1 <0>        -0.0035
     26 C21        -6.2319   -1.5962   -1.4510 C.3       1 <0>        -0.1426
     27 O2         -0.3485    0.8017   -1.6166 O.3       1 <0>        -0.4913
     28 H1          2.1733   -2.5925   -0.0483 H         1 <0>         0.1385
     29 H2          1.8382   -0.6275   -1.4862 H         1 <0>         0.1387
     30 H3          0.3729   -3.3696    1.4326 H         1 <0>         0.1336
     31 H4         -1.4771   -4.2732    1.8065 H         1 <0>         0.0666
     32 H5         -0.8595   -3.2099    3.1159 H         1 <0>         0.0612
     33 H6         -3.6414   -3.3407    2.5642 H         1 <0>         0.1253
     34 H7         -1.8607   -3.1337    5.0733 H         1 <0>         0.1037
     35 H8         -3.6486   -3.0946    5.2420 H         1 <0>         0.1043
     36 H9         -3.8192   -5.5989    4.0129 H         1 <0>         0.1042
     37 H10        -2.0313   -5.6380    3.8442 H         1 <0>         0.1027
     38 H11        -3.6579   -1.8095   -0.1427 H         1 <0>         0.1403
     39 H12        -2.6452    3.9026    0.3521 H         1 <0>         0.4417
     40 H13        -4.5493    3.9492    0.3022 H         1 <0>         0.4353
     41 H14        -7.0160   -0.0923   -0.0970 H         1 <0>         0.0969
     42 H15        -5.4398   -2.4826    1.0258 H         1 <0>         0.0981
     43 H16        -6.3167   -1.2417    1.9839 H         1 <0>         0.1144
     44 H17        -7.6716   -3.3242    1.7261 H         1 <0>         0.1367
     45 H18        -8.4578   -1.9232    0.9224 H         1 <0>         0.1277
     46 H19        -6.7086   -3.9938   -0.4189 H         1 <0>         0.4499
     47 H20        -7.5544   -2.9789   -2.4572 H         1 <0>         0.1374
     48 H21        -8.3896   -1.7242   -1.4800 H         1 <0>         0.1277
     49 H22        -6.1945   -0.8913   -2.2946 H         1 <0>         0.1148
     50 H23        -5.3688   -2.2762   -1.5029 H         1 <0>         0.0975
     51 H24        -1.3078    1.3397   -1.6014 H         1 <0>         0.4315
     52 H25        -8.5033   -3.9355   -0.4644 H         1 <0>         0.4561
@<TRIPOS>BOND
     1    1    6 ar
     2    1    2 ar
     3    1   28 1
     4    2    3 ar
     5    2   29 1
     6    3    4 ar
     7    3   27 1
     8    4    5 ar
     9    4   12 1
    10    5    6 ar
    11    5    7 1
    12    6   30 1
    13    7    8 1
    14    8    9 1
    15    8   31 1
    16    8   32 1
    17    9   11 1
    18    9   10 1
    19    9   33 1
    20   10   11 1
    21   10   34 1
    22   10   35 1
    23   11   36 1
    24   11   37 1
    25   12   17 ar
    26   12   13 ar
    27   13   14 ar
    28   13   38 1
    29   14   15 ar
    30   14   21 1
    31   15   16 ar
    32   15   19 1
    33   16   17 ar
    34   16   18 1
    35   18   39 1
    36   18   40 1
    37   19   20 3
    38   21   26 1
    39   21   22 1
    40   21   41 1
    41   22   23 1
    42   22   42 1
    43   22   43 1
    44   23   24 1
    45   23   44 1
    46   23   45 1
    47   24   25 1
    48   24   46 1
    49   24   52 1
    50   25   26 1
    51   25   47 1
    52   25   48 1
    53   26   49 1
    54   26   50 1
    55   27   51 1
@<TRIPOS>MOLECULE
ZINC00045266
   26    27     0     0     0
SMALL
USER_CHARGES
3-amino-4,6-dimethyl-thieno[5,4-b]pyridine-2-carboxamide
@<TRIPOS>ATOM
      1 C1         -1.3249   -0.7217    0.0403 C.3       1 <0>        -0.1408
      2 C2         -0.0334    0.0547    0.0292 C.ar      1 <0>         0.0281
      3 C3          1.1754   -0.6008    0.0525 C.ar      1 <0>        -0.1913
      4 C4          2.3624    0.1160    0.0431 C.ar      1 <0>         0.1886
      5 N1          2.3467    1.4344    0.0112 N.ar      1 <0>        -0.4599
      6 C5          1.2164    2.1069   -0.0125 C.ar      1 <0>         0.1390
      7 C6         -0.0461    1.4710   -0.0051 C.ar      1 <0>        -0.1955
      8 C7         -1.1904    2.3688   -0.0396 C.2       1 <0>         0.3005
      9 C8         -0.9560    3.7258   -0.0650 C.2       1 <0>        -0.3388
     10 S1          0.8224    3.8378   -0.0566 S.3       1 <0>         0.1099
     11 C9         -1.9025    4.7803   -0.0963 C.2       1 <0>         0.6223
     12 O1         -3.0941    4.5291   -0.0982 O.2       1 <0>        -0.5543
     13 N2         -1.4838    6.0611   -0.1241 N.am      1 <0>        -0.8511
     14 N3         -2.4857    1.8705   -0.0428 N.pl3     1 <0>        -0.8367
     15 C10         3.6792   -0.6164    0.0689 C.3       1 <0>        -0.1088
     16 H1         -1.6900   -0.8344   -0.9805 H         1 <0>         0.0880
     17 H2         -1.1532   -1.7062    0.4755 H         1 <0>         0.0854
     18 H3         -2.0657   -0.1862    0.6341 H         1 <0>         0.0843
     19 H4          1.2003   -1.6802    0.0787 H         1 <0>         0.1465
     20 H5         -0.5346    6.2612   -0.1226 H         1 <0>         0.4004
     21 H6         -2.1315    6.7828   -0.1455 H         1 <0>         0.4074
     22 H7         -3.2148    2.4126    0.2970 H         1 <0>         0.4186
     23 H8         -2.6619    0.9800   -0.3848 H         1 <0>         0.4013
     24 H9          4.0033   -0.8174   -0.9522 H         1 <0>         0.0883
     25 H10         4.4262   -0.0032    0.5731 H         1 <0>         0.0848
     26 H11         3.5606   -1.5583    0.6045 H         1 <0>         0.0836
@<TRIPOS>BOND
     1    1    2 1
     2    1   16 1
     3    1   17 1
     4    1   18 1
     5    2    7 ar
     6    2    3 ar
     7    3    4 ar
     8    3   19 1
     9    4    5 ar
    10    4   15 1
    11    5    6 ar
    12    6   10 1
    13    6    7 ar
    14    7    8 1
    15    8    9 2
    16    8   14 1
    17    9   10 1
    18    9   11 1
    19   11   12 2
    20   11   13 am
    21   13   20 1
    22   13   21 1
    23   14   22 1
    24   14   23 1
    25   15   24 1
    26   15   25 1
    27   15   26 1
@<TRIPOS>MOLECULE
ZINC03964325
   57    59     0     0     0
SMALL
USER_CHARGES

@<TRIPOS>ATOM
      1 C1          0.1489    2.0884    0.1150 C.3       1 <0>        -0.1876
      2 C2          0.1348    0.5603    0.1888 C.3       1 <0>        -0.0191
      3 N1         -1.2520    0.0881    0.2979 N.4       1 <0>        -0.3822
      4 C3         -1.9779    0.4111   -0.9377 C.3       1 <0>        -0.0142
      5 C4         -3.4549    0.0484   -0.7712 C.3       1 <0>        -0.1895
      6 C5         -1.2593   -1.3663    0.5041 C.3       1 <0>        -0.0265
      7 C6         -0.6131   -1.6936    1.8518 C.3       1 <0>         0.0952
      8 N2         -0.6203   -3.1440    2.0575 N.am      1 <0>        -0.7289
      9 C7         -0.0988   -3.6675    3.1846 C.2       1 <0>         0.6111
     10 O1          0.3779   -2.9358    4.0309 O.2       1 <0>        -0.5184
     11 C8         -0.1061   -5.1270    3.3915 C.2       1 <0>        -0.2420
     12 C9          0.9071   -6.0320    3.0089 C.2       1 <0>        -0.0577
     13 C10         0.4868   -7.2892    3.3960 C.2       1 <0>        -0.0075
     14 N3         -0.7476   -7.1595    3.9982 N.pl3     1 <0>        -0.4910
     15 H1         -1.2731   -7.8879    4.3645 H         1 <0>         0.4270
     16 C11        -1.1044   -5.8642    4.0022 C.2       1 <0>         0.1158
     17 C12        -2.3825   -5.3072    4.5743 C.3       1 <0>        -0.0999
     18 C13         1.1957   -8.4957    3.2079 C.2       1 <0>         0.0729
     19 C14         0.5100   -9.6674    2.9570 C.2       1 <0>        -0.1889
     20 C15         1.0648  -11.0377    2.8871 C.ar      1 <0>        -0.0736
     21 C16         2.3472  -11.5557    3.0375 C.ar      1 <0>        -0.1000
     22 C17         2.5553  -12.9162    2.9116 C.ar      1 <0>         0.0861
     23 C18         1.4888  -13.7593    2.6366 C.ar      1 <0>        -0.1139
     24 C19         0.2139  -13.2531    2.4856 C.ar      1 <0>        -0.1021
     25 C20        -0.0144  -11.8871    2.6092 C.ar      1 <0>         0.1282
     26 N4         -1.1765  -11.1301    2.5069 N.am      1 <0>        -0.6466
     27 C21        -0.9294   -9.8245    2.7079 C.2       1 <0>         0.5595
     28 O2         -1.7538   -8.9280    2.6842 O.2       1 <0>        -0.5156
     29 F1          3.7984  -13.4252    3.0561 F         1 <0>        -0.1318
     30 C22         2.1990   -5.6919    2.3116 C.3       1 <0>        -0.0931
     31 H2          1.1793    2.4435    0.1331 H         1 <0>         0.1076
     32 H3         -0.3308    2.4121   -0.8087 H         1 <0>         0.0811
     33 H4         -0.3916    2.4984    0.9682 H         1 <0>         0.0809
     34 H5          0.5888    0.1488   -0.7126 H         1 <0>         0.1317
     35 H6          0.6996    0.2334    1.0619 H         1 <0>         0.1337
     36 H7         -1.8867    1.4775   -1.1444 H         1 <0>         0.1351
     37 H8         -1.5554   -0.1571   -1.7664 H         1 <0>         0.1307
     38 H9         -3.5537   -1.0316   -0.6617 H         1 <0>         0.0802
     39 H10        -3.8523    0.5414    0.1160 H         1 <0>         0.0808
     40 H11        -4.0109    0.3769   -1.6492 H         1 <0>         0.1074
     41 H12        -2.2871   -1.7292    0.4963 H         1 <0>         0.1397
     42 H13        -0.6973   -1.8494   -0.2952 H         1 <0>         0.1376
     43 H14         0.4147   -1.3306    1.8596 H         1 <0>         0.0893
     44 H15        -1.1751   -1.2105    2.6511 H         1 <0>         0.0890
     45 H16        -1.0005   -3.7277    1.3824 H         1 <0>         0.4099
     46 H17        -3.1529   -5.3000    3.8032 H         1 <0>         0.0840
     47 H18        -2.7087   -5.9289    5.4080 H         1 <0>         0.0782
     48 H19        -2.2103   -4.2898    4.9254 H         1 <0>         0.0840
     49 H20         2.2744   -8.5020    3.2604 H         1 <0>         0.1589
     50 H21         3.1765  -10.8977    3.2512 H         1 <0>         0.1436
     51 H22         1.6578  -14.8215    2.5394 H         1 <0>         0.1485
     52 H23        -0.6084  -13.9196    2.2712 H         1 <0>         0.1415
     53 H24        -2.0541  -11.4980    2.3189 H         1 <0>         0.4217
     54 H25         2.9686   -5.4822    3.0545 H         1 <0>         0.0785
     55 H26         2.5107   -6.5337    1.6932 H         1 <0>         0.0726
     56 H27         2.0522   -4.8138    1.6827 H         1 <0>         0.0634
     57 H28        -1.7009    0.5410    1.0799 H         1 <0>         0.4247
@<TRIPOS>BOND
     1    1    2 1
     2    1   31 1
     3    1   32 1
     4    1   33 1
     5    2    3 1
     6    2   34 1
     7    2   35 1
     8    3    4 1
     9    3    6 1
    10    3   57 1
    11    4    5 1
    12    4   36 1
    13    4   37 1
    14    5   38 1
    15    5   39 1
    16    5   40 1
    17    6    7 1
    18    6   41 1
    19    6   42 1
    20    7    8 1
    21    7   43 1
    22    7   44 1
    23    8    9 am
    24    8   45 1
    25    9   10 2
    26    9   11 1
    27   11   16 2
    28   11   12 1
    29   12   13 2
    30   12   30 1
    31   13   14 1
    32   13   18 1
    33   14   15 1
    34   14   16 1
    35   16   17 1
    36   17   46 1
    37   17   47 1
    38   17   48 1
    39   18   19 2
    40   18   49 1
    41   19   27 1
    42   19   20 1
    43   20   25 ar
    44   20   21 ar
    45   21   22 ar
    46   21   50 1
    47   22   23 ar
    48   22   29 1
    49   23   24 ar
    50   23   51 1
    51   24   25 ar
    52   24   52 1
    53   25   26 1
    54   26   27 am
    55   26   53 1
    56   27   28 2
    57   30   54 1
    58   30   55 1
    59   30   56 1
@<TRIPOS>MOLECULE
ZINC00009090
   35    38     0     0     0
SMALL
USER_CHARGES

@<TRIPOS>ATOM
      1 C1          0.1350    1.1059    1.1500 C.ar      1 <0>        -0.1718
      2 C2          1.3390    1.7878    1.1796 C.ar      1 <0>        -0.0064
      3 C3          2.4492    1.2011    0.5607 C.ar      1 <0>        -0.2024
      4 C4          2.2979   -0.0410   -0.0578 C.ar      1 <0>         0.1374
      5 N1          1.1309   -0.6505   -0.0591 N.ar      1 <0>        -0.4840
      6 C5          0.0676   -0.1215    0.5161 C.ar      1 <0>         0.1363
      7 C6          3.7593    1.8855    0.5618 C.2       1 <0>         0.5731
      8 O1          3.8794    2.9673    1.1033 O.2       1 <0>        -0.4951
      9 N2          4.8206    1.3103   -0.0374 N.am      1 <0>        -0.6714
     10 C7          6.0304    2.0074   -0.1381 C.ar      1 <0>         0.1582
     11 C8          6.0360    3.3913   -0.1176 C.ar      1 <0>        -0.0639
     12 C9          7.2292    4.0908   -0.2173 C.ar      1 <0>        -0.0265
     13 C10         8.4246    3.4139   -0.3375 C.ar      1 <0>        -0.0519
     14 C11         8.4364    2.0193   -0.3593 C.ar      1 <0>        -0.0919
     15 C12         7.2337    1.3064   -0.2536 C.ar      1 <0>         0.1353
     16 N3          7.5215   -0.0477   -0.2943 N.pl3     1 <0>        -0.5815
     17 H1          6.8617   -0.7568   -0.2430 H         1 <0>         0.4350
     18 C13         8.8832   -0.2433   -0.4184 C.ar      1 <0>         0.1249
     19 C14         9.5062    1.0160   -0.4729 C.ar      1 <0>         0.0073
     20 C15        10.8934    1.0731   -0.6000 C.ar      1 <0>        -0.0596
     21 C16        11.6006   -0.1078   -0.6828 C.ar      1 <0>         0.0801
     22 N4         10.9835   -1.2754   -0.6432 N.ar      1 <0>        -0.4172
     23 C17         9.6779   -1.3804   -0.5022 C.ar      1 <0>         0.1203
     24 Cl1         7.2180    5.8265   -0.1910 Cl        1 <0>        -0.0255
     25 H2         -0.7416    1.5258    1.6208 H         1 <0>         0.1523
     26 H3          1.4198    2.7480    1.6673 H         1 <0>         0.1535
     27 H4          3.1453   -0.5059   -0.5396 H         1 <0>         0.1521
     28 H5         -0.8707   -0.6557    0.4915 H         1 <0>         0.1700
     29 H6          4.7462    0.4132   -0.3989 H         1 <0>         0.4118
     30 H7          5.1047    3.9301   -0.0237 H         1 <0>         0.1780
     31 H8          9.3512    3.9634   -0.4152 H         1 <0>         0.1549
     32 H9         11.4043    2.0241   -0.6333 H         1 <0>         0.1882
     33 H10        12.6757   -0.0779   -0.7818 H         1 <0>         0.2135
     34 H11         9.2195   -2.3578   -0.4714 H         1 <0>         0.2099
     35 H12        11.5132   -2.0857   -0.7041 H         1 <0>         0.4570
@<TRIPOS>BOND
     1    1    6 ar
     2    1    2 ar
     3    1   25 1
     4    2    3 ar
     5    2   26 1
     6    3    4 ar
     7    3    7 1
     8    4    5 ar
     9    4   27 1
    10    5    6 ar
    11    6   28 1
    12    7    8 2
    13    7    9 am
    14    9   10 1
    15    9   29 1
    16   10   15 ar
    17   10   11 ar
    18   11   12 ar
    19   11   30 1
    20   12   13 ar
    21   12   24 1
    22   13   14 ar
    23   13   31 1
    24   14   19 1
    25   14   15 ar
    26   15   16 1
    27   16   17 1
    28   16   18 1
    29   18   23 ar
    30   18   19 ar
    31   19   20 ar
    32   20   21 ar
    33   20   32 1
    34   21   22 ar
    35   21   33 1
    36   22   23 ar
    37   22   35 1
    38   23   34 1
@<TRIPOS>MOLECULE
ZINC00009090
   34    37     0     0     0
SMALL
USER_CHARGES

@<TRIPOS>ATOM
      1 C1          0.1350    1.1059    1.1500 C.ar      1 <0>        -0.1752
      2 C2          1.3390    1.7878    1.1796 C.ar      1 <0>        -0.0101
      3 C3          2.4492    1.2011    0.5607 C.ar      1 <0>        -0.1940
      4 C4          2.2979   -0.0410   -0.0578 C.ar      1 <0>         0.1367
      5 N1          1.1309   -0.6505   -0.0591 N.ar      1 <0>        -0.4846
      6 C5          0.0676   -0.1215    0.5161 C.ar      1 <0>         0.1291
      7 C6          3.7593    1.8855    0.5618 C.2       1 <0>         0.5678
      8 O1          3.8794    2.9673    1.1033 O.2       1 <0>        -0.5025
      9 N2          4.8206    1.3103   -0.0374 N.am      1 <0>        -0.6653
     10 C7          6.0304    2.0074   -0.1381 C.ar      1 <0>         0.1403
     11 C8          6.0360    3.3913   -0.1176 C.ar      1 <0>        -0.0840
     12 C9          7.2292    4.0908   -0.2173 C.ar      1 <0>        -0.0420
     13 C10         8.4246    3.4139   -0.3375 C.ar      1 <0>        -0.0589
     14 C11         8.4364    2.0193   -0.3593 C.ar      1 <0>        -0.0781
     15 C12         7.2337    1.3064   -0.2536 C.ar      1 <0>         0.1285
     16 N3          7.5215   -0.0477   -0.2943 N.pl3     1 <0>        -0.6027
     17 H1          6.8617   -0.7568   -0.2430 H         1 <0>         0.4199
     18 C13         8.8832   -0.2433   -0.4184 C.ar      1 <0>         0.0895
     19 C14         9.5062    1.0160   -0.4729 C.ar      1 <0>        -0.0646
     20 C15        10.8934    1.0731   -0.6000 C.ar      1 <0>        -0.1074
     21 C16        11.6006   -0.1078   -0.6828 C.ar      1 <0>         0.0610
     22 N4         10.9835   -1.2754   -0.6432 N.ar      1 <0>        -0.4507
     23 C17         9.6779   -1.3804   -0.5022 C.ar      1 <0>         0.0977
     24 Cl1         7.2180    5.8265   -0.1910 Cl        1 <0>        -0.0539
     25 H2         -0.7416    1.5258    1.6208 H         1 <0>         0.1486
     26 H3          1.4198    2.7480    1.6673 H         1 <0>         0.1518
     27 H4          3.1453   -0.5059   -0.5396 H         1 <0>         0.1550
     28 H5         -0.8707   -0.6557    0.4915 H         1 <0>         0.1664
     29 H6          4.7462    0.4132   -0.3989 H         1 <0>         0.4090
     30 H7          5.1047    3.9301   -0.0237 H         1 <0>         0.1659
     31 H8          9.3512    3.9634   -0.4152 H         1 <0>         0.1423
     32 H9         11.4043    2.0241   -0.6333 H         1 <0>         0.1416
     33 H10        12.6757   -0.0779   -0.7818 H         1 <0>         0.1636
     34 H11         9.2195   -2.3578   -0.4714 H         1 <0>         0.1595
@<TRIPOS>BOND
     1    1    6 ar
     2    1    2 ar
     3    1   25 1
     4    2    3 ar
     5    2   26 1
     6    3    4 ar
     7    3    7 1
     8    4    5 ar
     9    4   27 1
    10    5    6 ar
    11    6   28 1
    12    7    8 2
    13    7    9 am
    14    9   10 1
    15    9   29 1
    16   10   15 ar
    17   10   11 ar
    18   11   12 ar
    19   11   30 1
    20   12   13 ar
    21   12   24 1
    22   13   14 ar
    23   13   31 1
    24   14   19 1
    25   14   15 ar
    26   15   16 1
    27   16   17 1
    28   16   18 1
    29   18   23 ar
    30   18   19 ar
    31   19   20 ar
    32   20   21 ar
    33   20   32 1
    34   21   22 ar
    35   21   33 1
    36   22   23 ar
    37   23   34 1
@<TRIPOS>MOLECULE
ZINC13535827
   22    24     0     0     0
SMALL
USER_CHARGES
9H-pyrido[3,4-b]indole-6-carbonitrile
@<TRIPOS>ATOM
      1 C1         -1.2383    3.1612    0.0319 C.ar      1 <0>        -0.0296
      2 C2         -0.0695    3.8643    0.0233 C.ar      1 <0>        -0.1408
      3 C3          1.1546    3.1975    0.0078 C.ar      1 <0>         0.1765
      4 C4          1.1786    1.7913    0.0004 C.ar      1 <0>        -0.1175
      5 C5         -0.0126    1.0758    0.0080 C.ar      1 <0>         0.0035
      6 C6         -1.2263    1.7607    0.0174 C.ar      1 <0>        -0.0615
      7 C7         -2.4598    1.0332    0.0198 C.1       1 <0>         0.2555
      8 N1         -3.4383    0.4562    0.0216 N.1       1 <0>        -0.4152
      9 C8          2.5972    1.4004   -0.0153 C.ar      1 <0>        -0.0617
     10 C9          3.2790    0.1845   -0.0281 C.ar      1 <0>        -0.1125
     11 C10         4.6578    0.1979   -0.0417 C.ar      1 <0>         0.0640
     12 N2          5.3276    1.3370   -0.0424 N.ar      1 <0>        -0.4535
     13 C11         4.7279    2.5095   -0.0307 C.ar      1 <0>         0.1012
     14 C12         3.3405    2.5932   -0.0164 C.ar      1 <0>         0.0809
     15 N3          2.4566    3.6555   -0.0025 N.pl3     1 <0>        -0.5993
     16 H1          2.7148    4.5905    0.0001 H         1 <0>         0.4248
     17 H2         -2.1806    3.6887    0.0440 H         1 <0>         0.1425
     18 H3         -0.0926    4.9440    0.0290 H         1 <0>         0.1389
     19 H4          0.0021   -0.0041    0.0020 H         1 <0>         0.1392
     20 H5          2.7377   -0.7501   -0.0278 H         1 <0>         0.1412
     21 H6          5.1986   -0.7369   -0.0516 H         1 <0>         0.1634
     22 H7          5.3190    3.4134   -0.0318 H         1 <0>         0.1600
@<TRIPOS>BOND
     1    1    6 ar
     2    1    2 ar
     3    1   17 1
     4    2    3 ar
     5    2   18 1
     6    3   15 1
     7    3    4 ar
     8    4    5 ar
     9    4    9 1
    10    5    6 ar
    11    5   19 1
    12    6    7 1
    13    7    8 3
    14    9   14 ar
    15    9   10 ar
    16   10   11 ar
    17   10   20 1
    18   11   12 ar
    19   11   21 1
    20   12   13 ar
    21   13   14 ar
    22   13   22 1
    23   14   15 1
    24   15   16 1
