@<TRIPOS>MOLECULE
ZINC13579788
   64    66     0     0     0
SMALL
USER_CHARGES

@<TRIPOS>ATOM
      1 C1         -0.0173    1.4248    0.0099 C.3       1 <0>         0.0328
      2 O1          0.0021   -0.0041    0.0020 O.3       1 <0>        -0.3497
      3 C2         -1.1855   -0.6297    0.0100 C.2       1 <0>         0.4464
      4 O2         -2.2076    0.0145    0.0232 O.2       1 <0>        -0.4936
      5 C3         -1.2439   -2.1355    0.0025 C.3       1 <0>         0.1656
      6 H1         -0.7361   -2.5233    0.8856 H         1 <0>         0.1310
      7 C4         -0.5550   -2.6664   -1.2563 C.3       1 <0>        -0.0879
      8 C5         -0.5046   -4.1716   -1.2045 C.ar      1 <0>        -0.0792
      9 C6          0.5772   -4.8045   -0.6178 C.ar      1 <0>        -0.1073
     10 C7          0.6302   -6.1817   -0.5668 C.ar      1 <0>        -0.0914
     11 C8         -0.4122   -6.9382   -1.1089 C.ar      1 <0>         0.0234
     12 C9         -1.5015   -6.2921   -1.6993 C.ar      1 <0>        -0.0927
     13 C10        -1.5430   -4.9140   -1.7387 C.ar      1 <0>        -0.1101
     14 C11        -0.3641   -8.3685   -1.0601 C.1       1 <0>        -0.1321
     15 C12        -0.3247   -9.5412   -1.0201 C.1       1 <0>        -0.0983
     16 C13        -0.2766  -10.9715   -0.9713 C.ar      1 <0>         0.0023
     17 C14         0.8102  -11.6175   -0.3762 C.ar      1 <0>        -0.0928
     18 C15         0.8497  -12.9955   -0.3329 C.ar      1 <0>        -0.1183
     19 C16        -0.1835  -13.7381   -0.8769 C.ar      1 <0>        -0.1043
     20 C17        -1.2630  -13.1053   -1.4678 C.ar      1 <0>        -0.1185
     21 C18        -1.3190  -11.7279   -1.5134 C.ar      1 <0>        -0.0930
     22 N1         -2.6430   -2.5700    0.0135 N.am      1 <0>        -0.7038
     23 C19        -3.3056   -2.6789    1.1821 C.2       1 <0>         0.5256
     24 O3         -2.7436   -2.4173    2.2245 O.2       1 <0>        -0.5450
     25 C20        -4.7448   -3.1258    1.1934 C.3       1 <0>        -0.1399
     26 C21        -5.2554   -3.1647    2.6352 C.3       1 <0>        -0.0830
     27 H2         -5.0987   -2.1928    3.1030 H         1 <0>         0.0920
     28 C22        -6.7489   -3.4988    2.6393 C.3       1 <0>        -0.1236
     29 C23        -7.2678   -3.5056    4.0790 C.3       1 <0>        -0.1403
     30 C24        -6.5291   -4.5834    4.8787 C.3       1 <0>         0.1078
     31 N2         -5.0830   -4.3527    4.7596 N.pl3     1 <0>        -0.6075
     32 C25        -4.4933   -4.2381    3.4187 C.3       1 <0>         0.1049
     33 C26        -4.3000   -4.2462    5.8761 C.cat     1 <0>         0.7505
     34 N3         -4.7827   -3.6697    6.9756 N.pl3     1 <0>        -0.7899
     35 N4         -3.0548   -4.7189    5.8639 N.pl3     1 <0>        -0.7851
     36 H3          1.0053    1.8021    0.0021 H         1 <0>         0.1080
     37 H4         -0.5445    1.7859   -0.8732 H         1 <0>         0.0638
     38 H5         -0.5275    1.7763    0.9067 H         1 <0>         0.0613
     39 H6         -1.1148   -2.3516   -2.1370 H         1 <0>         0.0913
     40 H7          0.4592   -2.2705   -1.3097 H         1 <0>         0.1110
     41 H8          1.3821   -4.2186   -0.1992 H         1 <0>         0.1326
     42 H9          1.4754   -6.6744   -0.1092 H         1 <0>         0.1298
     43 H10        -2.3106   -6.8703   -2.1205 H         1 <0>         0.1291
     44 H11        -2.3862   -4.4132   -2.1910 H         1 <0>         0.1263
     45 H12         1.6175  -11.0393    0.0485 H         1 <0>         0.1270
     46 H13         1.6892  -13.4962    0.1264 H         1 <0>         0.1309
     47 H14        -0.1470  -14.8168   -0.8405 H         1 <0>         0.1291
     48 H15        -2.0657  -13.6913   -1.8904 H         1 <0>         0.1308
     49 H16        -2.1642  -11.2353   -1.9709 H         1 <0>         0.1268
     50 H17        -3.0924   -2.7792   -0.8202 H         1 <0>         0.4106
     51 H18        -5.3470   -2.4265    0.6134 H         1 <0>         0.1130
     52 H19        -4.8197   -4.1207    0.7544 H         1 <0>         0.1059
     53 H20        -7.2902   -2.7494    2.0617 H         1 <0>         0.0836
     54 H21        -6.9024   -4.4814    2.1932 H         1 <0>         0.0765
     55 H22        -7.0921   -2.5307    4.5337 H         1 <0>         0.0757
     56 H23        -8.3364   -3.7205    4.0795 H         1 <0>         0.0966
     57 H24        -6.8231   -4.5266    5.9267 H         1 <0>         0.0901
     58 H25        -6.7762   -5.5675    4.4805 H         1 <0>         0.1005
     59 H26        -4.5738   -5.1942    2.9016 H         1 <0>         0.0906
     60 H27        -3.4446   -3.9533    3.5033 H         1 <0>         0.1103
     61 H28        -5.6895   -3.3255    6.9845 H         1 <0>         0.4392
     62 H29        -2.7032   -5.1387    5.0632 H         1 <0>         0.4403
     63 H30        -2.4995   -4.6434    6.6557 H         1 <0>         0.4373
     64 H31        -4.2274   -3.5942    7.7673 H         1 <0>         0.4373
@<TRIPOS>BOND
     1    1    2 1
     2    1   36 1
     3    1   37 1
     4    1   38 1
     5    2    3 1
     6    3    4 2
     7    3    5 1
     8    5    6 1
     9    5    7 1
    10    5   22 1
    11    7    8 1
    12    7   39 1
    13    7   40 1
    14    8   13 ar
    15    8    9 ar
    16    9   10 ar
    17    9   41 1
    18   10   11 ar
    19   10   42 1
    20   11   12 ar
    21   11   14 1
    22   12   13 ar
    23   12   43 1
    24   13   44 1
    25   14   15 3
    26   15   16 1
    27   16   21 ar
    28   16   17 ar
    29   17   18 ar
    30   17   45 1
    31   18   19 ar
    32   18   46 1
    33   19   20 ar
    34   19   47 1
    35   20   21 ar
    36   20   48 1
    37   21   49 1
    38   22   23 am
    39   22   50 1
    40   23   24 2
    41   23   25 1
    42   25   26 1
    43   25   51 1
    44   25   52 1
    45   26   27 1
    46   26   32 1
    47   26   28 1
    48   28   29 1
    49   28   53 1
    50   28   54 1
    51   29   30 1
    52   29   55 1
    53   29   56 1
    54   30   31 1
    55   30   57 1
    56   30   58 1
    57   31   32 1
    58   31   33 1
    59   32   59 1
    60   32   60 1
    61   33   34 2
    62   33   35 1
    63   34   61 1
    64   34   64 1
    65   35   62 1
    66   35   63 1
