@<TRIPOS>MOLECULE
ZINC03875454
   35    38     0     0     0
SMALL
USER_CHARGES

@<TRIPOS>ATOM
      1 C1         -0.0178    1.4608    0.0101 C.3       1 <0>         0.0736
      2 N1          0.0021   -0.0041    0.0020 N.am      1 <0>        -0.6054
      3 C2          0.0060   -0.6923   -1.1787 C.2       1 <0>         0.5282
      4 O1          0.0013   -0.1310   -2.2538 O.2       1 <0>        -0.4655
      5 C3          0.0171   -2.1979   -1.0569 C.3       1 <0>         0.1690
      6 C4         -0.3246   -2.9479   -2.3277 C.3       1 <0>        -0.0493
      7 C5         -1.2416   -4.0554   -1.8572 C.2       1 <0>        -0.1408
      8 C6         -1.4528   -5.2582   -2.3614 C.2       1 <0>        -0.0686
      9 C7         -2.4068   -6.1283   -1.6388 C.2       1 <0>        -0.1215
     10 C8         -2.7209   -5.8554   -0.3790 C.2       1 <0>        -0.1688
     11 C9         -2.1318   -4.6824    0.3569 C.3       1 <0>         0.1296
     12 H1         -1.1756   -4.9719    0.7928 H         1 <0>         0.0748
     13 C10        -1.9175   -3.5149   -0.6065 C.3       1 <0>         0.1871
     14 H2         -2.8767   -3.0671   -0.8664 H         1 <0>         0.1032
     15 N2         -1.0263   -2.5147   -0.0478 N.am      1 <0>        -0.5996
     16 C11        -1.0464   -1.8553    1.1368 C.2       1 <0>         0.5321
     17 O2         -1.8416   -2.1095    2.0165 O.2       1 <0>        -0.4183
     18 C12         0.0244   -0.7630    1.2721 C.3       1 <0>         0.1905
     19 S1          1.6414   -1.6127    1.3777 S.3       1 <0>        -0.1069
     20 S2          1.6245   -2.7047   -0.3669 S.3       1 <0>        -0.1250
     21 C13        -0.2341    0.1417    2.4785 C.3       1 <0>         0.1130
     22 O3         -0.2017   -0.6390    3.6750 O.3       1 <0>        -0.5422
     23 O4         -3.0243   -4.2784    1.3973 O.3       1 <0>        -0.5380
     24 H3          1.0048    1.8381    0.0023 H         1 <0>         0.0759
     25 H4         -0.5450    1.8219   -0.8730 H         1 <0>         0.0923
     26 H5         -0.5280    1.8123    0.9069 H         1 <0>         0.0832
     27 H6         -0.8421   -2.2948   -3.0303 H         1 <0>         0.1287
     28 H7          0.5756   -3.3629   -2.7811 H         1 <0>         0.1176
     29 H8         -0.9528   -5.5907   -3.2591 H         1 <0>         0.1457
     30 H9         -2.8458   -6.9815   -2.1347 H         1 <0>         0.1329
     31 H10        -3.4224   -6.4958    0.1350 H         1 <0>         0.1286
     32 H11         0.5355    0.9121    2.5265 H         1 <0>         0.0817
     33 H12        -1.2125    0.6113    2.3775 H         1 <0>         0.0861
     34 H13        -0.3582   -0.1291    4.4816 H         1 <0>         0.3958
     35 H14        -3.2022   -4.9671    2.0523 H         1 <0>         0.3802
@<TRIPOS>BOND
     1    1    2 1
     2    1   24 1
     3    1   25 1
     4    1   26 1
     5    2   18 1
     6    2    3 am
     7    3    4 2
     8    3    5 1
     9    5   15 1
    10    5   20 1
    11    5    6 1
    12    6    7 1
    13    6   27 1
    14    6   28 1
    15    7   13 1
    16    7    8 2
    17    8    9 1
    18    8   29 1
    19    9   10 2
    20    9   30 1
    21   10   11 1
    22   10   31 1
    23   11   12 1
    24   11   13 1
    25   11   23 1
    26   13   14 1
    27   13   15 1
    28   15   16 am
    29   16   17 2
    30   16   18 1
    31   18   19 1
    32   18   21 1
    33   19   20 1
    34   21   22 1
    35   21   32 1
    36   21   33 1
    37   22   34 1
    38   23   35 1
