@<TRIPOS>MOLECULE
ZINC13759728
   39    40     0     0     0
SMALL
USER_CHARGES
(E)-6-(4,6-dihydroxy-7-methyl-3-oxo-1H-isobenzofuran-5-yl)-4-methyl-hex-4-enoic acid
@<TRIPOS>ATOM
      1 C1          0.5948    2.6110    2.4786 C.3       1 <0>        -0.1142
      2 C2         -0.8071    3.0883    2.1990 C.ar      1 <0>        -0.0991
      3 C3         -1.1955    3.3524    0.9117 C.ar      1 <0>        -0.0815
      4 C4         -2.4972    3.7960    0.6408 C.ar      1 <0>        -0.2355
      5 C5         -3.4009    3.9693    1.7009 C.ar      1 <0>         0.2097
      6 C6         -2.9975    3.7002    2.9973 C.ar      1 <0>        -0.1255
      7 C7         -1.7058    3.2611    3.2493 C.ar      1 <0>         0.1723
      8 O1         -1.3166    2.9995    4.5227 O.3       1 <0>        -0.4836
      9 C8         -3.9643    3.8843    4.1384 C.3       1 <0>        -0.0478
     10 C9         -4.7155    2.5990    4.3728 C.2       1 <0>        -0.1903
     11 C10        -4.7410    2.0639    5.5682 C.2       1 <0>        -0.0958
     12 C11        -3.9113    2.6575    6.6774 C.3       1 <0>        -0.1289
     13 C12        -5.6001    0.8547    5.8343 C.3       1 <0>        -0.0694
     14 C13        -4.7570   -0.4131    5.6835 C.3       1 <0>        -0.1479
     15 C14        -5.6162   -1.6223    5.9496 C.2       1 <0>         0.4569
     16 O2         -6.7831   -1.4842    6.2309 O.co2     1 <0>        -0.6405
     17 O3         -4.6640    4.3990    1.4560 O.3       1 <0>        -0.4805
     18 C15        -2.6198    3.9924   -0.8093 C.2       1 <0>         0.5268
     19 O4         -3.6252    4.3740   -1.3757 O.2       1 <0>        -0.4457
     20 O5         -1.4619    3.6896   -1.4209 O.3       1 <0>        -0.3207
     21 C16        -0.4928    3.2721   -0.4205 C.3       1 <0>         0.0963
     22 H1          0.6222    1.5221    2.4404 H         1 <0>         0.0768
     23 H2          1.2734    3.0181    1.7290 H         1 <0>         0.0690
     24 H3          0.9026    2.9478    3.4685 H         1 <0>         0.0802
     25 H4         -1.4708    2.0864    4.8014 H         1 <0>         0.4030
     26 H5         -3.4148    4.1536    5.0404 H         1 <0>         0.0935
     27 H6         -4.6699    4.6778    3.8924 H         1 <0>         0.0886
     28 H7         -5.2327    2.1191    3.5551 H         1 <0>         0.1060
     29 H8         -4.4551    3.4835    7.1358 H         1 <0>         0.0653
     30 H9         -3.7094    1.8940    7.4286 H         1 <0>         0.0650
     31 H10        -2.9692    3.0244    6.2699 H         1 <0>         0.0722
     32 H11        -5.9984    0.9078    6.8475 H         1 <0>         0.0704
     33 H12        -6.4239    0.8302    5.1209 H         1 <0>         0.0674
     34 H13        -4.3587   -0.4662    4.6703 H         1 <0>         0.0605
     35 H14        -3.9333   -0.3886    6.3969 H         1 <0>         0.0631
     36 H15        -5.2974    3.6865    1.2940 H         1 <0>         0.4027
     37 H16        -0.1728    2.2482   -0.6137 H         1 <0>         0.1196
     38 H17         0.3676    3.9411   -0.4308 H         1 <0>         0.1180
     39 O6         -5.0850   -2.8527    5.8740 O.co2     1 <0>        -0.7766
@<TRIPOS>BOND
     1    1    2 1
     2    1   22 1
     3    1   23 1
     4    1   24 1
     5    2    7 ar
     6    2    3 ar
     7    3   21 1
     8    3    4 ar
     9    4    5 ar
    10    4   18 1
    11    5    6 ar
    12    5   17 1
    13    6    7 ar
    14    6    9 1
    15    7    8 1
    16    8   25 1
    17    9   10 1
    18    9   26 1
    19    9   27 1
    20   10   11 2
    21   10   28 1
    22   11   12 1
    23   11   13 1
    24   12   29 1
    25   12   30 1
    26   12   31 1
    27   13   14 1
    28   13   32 1
    29   13   33 1
    30   14   15 1
    31   14   34 1
    32   14   35 1
    33   15   16 2
    34   15   39 1
    35   17   36 1
    36   18   19 2
    37   18   20 1
    38   20   21 1
    39   21   37 1
    40   21   38 1
@<TRIPOS>MOLECULE
ZINC03165608
   20    21     0     0     0
SMALL
USER_CHARGES
1-methylindole-3-carbonitrile
@<TRIPOS>ATOM
      1 C1         -2.5024    1.3204    0.0199 C.3       1 <0>         0.0719
      2 N1         -1.1332    1.8416    0.0169 N.pl3     1 <0>        -0.4719
      3 C2         -0.0126    1.0758    0.0080 C.2       1 <0>         0.1344
      4 C3          1.0914    1.8751    0.0017 C.2       1 <0>        -0.1341
      5 C4          0.6016    3.2656    0.0139 C.ar      1 <0>        -0.0700
      6 C5         -0.8003    3.1802    0.0268 C.ar      1 <0>         0.0914
      7 C6         -1.5546    4.3487    0.0403 C.ar      1 <0>        -0.1198
      8 C7         -0.9243    5.5740    0.0409 C.ar      1 <0>        -0.0972
      9 C8          0.4604    5.6567    0.0281 C.ar      1 <0>        -0.1317
     10 C9          1.2252    4.5107    0.0146 C.ar      1 <0>        -0.0758
     11 C10         2.4582    1.4482   -0.0136 C.1       1 <0>         0.2879
     12 N2          3.5425    1.1096   -0.0258 N.1       1 <0>        -0.4320
     13 H1         -2.8377    1.1859    1.0482 H         1 <0>         0.0778
     14 H2         -3.1607    2.0254   -0.4877 H         1 <0>         0.0875
     15 H3         -2.5274    0.3619   -0.4987 H         1 <0>         0.0902
     16 H4          0.0021   -0.0041    0.0020 H         1 <0>         0.1848
     17 H5         -2.6333    4.2956    0.0507 H         1 <0>         0.1240
     18 H6         -1.5140    6.4788    0.0517 H         1 <0>         0.1300
     19 H7          0.9411    6.6238    0.0291 H         1 <0>         0.1281
     20 H8          2.3031    4.5778    0.0043 H         1 <0>         0.1246
@<TRIPOS>BOND
     1    1    2 1
     2    1   13 1
     3    1   14 1
     4    1   15 1
     5    2    6 1
     6    2    3 1
     7    3    4 2
     8    3   16 1
     9    4    5 1
    10    4   11 1
    11    5   10 ar
    12    5    6 ar
    13    6    7 ar
    14    7    8 ar
    15    7   17 1
    16    8    9 ar
    17    8   18 1
    18    9   10 ar
    19    9   19 1
    20   10   20 1
    21   11   12 3
@<TRIPOS>MOLECULE
ZINC00158012
   21    22     0     0     0
SMALL
USER_CHARGES

@<TRIPOS>ATOM
      1 C1         -0.0178    1.4608    0.0101 C.3       1 <0>         0.0668
      2 N1          0.0021   -0.0041    0.0020 N.pl3     1 <0>        -0.4649
      3 C2          0.0077   -0.7635   -1.1101 C.2       1 <0>         0.1559
      4 C3          0.0281   -2.0968   -0.7603 C.2       1 <0>        -0.2977
      5 C4          0.0354   -2.1349    0.7154 C.ar      1 <0>        -0.0661
      6 C5          0.0236   -0.7947    1.1332 C.ar      1 <0>         0.0745
      7 C6          0.0312   -0.5055    2.4937 C.ar      1 <0>        -0.1162
      8 C7          0.0534   -1.5304    3.4148 C.ar      1 <0>        -0.1043
      9 C8          0.0688   -2.8535    2.9997 C.ar      1 <0>        -0.1285
     10 C9          0.0542   -3.1603    1.6558 C.ar      1 <0>        -0.0825
     11 C10         0.0391   -3.2077   -1.6404 C.2       1 <0>         0.4100
     12 O1          0.0309   -3.0306   -2.8414 O.2       1 <0>        -0.4900
     13 H1          1.0048    1.8381    0.0023 H         1 <0>         0.0787
     14 H2         -0.5450    1.8219   -0.8730 H         1 <0>         0.0907
     15 H3         -0.5280    1.8123    0.9069 H         1 <0>         0.0879
     16 H4         -0.0025   -0.3857   -2.1218 H         1 <0>         0.1847
     17 H5          0.0201    0.5214    2.8280 H         1 <0>         0.1215
     18 H6          0.0593   -1.3010    4.4702 H         1 <0>         0.1291
     19 H7          0.0866   -3.6469    3.7322 H         1 <0>         0.1282
     20 H8          0.0669   -4.1912    1.3344 H         1 <0>         0.1281
     21 H9          0.0548   -4.2116   -1.2426 H         1 <0>         0.0940
@<TRIPOS>BOND
     1    1    2 1
     2    1   13 1
     3    1   14 1
     4    1   15 1
     5    2    6 1
     6    2    3 1
     7    3    4 2
     8    3   16 1
     9    4    5 1
    10    4   11 1
    11    5   10 ar
    12    5    6 ar
    13    6    7 ar
    14    7    8 ar
    15    7   17 1
    16    8    9 ar
    17    8   18 1
    18    9   10 ar
    19    9   19 1
    20   10   20 1
    21   11   12 2
    22   11   21 1
@<TRIPOS>MOLECULE
ZINC22005885
   46    47     0     0     0
SMALL
USER_CHARGES
methyl (E)-6-(4-hydroxy-6-methoxy-7-methyl-3-oxo-1H-isobenzofuran-5-yl)-4-methyl-hex-4-enoate
@<TRIPOS>ATOM
      1 C1          0.6190    0.3502    4.0155 C.3       1 <0>        -0.1097
      2 C2         -0.4952    0.9747    3.2157 C.ar      1 <0>        -0.1283
      3 C3         -0.6245    0.6862    1.8822 C.ar      1 <0>        -0.0506
      4 C4         -1.6577    1.2610    1.1294 C.ar      1 <0>        -0.2472
      5 C5         -2.5596    2.1374    1.7532 C.ar      1 <0>         0.2615
      6 C6         -2.4190    2.4221    3.1004 C.ar      1 <0>        -0.1964
      7 C7         -1.3916    1.8447    3.8323 C.ar      1 <0>         0.1831
      8 O1         -1.2591    2.1285    5.1527 O.3       1 <0>        -0.3277
      9 C8         -1.8482    1.2105    6.0759 C.3       1 <0>         0.0302
     10 C9         -3.3852    3.3620    3.7743 C.3       1 <0>        -0.0546
     11 C10        -4.6206    2.6029    4.1850 C.2       1 <0>        -0.1556
     12 C11        -5.8010    3.0088    3.7875 C.2       1 <0>        -0.1275
     13 C12        -5.9376    4.3080    3.0362 C.3       1 <0>        -0.1238
     14 C13        -7.0224    2.1765    4.0817 C.3       1 <0>        -0.0739
     15 C14        -7.6855    2.6797    5.3654 C.3       1 <0>        -0.1103
     16 C15        -8.9068    1.8474    5.6596 C.2       1 <0>         0.4576
     17 O2         -9.2154    0.9444    4.9184 O.2       1 <0>        -0.5062
     18 O3         -9.6520    2.1092    6.7449 O.3       1 <0>        -0.3609
     19 C16       -10.8140    1.2670    6.9655 C.3       1 <0>         0.0310
     20 O4         -3.5643    2.7030    1.0387 O.3       1 <0>        -0.4795
     21 C17        -1.5439    0.7711   -0.2502 C.2       1 <0>         0.5277
     22 O5         -2.2889    1.0788   -1.1599 O.2       1 <0>        -0.4430
     23 O6         -0.4989   -0.0664   -0.3635 O.3       1 <0>        -0.3169
     24 C18         0.1518   -0.1898    0.9310 C.3       1 <0>         0.0902
     25 H1          1.2182   -0.3016    3.3627 H         1 <0>         0.0693
     26 H2          0.1922   -0.2452    4.8361 H         1 <0>         0.0709
     27 H3          1.2598    1.1416    4.4315 H         1 <0>         0.0788
     28 H4         -1.6679    1.5579    7.1039 H         1 <0>         0.1032
     29 H5         -1.3988    0.2156    5.9409 H         1 <0>         0.0534
     30 H6         -2.9314    1.1514    5.8935 H         1 <0>         0.0522
     31 H7         -2.9104    3.7993    4.6650 H         1 <0>         0.1051
     32 H8         -3.6634    4.1648    3.0757 H         1 <0>         0.0811
     33 H9         -4.5312    1.7081    4.8185 H         1 <0>         0.1161
     34 H10        -6.9957    4.4789    2.7886 H         1 <0>         0.0748
     35 H11        -5.3473    4.2593    2.1093 H         1 <0>         0.0590
     36 H12        -5.5695    5.1341    3.6624 H         1 <0>         0.0794
     37 H13        -7.7324    2.2591    3.2456 H         1 <0>         0.0856
     38 H14        -6.7272    1.1246    4.2095 H         1 <0>         0.0800
     39 H15        -6.9755    2.5972    6.2015 H         1 <0>         0.1080
     40 H16        -7.9808    3.7316    5.2376 H         1 <0>         0.1100
     41 H17       -11.3307    1.5879    7.8820 H         1 <0>         0.1046
     42 H18       -10.4932    0.2203    7.0727 H         1 <0>         0.0646
     43 H19       -11.4984    1.3548    6.1088 H         1 <0>         0.0650
     44 H20        -4.2697    3.3894    1.5299 H         1 <0>         0.4243
     45 H21         1.1949    0.1560    0.8824 H         1 <0>         0.1234
     46 H22         0.1267   -1.2302    1.2872 H         1 <0>         0.1224
@<TRIPOS>BOND
     1    1    2 1
     2    1   25 1
     3    1   26 1
     4    1   27 1
     5    2    7 ar
     6    2    3 ar
     7    3   24 1
     8    3    4 ar
     9    4    5 ar
    10    4   21 1
    11    5    6 ar
    12    5   20 1
    13    6    7 ar
    14    6   10 1
    15    7    8 1
    16    8    9 1
    17    9   28 1
    18    9   29 1
    19    9   30 1
    20   10   11 1
    21   10   31 1
    22   10   32 1
    23   11   12 2
    24   11   33 1
    25   12   13 1
    26   12   14 1
    27   13   34 1
    28   13   35 1
    29   13   36 1
    30   14   15 1
    31   14   37 1
    32   14   38 1
    33   15   16 1
    34   15   39 1
    35   15   40 1
    36   16   17 2
    37   16   18 1
    38   18   19 1
    39   19   41 1
    40   19   42 1
    41   19   43 1
    42   20   44 1
    43   21   22 2
    44   21   23 1
    45   23   24 1
    46   24   45 1
    47   24   46 1
@<TRIPOS>MOLECULE
ZINC13488997
   23    24     0     0     0
SMALL
USER_CHARGES
5-vinylisoquinolin-6-amine
@<TRIPOS>ATOM
      1 C1         -0.0126    1.0758    0.0080 C.2       1 <0>        -0.1990
      2 C2         -1.1721    1.7244    0.0170 C.2       1 <0>        -0.0922
      3 C3         -2.4382    0.9703    0.0189 C.ar      1 <0>        -0.1689
      4 C4         -3.4476    1.2670    0.9617 C.ar      1 <0>         0.0378
      5 C5         -3.2954    2.2764    1.9255 C.ar      1 <0>        -0.1743
      6 C6         -4.3141    2.5035    2.8019 C.ar      1 <0>         0.0903
      7 N1         -5.4369    1.7993    2.7656 N.ar      1 <0>        -0.5061
      8 C7         -5.6511    0.8491    1.8848 C.ar      1 <0>         0.1601
      9 C8         -4.6609    0.5325    0.9418 C.ar      1 <0>        -0.1599
     10 C9         -4.8399   -0.4886   -0.0073 C.ar      1 <0>        -0.0369
     11 C10        -3.8559   -0.7659   -0.9049 C.ar      1 <0>        -0.1762
     12 C11        -2.6551   -0.0505   -0.9064 C.ar      1 <0>         0.2515
     13 N2         -1.6688   -0.3587   -1.8383 N.pl3     1 <0>        -0.8664
     14 H1          0.0021   -0.0041    0.0020 H         1 <0>         0.0997
     15 H2          0.9153    1.6285    0.0021 H         1 <0>         0.1064
     16 H3         -1.1867    2.8043    0.0229 H         1 <0>         0.1175
     17 H4         -2.3886    2.8612    1.9718 H         1 <0>         0.1343
     18 H5         -4.2039    3.2784    3.5461 H         1 <0>         0.1512
     19 H6         -6.5827    0.3029    1.8946 H         1 <0>         0.1611
     20 H7         -5.7601   -1.0537   -0.0243 H         1 <0>         0.1365
     21 H8         -4.0052   -1.5531   -1.6291 H         1 <0>         0.1296
     22 H9         -0.8343    0.1357   -1.8428 H         1 <0>         0.4035
     23 H10        -1.8159   -1.0680   -2.4835 H         1 <0>         0.4003
@<TRIPOS>BOND
     1    1    2 2
     2    1   14 1
     3    1   15 1
     4    2    3 1
     5    2   16 1
     6    3   12 ar
     7    3    4 ar
     8    4    9 ar
     9    4    5 ar
    10    5    6 ar
    11    5   17 1
    12    6    7 ar
    13    6   18 1
    14    7    8 ar
    15    8    9 ar
    16    8   19 1
    17    9   10 ar
    18   10   11 ar
    19   10   20 1
    20   11   12 ar
    21   11   21 1
    22   12   13 1
    23   13   22 1
    24   13   23 1
@<TRIPOS>MOLECULE
ZINC13488994
   19    20     0     0     0
SMALL
USER_CHARGES
5-bromoisoquinolin-6-amine
@<TRIPOS>ATOM
      1 C1          2.3835    1.4789   -0.0129 C.ar      1 <0>        -0.0206
      2 C2          1.1774    2.1071    0.0021 C.ar      1 <0>        -0.1771
      3 C3         -0.0166    1.3762    0.0096 C.ar      1 <0>         0.2777
      4 C4          0.0021   -0.0041    0.0020 C.ar      1 <0>        -0.2038
      5 C5          1.2324   -0.6732   -0.0133 C.ar      1 <0>         0.0496
      6 C6          2.4391    0.0758   -0.0209 C.ar      1 <0>        -0.1591
      7 C7          3.6588   -0.6186   -0.0358 C.ar      1 <0>         0.1655
      8 N1          3.6649   -1.9313   -0.0424 N.ar      1 <0>        -0.5038
      9 C8          2.5534   -2.6551   -0.0357 C.ar      1 <0>         0.1008
     10 C9          1.3205   -2.0782   -0.0212 C.ar      1 <0>        -0.1804
     11 Br1        -1.6167   -0.9814    0.0116 Br        1 <0>        -0.0422
     12 N2         -1.2383    2.0499    0.0190 N.pl3     1 <0>        -0.8592
     13 H1          3.2956    2.0573   -0.0182 H         1 <0>         0.1432
     14 H2          1.1401    3.1864    0.0080 H         1 <0>         0.1375
     15 H3          4.5911   -0.0735   -0.0422 H         1 <0>         0.1648
     16 H4          2.6286   -3.7325   -0.0414 H         1 <0>         0.1547
     17 H5          0.4279   -2.6861   -0.0160 H         1 <0>         0.1413
     18 H6         -2.0687    1.5486    0.0202 H         1 <0>         0.4057
     19 H7         -1.2573    3.0197    0.0244 H         1 <0>         0.4053
@<TRIPOS>BOND
     1    1    6 ar
     2    1    2 ar
     3    1   13 1
     4    2    3 ar
     5    2   14 1
     6    3    4 ar
     7    3   12 1
     8    4    5 ar
     9    4   11 1
    10    5   10 ar
    11    5    6 ar
    12    6    7 ar
    13    7    8 ar
    14    7   15 1
    15    8    9 ar
    16    9   10 ar
    17    9   16 1
    18   10   17 1
    19   12   18 1
    20   12   19 1
@<TRIPOS>MOLECULE
ZINC03975663
   57    60     0     0     0
SMALL
USER_CHARGES

@<TRIPOS>ATOM
      1 C1         -2.1343    2.4095    2.4270 C.3       1 <0>         0.0243
      2 O1         -2.4011    1.0056    2.4186 O.3       1 <0>        -0.3037
      3 C2         -1.4559    0.1949    2.9614 C.ar      1 <0>         0.1746
      4 C3         -0.3004    0.7372    3.4954 C.ar      1 <0>        -0.2359
      5 C4          0.6647   -0.0930    4.0503 C.ar      1 <0>         0.2157
      6 C5          0.4743   -1.4703    4.0717 C.ar      1 <0>        -0.1518
      7 C6         -0.6733   -2.0195    3.5417 C.ar      1 <0>        -0.0310
      8 C7         -1.6509   -1.1919    2.9872 C.ar      1 <0>        -0.0713
      9 C8         -2.8850   -1.7774    2.4237 C.2       1 <0>         0.0139
     10 C9         -2.9630   -2.8090    1.5439 C.2       1 <0>        -0.0275
     11 N1         -4.2627   -3.0260    1.2903 N.2       1 <0>        -0.4866
     12 C10        -4.9743   -2.1752    1.9745 C.2       1 <0>         0.1691
     13 O2         -4.1527   -1.3931    2.6894 O.3       1 <0>        -0.1910
     14 N2          1.8319    0.4579    4.5890 N.am      1 <0>        -0.6812
     15 C11         2.3922   -0.0905    5.6853 C.2       1 <0>         0.7059
     16 O3          1.9322   -1.1126    6.1565 O.2       1 <0>        -0.5468
     17 N3          3.4624    0.4941    6.2592 N.am      1 <0>        -0.6805
     18 C12         4.1100   -0.1305    7.3310 C.ar      1 <0>         0.1608
     19 C13         4.1818   -1.5163    7.3886 C.ar      1 <0>        -0.1060
     20 C14         4.8215   -2.1297    8.4476 C.ar      1 <0>        -0.0987
     21 C15         5.3903   -1.3655    9.4502 C.ar      1 <0>        -0.1093
     22 C16         5.3205    0.0143    9.3958 C.ar      1 <0>        -0.0945
     23 C17         4.6870    0.6340    8.3362 C.ar      1 <0>        -0.1228
     24 C18         5.9412    0.8431   10.4907 C.3       1 <0>         0.1806
     25 N4          7.3328    1.1443   10.1459 N.am      1 <0>        -0.7033
     26 C19         8.0909    1.8789   10.9839 C.2       1 <0>         0.6456
     27 O4          7.6201    2.2913   12.0254 O.2       1 <0>        -0.5656
     28 O5          9.3698    2.1557   10.6670 O.3       1 <0>        -0.3496
     29 C20        10.1147    2.9392   11.6015 C.3       1 <0>         0.0726
     30 H1          9.7520    2.7778   12.6166 H         1 <0>         0.1060
     31 C21        11.6323    2.6251   11.5004 C.3       1 <0>        -0.1534
     32 C22        12.2428    3.9687   11.9725 C.3       1 <0>         0.0517
     33 O6         11.3698    4.9820   11.4487 O.3       1 <0>        -0.3755
     34 C23        10.0596    4.4367   11.2299 C.3       1 <0>         0.0353
     35 H2         -1.2206    2.6090    1.8670 H         1 <0>         0.0584
     36 H3         -2.9667    2.9404    1.9652 H         1 <0>         0.1043
     37 H4         -2.0119    2.7499    3.4552 H         1 <0>         0.0584
     38 H5         -0.1488    1.8064    3.4804 H         1 <0>         0.1384
     39 H6          1.2280   -2.1114    4.5044 H         1 <0>         0.1503
     40 H7         -0.8181   -3.0896    3.5594 H         1 <0>         0.1425
     41 H8         -2.1308   -3.3550    1.1246 H         1 <0>         0.1851
     42 H9         -6.0525   -2.1127    1.9695 H         1 <0>         0.2496
     43 H10         2.2381    1.2346    4.1737 H         1 <0>         0.4113
     44 H11         3.7838    1.3478    5.9293 H         1 <0>         0.4101
     45 H12         3.7375   -2.1137    6.6061 H         1 <0>         0.1387
     46 H13         4.8773   -3.2073    8.4932 H         1 <0>         0.1317
     47 H14         5.8897   -1.8475   10.2776 H         1 <0>         0.1284
     48 H15         4.6370    1.7119    8.2918 H         1 <0>         0.1291
     49 H16         5.3848    1.7738   10.6017 H         1 <0>         0.0824
     50 H17         5.9112    0.2878   11.4282 H         1 <0>         0.0848
     51 H18         7.7087    0.8150    9.3145 H         1 <0>         0.4097
     52 H19        11.9103    1.8107   12.1693 H         1 <0>         0.0955
     53 H20        11.9198    2.4025   10.4728 H         1 <0>         0.0943
     54 H21        12.2635    4.0130   13.0614 H         1 <0>         0.0686
     55 H22        13.2481    4.0900   11.5690 H         1 <0>         0.0963
     56 H23         9.7840    4.5475   10.1812 H         1 <0>         0.0806
     57 H24         9.3322    4.9476   11.8607 H         1 <0>         0.0818
@<TRIPOS>BOND
     1    1    2 1
     2    1   35 1
     3    1   36 1
     4    1   37 1
     5    2    3 1
     6    3    8 ar
     7    3    4 ar
     8    4    5 ar
     9    4   38 1
    10    5    6 ar
    11    5   14 1
    12    6    7 ar
    13    6   39 1
    14    7    8 ar
    15    7   40 1
    16    8    9 1
    17    9   13 1
    18    9   10 2
    19   10   11 1
    20   10   41 1
    21   11   12 2
    22   12   13 1
    23   12   42 1
    24   14   15 am
    25   14   43 1
    26   15   16 2
    27   15   17 am
    28   17   18 1
    29   17   44 1
    30   18   23 ar
    31   18   19 ar
    32   19   20 ar
    33   19   45 1
    34   20   21 ar
    35   20   46 1
    36   21   22 ar
    37   21   47 1
    38   22   23 ar
    39   22   24 1
    40   23   48 1
    41   24   25 1
    42   24   49 1
    43   24   50 1
    44   25   26 am
    45   25   51 1
    46   26   27 2
    47   26   28 1
    48   28   29 1
    49   29   30 1
    50   29   34 1
    51   29   31 1
    52   31   32 1
    53   31   52 1
    54   31   53 1
    55   32   33 1
    56   32   54 1
    57   32   55 1
    58   33   34 1
    59   34   56 1
    60   34   57 1
@<TRIPOS>MOLECULE
ZINC00080555
   25    27     0     0     0
SMALL
USER_CHARGES

@<TRIPOS>ATOM
      1 C1         -0.0165    1.3628    0.0095 C.ar      1 <0>        -0.1398
      2 C2          1.1699    2.0829    0.0021 C.ar      1 <0>        -0.0977
      3 C3          2.3851    1.4340   -0.0134 C.ar      1 <0>        -0.1268
      4 C4          2.4259    0.0431   -0.0212 C.ar      1 <0>         0.0920
      5 C5          1.2211   -0.6800   -0.0132 C.ar      1 <0>        -0.0886
      6 C6          0.0021   -0.0041    0.0020 C.ar      1 <0>        -0.0729
      7 C7          1.6016   -2.1019   -0.0250 C.2       1 <0>        -0.1537
      8 C8          2.9575   -2.1415   -0.0389 C.2       1 <0>         0.0826
      9 N1          3.4558   -0.8725   -0.0368 N.pl3     1 <0>        -0.5877
     10 H1          4.3991   -0.6466   -0.0455 H         1 <0>         0.4199
     11 C9          0.6830   -3.2633   -0.0222 C.ar      1 <0>         0.0435
     12 C10        -0.3625   -3.3507    0.9037 C.ar      1 <0>        -0.1649
     13 C11        -1.1947   -4.4494    0.8706 C.ar      1 <0>         0.1018
     14 N2         -1.0153   -5.4089   -0.0177 N.ar      1 <0>        -0.4918
     15 C12        -0.0420   -5.3655   -0.9082 C.ar      1 <0>         0.1017
     16 C13         0.8328   -4.3006   -0.9493 C.ar      1 <0>        -0.1697
     17 H2         -0.9611    1.8861    0.0259 H         1 <0>         0.1249
     18 H3          1.1403    3.1625    0.0081 H         1 <0>         0.1276
     19 H4          3.3030    2.0030   -0.0198 H         1 <0>         0.1222
     20 H5         -0.9247   -0.5585    0.0082 H         1 <0>         0.1216
     21 H6          3.5527   -3.0426   -0.0496 H         1 <0>         0.1756
     22 H7         -0.5150   -2.5694    1.6336 H         1 <0>         0.1341
     23 H8         -2.0042   -4.5261    1.5814 H         1 <0>         0.1561
     24 H9          0.0683   -6.1731   -1.6167 H         1 <0>         0.1560
     25 H10         1.6242   -4.2695   -1.6835 H         1 <0>         0.1339
@<TRIPOS>BOND
     1    1    6 ar
     2    1    2 ar
     3    1   17 1
     4    2    3 ar
     5    2   18 1
     6    3    4 ar
     7    3   19 1
     8    4    9 1
     9    4    5 ar
    10    5    6 ar
    11    5    7 1
    12    6   20 1
    13    7    8 2
    14    7   11 1
    15    8    9 1
    16    8   21 1
    17    9   10 1
    18   11   16 ar
    19   11   12 ar
    20   12   13 ar
    21   12   22 1
    22   13   14 ar
    23   13   23 1
    24   14   15 ar
    25   15   16 ar
    26   15   24 1
    27   16   25 1
@<TRIPOS>MOLECULE
ZINC36338557
   23    25     0     0     0
SMALL
USER_CHARGES

@<TRIPOS>ATOM
      1 C1         -0.0165    1.3625    0.0095 C.ar      1 <0>        -0.1440
      2 C2          1.1700    2.0831    0.0021 C.ar      1 <0>        -0.0982
      3 C3          2.3852    1.4346   -0.0135 C.ar      1 <0>        -0.1294
      4 C4          2.4264    0.0435   -0.0214 C.ar      1 <0>         0.0947
      5 C5          1.2216   -0.6803   -0.0133 C.ar      1 <0>        -0.0959
      6 C6          0.0021   -0.0041    0.0020 C.ar      1 <0>        -0.0713
      7 C7          1.6009   -2.1016   -0.0247 C.2       1 <0>        -0.1084
      8 C8          2.9539   -2.1440   -0.0384 C.2       1 <0>         0.0688
      9 N1          3.4561   -0.8714   -0.0365 N.pl3     1 <0>        -0.5926
     10 H1          4.3996   -0.6462   -0.0450 H         1 <0>         0.4183
     11 C9          0.6783   -3.2647   -0.0214 C.2       1 <0>        -0.1082
     12 C10         0.7118   -4.4233   -0.9202 C.2       1 <0>        -0.2094
     13 C11        -0.3080   -5.2143   -0.5451 C.2       1 <0>        -0.0344
     14 O1         -0.9463   -4.6433    0.4874 O.3       1 <0>        -0.1827
     15 C12        -0.3670   -3.4783    0.8180 C.2       1 <0>        -0.0266
     16 H2         -0.9612    1.8857    0.0259 H         1 <0>         0.1236
     17 H3          1.1400    3.1626    0.0082 H         1 <0>         0.1263
     18 H4          3.3029    2.0039   -0.0199 H         1 <0>         0.1209
     19 H5         -0.9247   -0.5585    0.0083 H         1 <0>         0.1207
     20 H6          3.5473   -3.0463   -0.0491 H         1 <0>         0.1730
     21 H7          1.4133   -4.6039   -1.7213 H         1 <0>         0.1496
     22 H8         -0.5713   -6.1571   -1.0015 H         1 <0>         0.2028
     23 H9         -0.6806   -2.8212    1.6157 H         1 <0>         0.2024
@<TRIPOS>BOND
     1    1    6 ar
     2    1    2 ar
     3    1   16 1
     4    2    3 ar
     5    2   17 1
     6    3    4 ar
     7    3   18 1
     8    4    9 1
     9    4    5 ar
    10    5    6 ar
    11    5    7 1
    12    6   19 1
    13    7    8 2
    14    7   11 1
    15    8    9 1
    16    8   20 1
    17    9   10 1
    18   11   15 2
    19   11   12 1
    20   12   13 2
    21   12   21 1
    22   13   14 1
    23   13   22 1
    24   14   15 1
    25   15   23 1
@<TRIPOS>MOLECULE
ZINC13488995
   19    20     0     0     0
SMALL
USER_CHARGES
5-chloroisoquinolin-6-amine
@<TRIPOS>ATOM
      1 C1          1.1770   -0.6891   -0.0133 C.ar      1 <0>        -0.0306
      2 C2          0.0021   -0.0041    0.0020 C.ar      1 <0>        -0.1715
      3 C3         -0.0169    1.3956    0.0097 C.ar      1 <0>         0.2569
      4 C4          1.1606    2.1163    0.0023 C.ar      1 <0>        -0.1458
      5 C5          2.3831    1.4326   -0.0129 C.ar      1 <0>         0.0347
      6 C6          2.3933    0.0124   -0.0211 C.ar      1 <0>        -0.1541
      7 C7          3.6313   -0.6489   -0.0364 C.ar      1 <0>         0.1639
      8 N1          4.7449    0.0461   -0.0429 N.ar      1 <0>        -0.5024
      9 C8          4.7642    1.3724   -0.0354 C.ar      1 <0>         0.0964
     10 C9          3.6185    2.1075   -0.0206 C.ar      1 <0>        -0.1738
     11 Cl1         1.1266    3.8520    0.0125 Cl        1 <0>        -0.0619
     12 N2         -1.2389    2.0695    0.0191 N.pl3     1 <0>        -0.8613
     13 H1          1.1744   -1.7691   -0.0191 H         1 <0>         0.1429
     14 H2         -0.9307   -0.5484    0.0080 H         1 <0>         0.1376
     15 H3          3.6676   -1.7283   -0.0426 H         1 <0>         0.1651
     16 H4          5.7156    1.8835   -0.0410 H         1 <0>         0.1544
     17 H5          3.6566    3.1868   -0.0151 H         1 <0>         0.1394
     18 H6         -2.0693    1.5681    0.0203 H         1 <0>         0.4051
     19 H7         -1.2579    3.0393    0.0245 H         1 <0>         0.4050
@<TRIPOS>BOND
     1    1    6 ar
     2    1    2 ar
     3    1   13 1
     4    2    3 ar
     5    2   14 1
     6    3    4 ar
     7    3   12 1
     8    4    5 ar
     9    4   11 1
    10    5   10 ar
    11    5    6 ar
    12    6    7 ar
    13    7    8 ar
    14    7   15 1
    15    8    9 ar
    16    9   10 ar
    17    9   16 1
    18   10   17 1
    19   12   18 1
    20   12   19 1
@<TRIPOS>MOLECULE
ZINC02518269
   24    25     0     0     0
SMALL
USER_CHARGES
3-methoxy-4-oxazol-5-yl-aniline
@<TRIPOS>ATOM
      1 C1         -1.2052    5.7378    0.0407 C.3       1 <0>         0.0231
      2 O1         -2.4698    5.0723    0.0432 O.3       1 <0>        -0.3067
      3 C2         -2.4519    3.7140    0.0348 C.ar      1 <0>         0.2042
      4 C3         -1.2458    3.0361    0.0303 C.ar      1 <0>        -0.2984
      5 C4         -1.2293    1.6473    0.0168 C.ar      1 <0>         0.2802
      6 C5         -2.4232    0.9334    0.0186 C.ar      1 <0>        -0.2381
      7 C6         -3.6293    1.6004    0.0284 C.ar      1 <0>        -0.0001
      8 C7         -3.6545    2.9958    0.0366 C.ar      1 <0>        -0.1286
      9 C8         -4.9461    3.7135    0.0476 C.2       1 <0>         0.0301
     10 C9         -5.9966    3.5024   -0.7870 C.2       1 <0>        -0.0405
     11 N1         -6.9684    4.3595   -0.4378 N.2       1 <0>        -0.4864
     12 C10        -6.5528    5.0843    0.5623 C.2       1 <0>         0.1601
     13 O2         -5.3067    4.7096    0.8860 O.3       1 <0>        -0.1939
     14 N2         -0.0111    0.9658    0.0074 N.pl3     1 <0>        -0.8903
     15 H1         -1.3637    6.8263    0.0482 H         1 <0>         0.1033
     16 H2         -0.6439    5.4552   -0.8621 H         1 <0>         0.0582
     17 H3         -0.6346    5.4442    0.9341 H         1 <0>         0.0583
     18 H4         -0.3169    3.5870    0.0333 H         1 <0>         0.1306
     19 H5         -2.4050   -0.1464    0.0119 H         1 <0>         0.1285
     20 H6         -4.5545    1.0434    0.0294 H         1 <0>         0.1350
     21 H7         -6.0424    2.7756   -1.5845 H         1 <0>         0.1826
     22 H8         -7.1208    5.8617    1.0517 H         1 <0>         0.2474
     23 H9          0.0038   -0.1340   -0.0033 H         1 <0>         0.4222
     24 H10         0.9340    1.5286    0.0107 H         1 <0>         0.4192
@<TRIPOS>BOND
     1    1    2 1
     2    1   15 1
     3    1   16 1
     4    1   17 1
     5    2    3 1
     6    3    8 ar
     7    3    4 ar
     8    4    5 ar
     9    4   18 1
    10    5    6 ar
    11    5   14 1
    12    6    7 ar
    13    6   19 1
    14    7    8 ar
    15    7   20 1
    16    8    9 1
    17    9   13 1
    18    9   10 2
    19   10   11 1
    20   10   21 1
    21   11   12 2
    22   12   13 1
    23   12   22 1
    24   14   23 1
    25   14   24 1
@<TRIPOS>MOLECULE
ZINC04228242
   34    36     0     0     0
SMALL
USER_CHARGES

@<TRIPOS>ATOM
      1 C1         -0.0156    1.2994    0.0092 C.2       1 <0>         0.3731
      2 N1          1.1230    2.0375    0.0023 N.am      1 <0>        -0.6466
      3 H1          1.0697    3.0060    0.0083 H         1 <0>         0.4217
      4 C2          2.3310    1.4312   -0.0125 C.2       1 <0>         0.5781
      5 O1          3.3598    2.0851   -0.0184 O.2       1 <0>        -0.5181
      6 C3          2.3689    0.0145   -0.0205 C.2       1 <0>        -0.1007
      7 C4          1.1574   -0.6836   -0.0127 C.2       1 <0>         0.2523
      8 N2          0.0021   -0.0041    0.0020 N.2       1 <0>        -0.4970
      9 N3          1.4845   -2.0118   -0.0230 N.pl3     1 <0>        -0.4382
     10 C5          2.8446   -2.0987   -0.0365 C.2       1 <0>         0.2527
     11 N4          3.3625   -0.9042   -0.0350 N.2       1 <0>        -0.4346
     12 C6          0.5446   -3.1355   -0.0196 C.3       1 <0>         0.2993
     13 H2         -0.3291   -2.8967    0.5868 H         1 <0>         0.1217
     14 C7          0.1184   -3.4844   -1.4629 C.3       1 <0>         0.0374
     15 H3          0.8748   -3.1542   -2.1749 H         1 <0>         0.0811
     16 C8          0.0131   -5.0259   -1.4609 C.3       1 <0>         0.0467
     17 H4          0.7174   -5.4578   -2.1720 H         1 <0>         0.0913
     18 C9          0.3881   -5.4260   -0.0168 C.3       1 <0>         0.0896
     19 H5         -0.5098   -5.5403    0.5906 H         1 <0>         0.0987
     20 O2          1.1896   -4.3289    0.4759 O.3       1 <0>        -0.3312
     21 C10         1.1986   -6.7237   -0.0170 C.3       1 <0>         0.1395
     22 O3          1.4352   -7.1378    1.3301 O.3       1 <0>        -0.7497
     23 P1          2.2600   -8.4682    1.7065 P.3       1 <0>         2.1248
     24 O4          1.6160   -9.7026    0.9881 O.2       1 <0>        -1.1868
     25 O5          3.7473   -8.3100    1.2403 O.3       1 <0>        -1.1838
     26 O6          2.2192   -8.6867    3.2573 O.3       1 <0>        -1.1645
     27 O7         -1.3209   -5.4371   -1.7669 O.3       1 <0>        -0.5319
     28 O8         -1.1465   -2.8938   -1.7681 O.3       1 <0>        -0.5321
     29 H6         -0.9679    1.8086    0.0256 H         1 <0>         0.2151
     30 H7          3.4080   -3.0200   -0.0463 H         1 <0>         0.2338
     31 H8          0.6423   -7.4994   -0.5432 H         1 <0>         0.0631
     32 H9          2.1519   -6.5566   -0.5184 H         1 <0>         0.0457
     33 H10        -1.6274   -5.1590   -2.6409 H         1 <0>         0.3715
     34 H11        -1.4624   -3.0809   -2.6627 H         1 <0>         0.3776
@<TRIPOS>BOND
     1    1    8 2
     2    1    2 1
     3    1   29 1
     4    2    3 1
     5    2    4 am
     6    4    5 2
     7    4    6 1
     8    6   11 1
     9    6    7 2
    10    7    8 1
    11    7    9 1
    12    9   10 1
    13    9   12 1
    14   10   11 2
    15   10   30 1
    16   12   13 1
    17   12   20 1
    18   12   14 1
    19   14   15 1
    20   14   16 1
    21   14   28 1
    22   16   17 1
    23   16   18 1
    24   16   27 1
    25   18   19 1
    26   18   20 1
    27   18   21 1
    28   21   22 1
    29   21   31 1
    30   21   32 1
    31   22   23 1
    32   23   24 2
    33   23   25 1
    34   23   26 1
    35   27   33 1
    36   28   34 1
@<TRIPOS>MOLECULE
ZINC04228242
   35    37     0     0     0
SMALL
USER_CHARGES

@<TRIPOS>ATOM
      1 C1         -0.0156    1.2994    0.0092 C.2       1 <0>         0.3829
      2 N1          1.1230    2.0375    0.0023 N.am      1 <0>        -0.6454
      3 H1          1.0697    3.0060    0.0083 H         1 <0>         0.4247
      4 C2          2.3310    1.4312   -0.0125 C.2       1 <0>         0.5765
      5 O1          3.3598    2.0851   -0.0184 O.2       1 <0>        -0.5121
      6 C3          2.3689    0.0145   -0.0205 C.2       1 <0>        -0.1002
      7 C4          1.1574   -0.6836   -0.0127 C.2       1 <0>         0.2585
      8 N2          0.0021   -0.0041    0.0020 N.2       1 <0>        -0.5037
      9 N3          1.4845   -2.0118   -0.0230 N.pl3     1 <0>        -0.4436
     10 C5          2.8446   -2.0987   -0.0365 C.2       1 <0>         0.2440
     11 N4          3.3625   -0.9042   -0.0350 N.2       1 <0>        -0.4299
     12 C6          0.5446   -3.1355   -0.0196 C.3       1 <0>         0.3049
     13 H2         -0.3291   -2.8967    0.5868 H         1 <0>         0.1242
     14 C7          0.1184   -3.4844   -1.4629 C.3       1 <0>         0.0370
     15 H3          0.8748   -3.1542   -2.1749 H         1 <0>         0.0847
     16 C8          0.0131   -5.0259   -1.4609 C.3       1 <0>         0.0470
     17 H4          0.7174   -5.4578   -2.1720 H         1 <0>         0.0931
     18 C9          0.3881   -5.4260   -0.0168 C.3       1 <0>         0.0874
     19 H5         -0.5098   -5.5403    0.5906 H         1 <0>         0.1038
     20 O2          1.1896   -4.3289    0.4759 O.3       1 <0>        -0.3387
     21 C10         1.1986   -6.7237   -0.0170 C.3       1 <0>         0.1458
     22 O3          1.4352   -7.1378    1.3301 O.3       1 <0>        -0.7534
     23 P1          2.2600   -8.4682    1.7065 P.3       1 <0>         2.2115
     24 O4          3.6488   -8.4215    1.0312 O.2       1 <0>        -1.1058
     25 O5          2.4425   -8.5526    3.3039 O.3       1 <0>        -0.8963
     26 O6          1.4875   -9.7107    1.2100 O.3       1 <0>        -1.1049
     27 O7         -1.3209   -5.4371   -1.7669 O.3       1 <0>        -0.5336
     28 O8         -1.1465   -2.8938   -1.7681 O.3       1 <0>        -0.5299
     29 H6         -0.9679    1.8086    0.0256 H         1 <0>         0.2177
     30 H7          3.4080   -3.0200   -0.0463 H         1 <0>         0.2307
     31 H8          0.6423   -7.4994   -0.5432 H         1 <0>         0.0795
     32 H9          2.1519   -6.5566   -0.5184 H         1 <0>         0.0677
     33 H10        -1.6274   -5.1590   -2.6409 H         1 <0>         0.3792
     34 H11        -1.4624   -3.0809   -2.6627 H         1 <0>         0.3815
     35 H12         2.9317   -9.3312    3.6033 H         1 <0>         0.4153
@<TRIPOS>BOND
     1    1    8 2
     2    1    2 1
     3    1   29 1
     4    2    3 1
     5    2    4 am
     6    4    5 2
     7    4    6 1
     8    6   11 1
     9    6    7 2
    10    7    8 1
    11    7    9 1
    12    9   10 1
    13    9   12 1
    14   10   11 2
    15   10   30 1
    16   12   13 1
    17   12   20 1
    18   12   14 1
    19   14   15 1
    20   14   16 1
    21   14   28 1
    22   16   17 1
    23   16   18 1
    24   16   27 1
    25   18   19 1
    26   18   20 1
    27   18   21 1
    28   21   22 1
    29   21   31 1
    30   21   32 1
    31   22   23 1
    32   23   24 2
    33   23   25 1
    34   23   26 1
    35   25   35 1
    36   27   33 1
    37   28   34 1
@<TRIPOS>MOLECULE
ZINC00001758
   42    43     0     0     0
SMALL
USER_CHARGES

@<TRIPOS>ATOM
      1 C1          0.9286    1.3510   -0.6394 C.3       1 <0>        -0.1108
      2 C2          0.9927   -0.1538   -0.5909 C.ar      1 <0>        -0.0922
      3 C3          1.3887   -0.8587   -1.6982 C.ar      1 <0>        -0.0858
      4 C4          1.4512   -2.2576   -1.6621 C.ar      1 <0>        -0.2307
      5 C5          1.1049   -2.9345   -0.4831 C.ar      1 <0>         0.2134
      6 C6          0.7060   -2.2132    0.6292 C.ar      1 <0>        -0.1162
      7 C7          0.6550   -0.8276    0.5809 C.ar      1 <0>         0.1545
      8 O1          0.2689   -0.1265    1.6767 O.3       1 <0>        -0.3225
      9 C8         -1.1274    0.1446    1.8146 C.3       1 <0>         0.0323
     10 C9          0.3328   -2.9349    1.8984 C.3       1 <0>        -0.0438
     11 C10         1.5583   -3.1038    2.7591 C.2       1 <0>        -0.1875
     12 C11         1.8955   -4.2933    3.1923 C.2       1 <0>        -0.0985
     13 C12         0.9860   -5.4699    2.9485 C.3       1 <0>        -0.1217
     14 C13         3.1930   -4.4849    3.9344 C.3       1 <0>        -0.0628
     15 C14         2.9349   -4.4103    5.4407 C.3       1 <0>        -0.1745
     16 C15         4.2324   -4.6020    6.1828 C.2       1 <0>         0.4882
     17 O2          5.2677   -4.7816    5.5643 O.co2     1 <0>        -0.6991
     18 O3          4.2469   -4.5775    7.4017 O.co2     1 <0>        -0.7073
     19 O4          1.1602   -4.2889   -0.4334 O.3       1 <0>        -0.4800
     20 C16         1.9029   -2.7178   -2.9815 C.2       1 <0>         0.5269
     21 O5          2.0657   -3.8807   -3.2950 O.2       1 <0>        -0.4414
     22 O6          2.1096   -1.6658   -3.7920 O.3       1 <0>        -0.3169
     23 C17         1.8170   -0.4564   -3.0868 C.3       1 <0>         0.0964
     24 H1          1.8910    1.7656   -0.3395 H         1 <0>         0.0800
     25 H2          0.6950    1.6722   -1.6544 H         1 <0>         0.0687
     26 H3          0.1533    1.7037    0.0408 H         1 <0>         0.0730
     27 H4         -1.6773   -0.7954    1.8595 H         1 <0>         0.0517
     28 H5         -1.2990    0.7101    2.7305 H         1 <0>         0.1012
     29 H6         -1.4709    0.7259    0.9589 H         1 <0>         0.0494
     30 H7         -0.4144   -2.3548    2.4400 H         1 <0>         0.0786
     31 H8         -0.0763   -3.9148    1.6524 H         1 <0>         0.0908
     32 H9          2.1584   -2.2443    3.0188 H         1 <0>         0.1101
     33 H10         1.1877   -5.8867    1.9618 H         1 <0>         0.0673
     34 H11         1.1650   -6.2310    3.7080 H         1 <0>         0.0648
     35 H12        -0.0526   -5.1429    2.9995 H         1 <0>         0.0607
     36 H13         3.6134   -5.4594    3.6857 H         1 <0>         0.0686
     37 H14         3.8951   -3.7023    3.6469 H         1 <0>         0.0654
     38 H15         2.5146   -3.4359    5.6894 H         1 <0>         0.0557
     39 H16         2.2328   -5.1930    5.7282 H         1 <0>         0.0559
     40 H17         2.0155   -4.6374   -0.1470 H         1 <0>         0.4046
     41 H18         1.0100    0.0805   -3.5854 H         1 <0>         0.1157
     42 H19         2.7072    0.1705   -3.0358 H         1 <0>         0.1178
@<TRIPOS>BOND
     1    1    2 1
     2    1   24 1
     3    1   25 1
     4    1   26 1
     5    2    7 ar
     6    2    3 ar
     7    3   23 1
     8    3    4 ar
     9    4    5 ar
    10    4   20 1
    11    5    6 ar
    12    5   19 1
    13    6    7 ar
    14    6   10 1
    15    7    8 1
    16    8    9 1
    17    9   27 1
    18    9   28 1
    19    9   29 1
    20   10   11 1
    21   10   30 1
    22   10   31 1
    23   11   12 2
    24   11   32 1
    25   12   13 1
    26   12   14 1
    27   13   33 1
    28   13   34 1
    29   13   35 1
    30   14   15 1
    31   14   36 1
    32   14   37 1
    33   15   16 1
    34   15   38 1
    35   15   39 1
    36   16   17 2
    37   16   18 1
    38   19   40 1
    39   20   21 2
    40   20   22 1
    41   22   23 1
    42   23   41 1
    43   23   42 1
