@<TRIPOS>MOLECULE
ZINC58655676
   55    57     0     0     0
SMALL
USER_CHARGES

@<TRIPOS>ATOM
      1 C1          0.5488    1.6611   -0.2219 C.3       1 <0>        -0.1411
      2 C2          0.4334    0.1368   -0.1575 C.3       1 <0>        -0.0014
      3 C3          1.1752   -0.3791    1.0772 C.3       1 <0>        -0.1412
      4 C4         -1.0195   -0.2538   -0.0701 C.2       1 <0>        -0.2596
      5 C5         -1.9098    0.1168    0.9294 C.2       1 <0>         0.1117
      6 N1         -3.0838   -0.4099    0.6710 N.2       1 <0>        -0.3361
      7 N2         -2.9973   -1.1475   -0.5153 N.pl3     1 <0>        -0.3639
      8 C6         -1.7117   -1.0440   -0.9772 C.2       1 <0>         0.3466
      9 N3         -1.3417   -1.6548   -2.1127 N.2       1 <0>        -0.5767
     10 C7         -2.2072   -2.3671   -2.8134 C.2       1 <0>         0.4953
     11 C8         -3.5350   -2.4948   -2.3753 C.2       1 <0>        -0.3671
     12 C9         -3.9182   -1.8828   -1.2175 C.2       1 <0>         0.5060
     13 N4         -5.2172   -1.9910   -0.7665 N.pl3     1 <0>        -0.7101
     14 C10        -6.1925   -2.7789   -1.5242 C.3       1 <0>         0.1679
     15 C11        -7.5259   -2.7365   -0.8233 C.ar      1 <0>        -0.1184
     16 C12        -7.8360   -3.6880    0.1303 C.ar      1 <0>        -0.0961
     17 C13        -9.0591   -3.6491    0.7733 C.ar      1 <0>        -0.1212
     18 C14        -9.9719   -2.6584    0.4630 C.ar      1 <0>        -0.1053
     19 C15        -9.6614   -1.7064   -0.4899 C.ar      1 <0>        -0.1214
     20 C16        -8.4366   -1.7427   -1.1298 C.ar      1 <0>        -0.0963
     21 N5         -1.8032   -2.9889   -3.9834 N.pl3     1 <0>        -0.6918
     22 C17        -0.4184   -2.8566   -4.4427 C.3       1 <0>         0.1320
     23 H1         -0.0468   -1.8624   -4.1947 H         1 <0>         0.1085
     24 C18         0.4500   -3.9119   -3.7549 C.3       1 <0>         0.0700
     25 O1          0.0275   -5.2151   -4.1614 O.3       1 <0>        -0.5699
     26 C19        -0.3623   -3.0587   -5.9582 C.3       1 <0>         0.1075
     27 H2         -0.7661   -4.0395   -6.2092 H         1 <0>         0.1172
     28 C20        -1.1915   -1.9738   -6.6485 C.3       1 <0>         0.0440
     29 O2         -1.2351   -2.2295   -8.0537 O.3       1 <0>        -0.5625
     30 O3          0.9941   -2.9748   -6.4001 O.3       1 <0>        -0.5390
     31 H3          1.5996    1.9436   -0.2851 H         1 <0>         0.0538
     32 H4          0.0202    2.0286   -1.1015 H         1 <0>         0.0506
     33 H5          0.1086    2.0970    0.6749 H         1 <0>         0.0520
     34 H6          0.8736   -0.2992   -1.0543 H         1 <0>         0.0769
     35 H7          2.2261   -0.0966    1.0141 H         1 <0>         0.0538
     36 H8          0.7351    0.0569    1.9741 H         1 <0>         0.0520
     37 H9          1.0931   -1.4650    1.1232 H         1 <0>         0.0506
     38 H10        -1.6741    0.7374    1.7813 H         1 <0>         0.1890
     39 H11        -4.2442   -3.0761   -2.9458 H         1 <0>         0.1543
     40 H12        -5.4849   -1.5453    0.0524 H         1 <0>         0.4169
     41 H13        -6.2955   -2.3630   -2.5265 H         1 <0>         0.0824
     42 H14        -5.8507   -3.8116   -1.5927 H         1 <0>         0.0828
     43 H15        -7.1229   -4.4620    0.3727 H         1 <0>         0.1248
     44 H16        -9.3017   -4.3929    1.5178 H         1 <0>         0.1267
     45 H17       -10.9277   -2.6285    0.9648 H         1 <0>         0.1260
     46 H18       -10.3746   -0.9326   -0.7326 H         1 <0>         0.1266
     47 H19        -8.1925   -0.9967   -1.8716 H         1 <0>         0.1246
     48 H20        -2.4372   -3.5119   -4.4985 H         1 <0>         0.4145
     49 H21         1.4927   -3.7638   -4.0361 H         1 <0>         0.0598
     50 H22         0.3484   -3.8178   -2.6738 H         1 <0>         0.0555
     51 H23         0.5354   -5.9352   -3.7633 H         1 <0>         0.3813
     52 H24        -2.2046   -1.9800   -6.2464 H         1 <0>         0.0549
     53 H25        -0.7358   -0.9998   -6.4704 H         1 <0>         0.0491
     54 H26        -1.7454   -1.5796   -8.5561 H         1 <0>         0.3802
     55 H27         1.4409   -2.1559   -6.1452 H         1 <0>         0.3731
@<TRIPOS>BOND
     1    1    2 1
     2    1   31 1
     3    1   32 1
     4    1   33 1
     5    2    3 1
     6    2    4 1
     7    2   34 1
     8    3   35 1
     9    3   36 1
    10    3   37 1
    11    4    8 2
    12    4    5 1
    13    5    6 2
    14    5   38 1
    15    6    7 1
    16    7   12 1
    17    7    8 1
    18    8    9 1
    19    9   10 2
    20   10   11 1
    21   10   21 1
    22   11   12 2
    23   11   39 1
    24   12   13 1
    25   13   14 1
    26   13   40 1
    27   14   15 1
    28   14   41 1
    29   14   42 1
    30   15   20 ar
    31   15   16 ar
    32   16   17 ar
    33   16   43 1
    34   17   18 ar
    35   17   44 1
    36   18   19 ar
    37   18   45 1
    38   19   20 ar
    39   19   46 1
    40   20   47 1
    41   21   22 1
    42   21   48 1
    43   22   23 1
    44   22   24 1
    45   22   26 1
    46   24   25 1
    47   24   49 1
    48   24   50 1
    49   25   51 1
    50   26   27 1
    51   26   28 1
    52   26   30 1
    53   28   29 1
    54   28   52 1
    55   28   53 1
    56   29   54 1
    57   30   55 1
@<TRIPOS>MOLECULE
ZINC03814434
   62    69     0     0     0
SMALL
USER_CHARGES

@<TRIPOS>ATOM
      1 C1         -0.1295    1.5952   -0.2973 C.3       1 <0>        -0.1687
      2 C2         -0.0862    0.0696   -0.1900 C.3       1 <0>         0.3342
      3 C3          0.5692   -0.4501   -1.4637 C.3       1 <0>         0.0405
      4 H1          1.4796    0.1159   -1.6612 H         1 <0>         0.1372
      5 C4          0.9167   -1.9328   -1.2889 C.3       1 <0>        -0.0061
      6 H2          1.3963   -2.3075   -2.1932 H         1 <0>         0.1555
      7 C5          1.8785   -2.0596   -0.1021 C.3       1 <0>        -0.1827
      8 C6          1.2061   -1.5198    1.1541 C.3       1 <0>         0.2999
      9 H3          1.9797   -1.4243    1.9161 H         1 <0>         0.1550
     10 O1          0.6555   -0.2442    0.9666 O.3       1 <0>        -0.3234
     11 N1          0.2189   -2.4746    1.6600 N.pl3     1 <0>        -0.5366
     12 C7          0.4705   -3.5508    2.4739 C.ar      1 <0>         0.1469
     13 C8          1.6649   -4.0152    3.0240 C.ar      1 <0>        -0.1522
     14 C9          1.5948   -5.1456    3.8201 C.ar      1 <0>        -0.0582
     15 C10         0.4006   -5.7997    4.0696 C.ar      1 <0>        -0.1457
     16 C11        -0.7984   -5.3597    3.5358 C.ar      1 <0>        -0.0280
     17 C12        -0.7487   -4.2198    2.7307 C.ar      1 <0>        -0.1131
     18 C13        -1.7893   -3.4830    2.0197 C.ar      1 <0>         0.0276
     19 C14        -1.1442   -2.4197    1.3841 C.ar      1 <0>         0.0376
     20 C15        -1.8806   -1.5095    0.6175 C.ar      1 <0>         0.0894
     21 N2         -1.4718   -0.3951   -0.1095 N.pl3     1 <0>        -0.5183
     22 C16        -2.5611    0.1913   -0.7090 C.ar      1 <0>         0.1618
     23 C17        -2.6521    1.3277   -1.5118 C.ar      1 <0>        -0.1305
     24 C18        -3.9109    1.6745   -1.9733 C.ar      1 <0>        -0.0737
     25 C19        -5.0393    0.9368   -1.6616 C.ar      1 <0>        -0.1358
     26 C20        -4.9745   -0.1955   -0.8662 C.ar      1 <0>        -0.0503
     27 C21        -3.7147   -0.5596   -0.3919 C.ar      1 <0>        -0.1042
     28 C22        -3.2693   -1.6660    0.4845 C.ar      1 <0>        -0.0360
     29 C23        -3.9084   -2.7313    1.1102 C.ar      1 <0>        -0.0288
     30 C24        -3.1873   -3.6421    1.8754 C.ar      1 <0>        -0.1255
     31 C25        -4.1221   -4.6480    2.4030 C.2       1 <0>         0.5632
     32 O2         -3.8062   -5.5851    3.1110 O.2       1 <0>        -0.5106
     33 N3         -5.3744   -4.3851    1.9926 N.am      1 <0>        -0.7162
     34 C26        -5.3495   -3.1771    1.1601 C.3       1 <0>         0.1358
     35 N4         -0.3067   -2.7008   -1.0216 N.4       1 <0>        -0.5252
     36 C27         0.0145   -4.1336   -0.9773 C.3       1 <0>        -0.0497
     37 O3         -0.3340   -0.2979   -2.5607 O.3       1 <0>        -0.3614
     38 C28         0.3101   -0.0933   -3.8198 C.3       1 <0>         0.0162
     39 H4          0.8261    2.0094    0.0240 H         1 <0>         0.0984
     40 H5         -0.3202    1.8814   -1.3317 H         1 <0>         0.1036
     41 H6         -0.9255    1.9818    0.3392 H         1 <0>         0.0921
     42 H7          2.1370   -3.1081    0.0458 H         1 <0>         0.1233
     43 H8          2.7835   -1.4869   -0.3048 H         1 <0>         0.1455
     44 H9          2.6036   -3.5149    2.8368 H         1 <0>         0.1365
     45 H10         2.5026   -5.5304    4.2610 H         1 <0>         0.1359
     46 H11         0.4045   -6.6780    4.6980 H         1 <0>         0.1352
     47 H12        -1.7278   -5.8736    3.7323 H         1 <0>         0.1600
     48 H13        -1.7792    1.9122   -1.7624 H         1 <0>         0.1440
     49 H14        -4.0153    2.5500   -2.5970 H         1 <0>         0.1336
     50 H15        -5.9967    1.2527   -2.0488 H         1 <0>         0.1332
     51 H16        -5.8575   -0.7687   -0.6249 H         1 <0>         0.1415
     52 H17        -6.1628   -4.9065    2.2103 H         1 <0>         0.4348
     53 H18        -5.9671   -2.3994    1.6094 H         1 <0>         0.1115
     54 H19        -5.7060   -3.4063    0.1559 H         1 <0>         0.1103
     55 H20        -0.6958   -2.4158   -0.1353 H         1 <0>         0.4186
     56 H21         0.4349   -4.4415   -1.9347 H         1 <0>         0.1256
     57 H22         0.7403   -4.3189   -0.1854 H         1 <0>         0.1191
     58 H23        -0.8932   -4.7035   -0.7789 H         1 <0>         0.1256
     59 H24         0.9168    0.8112   -3.7748 H         1 <0>         0.0633
     60 H25         0.9482   -0.9479   -4.0446 H         1 <0>         0.0514
     61 H26        -0.4433    0.0130   -4.6003 H         1 <0>         0.1100
     62 H27        -0.9785   -2.5293   -1.7546 H         1 <0>         0.4274
@<TRIPOS>BOND
     1    1    2 1
     2    1   39 1
     3    1   40 1
     4    1   41 1
     5    2   10 1
     6    2   21 1
     7    2    3 1
     8    3    4 1
     9    3    5 1
    10    3   37 1
    11    5    6 1
    12    5    7 1
    13    5   35 1
    14    7    8 1
    15    7   42 1
    16    7   43 1
    17    8    9 1
    18    8   10 1
    19    8   11 1
    20   11   19 1
    21   11   12 1
    22   12   17 ar
    23   12   13 ar
    24   13   14 ar
    25   13   44 1
    26   14   15 ar
    27   14   45 1
    28   15   16 ar
    29   15   46 1
    30   16   17 ar
    31   16   47 1
    32   17   18 1
    33   18   30 ar
    34   18   19 ar
    35   19   20 ar
    36   20   28 ar
    37   20   21 1
    38   21   22 1
    39   22   27 ar
    40   22   23 ar
    41   23   24 ar
    42   23   48 1
    43   24   25 ar
    44   24   49 1
    45   25   26 ar
    46   25   50 1
    47   26   27 ar
    48   26   51 1
    49   27   28 1
    50   28   29 ar
    51   29   34 1
    52   29   30 ar
    53   30   31 1
    54   31   32 2
    55   31   33 am
    56   33   34 1
    57   33   52 1
    58   34   53 1
    59   34   54 1
    60   35   36 1
    61   35   55 1
    62   35   62 1
    63   36   56 1
    64   36   57 1
    65   36   58 1
    66   37   38 1
    67   38   59 1
    68   38   60 1
    69   38   61 1
@<TRIPOS>MOLECULE
ZINC06718813
   46    49     0     0     0
SMALL
USER_CHARGES
3-[4-(3-amino-1H-indazol-4-yl)phenyl]-1-(2-fluoro-5-methyl-phenyl)urea
@<TRIPOS>ATOM
      1 C1          6.9492   -0.6708   -4.4566 C.3       1 <0>        -0.1151
      2 C2          7.3188   -0.0066   -3.1554 C.ar      1 <0>        -0.0747
      3 C3          8.6152   -0.0905   -2.6815 C.ar      1 <0>        -0.1060
      4 C4          8.9590    0.5169   -1.4879 C.ar      1 <0>        -0.1295
      5 C5          8.0061    1.2101   -0.7639 C.ar      1 <0>         0.0645
      6 C6          6.7020    1.2957   -1.2387 C.ar      1 <0>         0.1336
      7 C7          6.3607    0.6802   -2.4351 C.ar      1 <0>        -0.0953
      8 N1          5.7336    1.9963   -0.5085 N.am      1 <0>        -0.6783
      9 C8          4.4547    1.5712   -0.5040 C.2       1 <0>         0.7069
     10 O1          4.1265    0.6239   -1.1921 O.2       1 <0>        -0.5500
     11 N2          3.5395    2.1961    0.2631 N.am      1 <0>        -0.6801
     12 C9          2.2409    1.6865    0.3572 C.ar      1 <0>         0.1677
     13 C10         1.1632    2.5541    0.4899 C.ar      1 <0>        -0.1430
     14 C11        -0.1180    2.0545    0.5834 C.ar      1 <0>        -0.0892
     15 C12        -0.3326    0.6766    0.5442 C.ar      1 <0>        -0.0682
     16 C13         0.7509   -0.1919    0.4104 C.ar      1 <0>        -0.0779
     17 C14         2.0300    0.3132    0.3174 C.ar      1 <0>        -0.1142
     18 C15        -1.7083    0.1367    0.6449 C.ar      1 <0>         0.0376
     19 C16        -2.0347   -0.7648    1.6483 C.ar      1 <0>        -0.1557
     20 C17        -3.3230   -1.2675    1.7456 C.ar      1 <0>        -0.0592
     21 C18        -4.2968   -0.8911    0.8473 C.ar      1 <0>        -0.1529
     22 C19        -3.9969    0.0086   -0.1734 C.ar      1 <0>         0.1547
     23 C20        -2.6946    0.5292   -0.2801 C.ar      1 <0>        -0.1858
     24 C21        -2.7034    1.4283   -1.4324 C.2       1 <0>         0.3642
     25 N3         -3.9099    1.4169   -1.9352 N.2       1 <0>        -0.3205
     26 N4         -4.7292    0.5606   -1.1926 N.pl3     1 <0>        -0.5119
     27 H1         -5.6955    0.3797   -1.3759 H         1 <0>         0.4473
     28 N5         -1.6172    2.1667   -1.9108 N.pl3     1 <0>        -0.8360
     29 F1          8.3418    1.8036    0.4023 F         1 <0>        -0.1384
     30 H2          6.6188   -1.6912   -4.2627 H         1 <0>         0.0755
     31 H3          6.1436   -0.1125   -4.9335 H         1 <0>         0.0695
     32 H4          7.8178   -0.6890   -5.1149 H         1 <0>         0.0704
     33 H5          9.3607   -0.6319   -3.2448 H         1 <0>         0.1352
     34 H6          9.9724    0.4496   -1.1204 H         1 <0>         0.1410
     35 H7          5.3477    0.7413   -2.8045 H         1 <0>         0.1523
     36 H8          5.9835    2.7876   -0.0061 H         1 <0>         0.4118
     37 H9          3.7818    2.9993    0.7499 H         1 <0>         0.4106
     38 H10         1.3298    3.6208    0.5203 H         1 <0>         0.1310
     39 H11        -0.9554    2.7293    0.6824 H         1 <0>         0.1315
     40 H12         0.5876   -1.2590    0.3794 H         1 <0>         0.1314
     41 H13         2.8692   -0.3587    0.2138 H         1 <0>         0.1391
     42 H14        -1.2822   -1.0738    2.3586 H         1 <0>         0.1292
     43 H15        -3.5651   -1.9655    2.5334 H         1 <0>         0.1325
     44 H16        -5.2951   -1.2940    0.9345 H         1 <0>         0.1278
     45 H17        -0.7342    2.0309   -1.5329 H         1 <0>         0.4118
     46 H18        -1.7465    2.8151   -2.6206 H         1 <0>         0.4050
@<TRIPOS>BOND
     1    1    2 1
     2    1   30 1
     3    1   31 1
     4    1   32 1
     5    2    7 ar
     6    2    3 ar
     7    3    4 ar
     8    3   33 1
     9    4    5 ar
    10    4   34 1
    11    5    6 ar
    12    5   29 1
    13    6    7 ar
    14    6    8 1
    15    7   35 1
    16    8    9 am
    17    8   36 1
    18    9   10 2
    19    9   11 am
    20   11   12 1
    21   11   37 1
    22   12   17 ar
    23   12   13 ar
    24   13   14 ar
    25   13   38 1
    26   14   15 ar
    27   14   39 1
    28   15   16 ar
    29   15   18 1
    30   16   17 ar
    31   16   40 1
    32   17   41 1
    33   18   23 ar
    34   18   19 ar
    35   19   20 ar
    36   19   42 1
    37   20   21 ar
    38   20   43 1
    39   21   22 ar
    40   21   44 1
    41   22   26 1
    42   22   23 ar
    43   23   24 1
    44   24   25 2
    45   24   28 1
    46   25   26 1
    47   26   27 1
    48   28   45 1
    49   28   46 1
@<TRIPOS>MOLECULE
ZINC03964325
   57    59     0     0     0
SMALL
USER_CHARGES

@<TRIPOS>ATOM
      1 C1          0.1489    2.0884    0.1150 C.3       1 <0>        -0.1876
      2 C2          0.1348    0.5603    0.1888 C.3       1 <0>        -0.0191
      3 N1         -1.2520    0.0881    0.2979 N.4       1 <0>        -0.3822
      4 C3         -1.9779    0.4111   -0.9377 C.3       1 <0>        -0.0142
      5 C4         -3.4549    0.0484   -0.7712 C.3       1 <0>        -0.1895
      6 C5         -1.2593   -1.3663    0.5041 C.3       1 <0>        -0.0265
      7 C6         -0.6131   -1.6936    1.8518 C.3       1 <0>         0.0952
      8 N2         -0.6203   -3.1440    2.0575 N.am      1 <0>        -0.7289
      9 C7         -0.0988   -3.6675    3.1846 C.2       1 <0>         0.6111
     10 O1          0.3779   -2.9358    4.0309 O.2       1 <0>        -0.5184
     11 C8         -0.1061   -5.1270    3.3915 C.2       1 <0>        -0.2420
     12 C9          0.9071   -6.0320    3.0089 C.2       1 <0>        -0.0577
     13 C10         0.4868   -7.2892    3.3960 C.2       1 <0>        -0.0075
     14 N3         -0.7476   -7.1595    3.9982 N.pl3     1 <0>        -0.4910
     15 H1         -1.2731   -7.8879    4.3645 H         1 <0>         0.4270
     16 C11        -1.1044   -5.8642    4.0022 C.2       1 <0>         0.1158
     17 C12        -2.3825   -5.3072    4.5743 C.3       1 <0>        -0.0999
     18 C13         1.1957   -8.4957    3.2079 C.2       1 <0>         0.0729
     19 C14         0.5100   -9.6674    2.9570 C.2       1 <0>        -0.1889
     20 C15         1.0648  -11.0377    2.8871 C.ar      1 <0>        -0.0736
     21 C16         2.3472  -11.5557    3.0375 C.ar      1 <0>        -0.1000
     22 C17         2.5553  -12.9162    2.9116 C.ar      1 <0>         0.0861
     23 C18         1.4888  -13.7593    2.6366 C.ar      1 <0>        -0.1139
     24 C19         0.2139  -13.2531    2.4856 C.ar      1 <0>        -0.1021
     25 C20        -0.0144  -11.8871    2.6092 C.ar      1 <0>         0.1282
     26 N4         -1.1765  -11.1301    2.5069 N.am      1 <0>        -0.6466
     27 C21        -0.9294   -9.8245    2.7079 C.2       1 <0>         0.5595
     28 O2         -1.7538   -8.9280    2.6842 O.2       1 <0>        -0.5156
     29 F1          3.7984  -13.4252    3.0561 F         1 <0>        -0.1318
     30 C22         2.1990   -5.6919    2.3116 C.3       1 <0>        -0.0931
     31 H2          1.1793    2.4435    0.1331 H         1 <0>         0.1076
     32 H3         -0.3308    2.4121   -0.8087 H         1 <0>         0.0811
     33 H4         -0.3916    2.4984    0.9682 H         1 <0>         0.0809
     34 H5          0.5888    0.1488   -0.7126 H         1 <0>         0.1317
     35 H6          0.6996    0.2334    1.0619 H         1 <0>         0.1337
     36 H7         -1.8867    1.4775   -1.1444 H         1 <0>         0.1351
     37 H8         -1.5554   -0.1571   -1.7664 H         1 <0>         0.1307
     38 H9         -3.5537   -1.0316   -0.6617 H         1 <0>         0.0802
     39 H10        -3.8523    0.5414    0.1160 H         1 <0>         0.0808
     40 H11        -4.0109    0.3769   -1.6492 H         1 <0>         0.1074
     41 H12        -2.2871   -1.7292    0.4963 H         1 <0>         0.1397
     42 H13        -0.6973   -1.8494   -0.2952 H         1 <0>         0.1376
     43 H14         0.4147   -1.3306    1.8596 H         1 <0>         0.0893
     44 H15        -1.1751   -1.2105    2.6511 H         1 <0>         0.0890
     45 H16        -1.0005   -3.7277    1.3824 H         1 <0>         0.4099
     46 H17        -3.1529   -5.3000    3.8032 H         1 <0>         0.0840
     47 H18        -2.7087   -5.9289    5.4080 H         1 <0>         0.0782
     48 H19        -2.2103   -4.2898    4.9254 H         1 <0>         0.0840
     49 H20         2.2744   -8.5020    3.2604 H         1 <0>         0.1589
     50 H21         3.1765  -10.8977    3.2512 H         1 <0>         0.1436
     51 H22         1.6578  -14.8215    2.5394 H         1 <0>         0.1485
     52 H23        -0.6084  -13.9196    2.2712 H         1 <0>         0.1415
     53 H24        -2.0541  -11.4980    2.3189 H         1 <0>         0.4217
     54 H25         2.9686   -5.4822    3.0545 H         1 <0>         0.0785
     55 H26         2.5107   -6.5337    1.6932 H         1 <0>         0.0726
     56 H27         2.0522   -4.8138    1.6827 H         1 <0>         0.0634
     57 H28        -1.7009    0.5410    1.0799 H         1 <0>         0.4247
@<TRIPOS>BOND
     1    1    2 1
     2    1   31 1
     3    1   32 1
     4    1   33 1
     5    2    3 1
     6    2   34 1
     7    2   35 1
     8    3    4 1
     9    3    6 1
    10    3   57 1
    11    4    5 1
    12    4   36 1
    13    4   37 1
    14    5   38 1
    15    5   39 1
    16    5   40 1
    17    6    7 1
    18    6   41 1
    19    6   42 1
    20    7    8 1
    21    7   43 1
    22    7   44 1
    23    8    9 am
    24    8   45 1
    25    9   10 2
    26    9   11 1
    27   11   16 2
    28   11   12 1
    29   12   13 2
    30   12   30 1
    31   13   14 1
    32   13   18 1
    33   14   15 1
    34   14   16 1
    35   16   17 1
    36   17   46 1
    37   17   47 1
    38   17   48 1
    39   18   19 2
    40   18   49 1
    41   19   27 1
    42   19   20 1
    43   20   25 ar
    44   20   21 ar
    45   21   22 ar
    46   21   50 1
    47   22   23 ar
    48   22   29 1
    49   23   24 ar
    50   23   51 1
    51   24   25 ar
    52   24   52 1
    53   25   26 1
    54   26   27 am
    55   26   53 1
    56   27   28 2
    57   30   54 1
    58   30   55 1
    59   30   56 1
@<TRIPOS>MOLECULE
ZINC03820040
   62    66     0     0     0
SMALL
USER_CHARGES
N-[4-[4-(4-methylpiperazin-1-yl)-6-[(5-methyl-2H-pyrazol-3-yl)amino]pyrimidin-2-yl]sulfanylphenyl]cyclopropanecarboxamide
@<TRIPOS>ATOM
      1 C1          1.8035   -7.6837    0.5070 C.3       1 <0>        -0.0779
      2 C2          2.3685   -6.3674    0.0389 C.2       1 <0>         0.0949
      3 C3          1.9325   -5.1020    0.4407 C.2       1 <0>        -0.2905
      4 C4          2.6904   -4.1743   -0.2066 C.2       1 <0>         0.3252
      5 N1          3.5799   -4.8447   -0.9836 N.pl3     1 <0>        -0.4853
      6 H1          4.2729   -4.4328   -1.5753 H         1 <0>         0.4473
      7 N2          3.3537   -6.2159   -0.8085 N.2       1 <0>        -0.2711
      8 N3          2.5778   -2.7905   -0.0888 N.pl3     1 <0>        -0.6296
      9 C5          1.3376   -2.2123    0.1391 C.ar      1 <0>         0.4706
     10 C6          0.1755   -2.9717    0.0343 C.ar      1 <0>        -0.2983
     11 C7         -1.0466   -2.3490    0.2714 C.ar      1 <0>         0.3791
     12 N4         -1.0643   -1.0564    0.5886 N.ar      1 <0>        -0.5664
     13 C8          0.0620   -0.3646    0.6795 C.ar      1 <0>         0.3511
     14 N5          1.2425   -0.9231    0.4557 N.ar      1 <0>        -0.5606
     15 S1         -0.0125    1.3444    1.1018 S.3       1 <0>         0.1303
     16 C9          1.7078    1.7032    1.2298 C.ar      1 <0>        -0.1638
     17 C10         2.3806    1.4637    2.4214 C.ar      1 <0>        -0.0284
     18 C11         3.7293    1.7409    2.5200 C.ar      1 <0>        -0.1315
     19 C12         4.4114    2.2681    1.4313 C.ar      1 <0>         0.1902
     20 C13         3.7379    2.5125    0.2417 C.ar      1 <0>        -0.1573
     21 C14         2.3903    2.2311    0.1410 C.ar      1 <0>        -0.0288
     22 N6          5.7793    2.5539    1.5333 N.am      1 <0>        -0.6744
     23 C15         6.5739    1.7808    2.2997 C.2       1 <0>         0.5466
     24 O1          6.1269    0.7811    2.8213 O.2       1 <0>        -0.5140
     25 C16         8.0178    2.1584    2.5086 C.3       1 <0>        -0.2022
     26 C17         9.0818    1.2604    1.8742 C.3       1 <0>        -0.1494
     27 C18         8.8679    1.2402    3.3890 C.3       1 <0>        -0.1425
     28 N7         -2.2296   -3.0657    0.1789 N.pl3     1 <0>        -0.4710
     29 C19        -2.3617   -3.6957   -1.1422 C.3       1 <0>         0.0277
     30 C20        -3.6379   -4.5399   -1.1765 C.3       1 <0>         0.0040
     31 C21        -4.6643   -3.0537    0.4349 C.3       1 <0>        -0.0004
     32 C22        -3.3881   -2.2095    0.4692 C.3       1 <0>         0.0347
     33 C23        -6.0501   -4.4431   -0.9842 C.3       1 <0>        -0.0407
     34 H2          2.3381   -8.0122    1.3982 H         1 <0>         0.0831
     35 H3          0.7460   -7.5623    0.7417 H         1 <0>         0.0784
     36 H4          1.9177   -8.4287   -0.2805 H         1 <0>         0.0774
     37 H5          1.1347   -4.8964    1.1389 H         1 <0>         0.1550
     38 H6          3.3667   -2.2314   -0.1662 H         1 <0>         0.4241
     39 H7          0.2211   -4.0192   -0.2246 H         1 <0>         0.1631
     40 H8          1.8494    1.0573    3.2693 H         1 <0>         0.1319
     41 H9          4.2533    1.5509    3.4451 H         1 <0>         0.1405
     42 H10         4.2686    2.9225   -0.6049 H         1 <0>         0.1339
     43 H11         1.8666    2.4209   -0.7843 H         1 <0>         0.1341
     44 H12         6.1543    3.3081    1.0523 H         1 <0>         0.4168
     45 H13         8.2224    3.2282    2.5520 H         1 <0>         0.1306
     46 H14         8.7374    0.3965    1.3057 H         1 <0>         0.0995
     47 H15         9.9866    1.7393    1.5000 H         1 <0>         0.1100
     48 H16         9.6320    1.7059    4.0114 H         1 <0>         0.1092
     49 H17         8.3827    0.3633    3.8175 H         1 <0>         0.1093
     50 H18        -2.4158   -2.9234   -1.9095 H         1 <0>         0.0737
     51 H19        -1.4982   -4.3342   -1.3286 H         1 <0>         0.1318
     52 H20        -3.5722   -5.3290   -0.4274 H         1 <0>         0.1439
     53 H21        -3.7533   -4.9852   -2.1646 H         1 <0>         0.1412
     54 H22        -4.6102   -3.8259    1.2022 H         1 <0>         0.1407
     55 H23        -5.5278   -2.4152    0.6217 H         1 <0>         0.1407
     56 H24        -3.2729   -1.7645    1.4575 H         1 <0>         0.1357
     57 H25        -3.4537   -1.4201   -0.2796 H         1 <0>         0.0793
     58 H26        -6.8948   -3.7714   -0.8313 H         1 <0>         0.1238
     59 H27        -6.1225   -4.8989   -1.9717 H         1 <0>         0.1230
     60 H28        -6.0632   -5.2226   -0.2224 H         1 <0>         0.1251
     61 N8         -4.7966   -3.6630   -0.9051 N.4       1 <0>        -0.4014
     62 H29        -4.8229   -2.9169   -1.6099 H         1 <0>         0.4281
@<TRIPOS>BOND
     1    1    2 1
     2    1   34 1
     3    1   35 1
     4    1   36 1
     5    2    7 2
     6    2    3 1
     7    3    4 2
     8    3   37 1
     9    4    5 1
    10    4    8 1
    11    5    6 1
    12    5    7 1
    13    8    9 1
    14    8   38 1
    15    9   14 ar
    16    9   10 ar
    17   10   11 ar
    18   10   39 1
    19   11   12 ar
    20   11   28 1
    21   12   13 ar
    22   13   14 ar
    23   13   15 1
    24   15   16 1
    25   16   21 ar
    26   16   17 ar
    27   17   18 ar
    28   17   40 1
    29   18   19 ar
    30   18   41 1
    31   19   20 ar
    32   19   22 1
    33   20   21 ar
    34   20   42 1
    35   21   43 1
    36   22   23 am
    37   22   44 1
    38   23   24 2
    39   23   25 1
    40   25   27 1
    41   25   26 1
    42   25   45 1
    43   26   27 1
    44   26   46 1
    45   26   47 1
    46   27   48 1
    47   27   49 1
    48   28   32 1
    49   28   29 1
    50   29   30 1
    51   29   50 1
    52   29   51 1
    53   30   52 1
    54   30   53 1
    55   30   61 1
    56   31   32 1
    57   31   54 1
    58   31   55 1
    59   31   61 1
    60   32   56 1
    61   32   57 1
    62   33   58 1
    63   33   59 1
    64   33   60 1
    65   33   61 1
    66   61   62 1
@<TRIPOS>MOLECULE
ZINC18825339
   59    62     0     0     0
SMALL
USER_CHARGES
5-[(Z)-(5-fluoro-2-oxo-indolin-3-ylidene)methyl]-N-[(2R)-2-hydroxy-3-morpholino-propyl]-2,4-dimethyl-1H-pyrrole-3-carboxamide
@<TRIPOS>ATOM
      1 C1          3.5607    0.7280    0.3667 C.3       1 <0>        -0.0956
      2 C2          2.0758    0.7165    0.1102 C.2       1 <0>        -0.0564
      3 C3          1.2591    1.8188   -0.0477 C.2       1 <0>        -0.0308
      4 N1         -0.0271    1.3691   -0.2640 N.pl3     1 <0>        -0.5068
      5 H1         -0.8436    2.0903   -0.4163 H         1 <0>         0.4494
      6 C4         -0.0354    0.0257   -0.2455 C.2       1 <0>         0.1277
      7 C5          1.2525   -0.4230   -0.0155 C.2       1 <0>        -0.2308
      8 C6          1.6847   -1.8291    0.0810 C.2       1 <0>         0.5980
      9 O1          2.0430   -2.4250   -0.9167 O.2       1 <0>        -0.5421
     10 N2          1.6827   -2.4542    1.2750 N.am      1 <0>        -0.7266
     11 C7          2.1121   -3.8516    1.3710 C.3       1 <0>         0.1299
     12 C8          2.0150   -4.3162    2.8255 C.3       1 <0>         0.1144
     13 H2          2.5334   -3.6206    3.5018 H         1 <0>         0.0568
     14 C9          2.5799   -5.7329    2.9471 C.3       1 <0>         0.0228
     15 N3          2.4867   -6.1790    4.3436 N.3       1 <0>        -0.5349
     16 C10         3.3671   -5.3829    5.2109 C.3       1 <0>         0.0083
     17 C11         3.1945   -5.8402    6.6618 C.3       1 <0>         0.0618
     18 O2          3.4694   -7.2408    6.7508 O.3       1 <0>        -0.3843
     19 C12         2.6296   -8.0463    5.9193 C.3       1 <0>         0.0614
     20 C13         2.7965   -7.6114    4.4609 C.3       1 <0>         0.0172
     21 O3          0.6463   -4.3123    3.2364 O.3       1 <0>        -0.5882
     22 C14        -1.2476   -0.8477   -0.4426 C.3       1 <0>        -0.0994
     23 C15         1.6686    3.1691    0.0027 C.2       1 <0>         0.0908
     24 C16         0.8216    4.1284    0.5209 C.2       1 <0>        -0.2125
     25 C17         1.0162    5.5955    0.5210 C.ar      1 <0>        -0.0684
     26 C18         2.0202    6.4240    0.0297 C.ar      1 <0>        -0.1043
     27 C19         1.9118    7.7937    0.1786 C.ar      1 <0>         0.0808
     28 C20         0.8031    8.3379    0.8097 C.ar      1 <0>        -0.1198
     29 C21        -0.2000    7.5233    1.2941 C.ar      1 <0>        -0.1061
     30 C22        -0.1080    6.1430    1.1533 C.ar      1 <0>         0.1250
     31 N4         -0.9593    5.1144    1.5420 N.am      1 <0>        -0.6604
     32 C23        -0.4649    3.9133    1.1971 C.2       1 <0>         0.5647
     33 O4         -0.9909    2.8351    1.4086 O.2       1 <0>        -0.5132
     34 F1          2.8866    8.6030   -0.2904 F         1 <0>        -0.1355
     35 H3          3.9167    1.7678    0.4131 H         1 <0>         0.0672
     36 H4          4.0776    0.1994   -0.4478 H         1 <0>         0.0746
     37 H5          3.7717    0.2252    1.3221 H         1 <0>         0.0710
     38 H6          1.3586   -1.9152    2.1775 H         1 <0>         0.4262
     39 H7          1.4633   -4.4786    0.7417 H         1 <0>         0.0750
     40 H8          3.1531   -3.9398    1.0266 H         1 <0>         0.0785
     41 H9          2.0023   -6.4143    2.3052 H         1 <0>         0.0900
     42 H10         3.6334   -5.7360    2.6307 H         1 <0>         0.0465
     43 H11         4.4130   -5.5254    4.9015 H         1 <0>         0.0459
     44 H12         3.1012   -4.3189    5.1257 H         1 <0>         0.0881
     45 H13         3.8925   -5.2859    7.3064 H         1 <0>         0.1001
     46 H14         2.1618   -5.6458    6.9871 H         1 <0>         0.0615
     47 H15         2.9156   -9.1033    6.0238 H         1 <0>         0.1009
     48 H16         1.5805   -7.9185    6.2243 H         1 <0>         0.0621
     49 H17         2.1104   -8.1883    3.8234 H         1 <0>         0.0898
     50 H18         3.8332   -7.7899    4.1393 H         1 <0>         0.0455
     51 H19         0.3780   -4.6185    4.2583 H         1 <0>         0.4136
     52 H20        -0.9523   -1.9052   -0.3757 H         1 <0>         0.0845
     53 H21        -1.6843   -0.6508   -1.4328 H         1 <0>         0.0777
     54 H22        -1.9909   -0.6245    0.3369 H         1 <0>         0.0809
     55 H23         2.6624    3.4568   -0.3709 H         1 <0>         0.1579
     56 H24         2.8828    5.9984   -0.4614 H         1 <0>         0.1409
     57 H25         0.7239    9.4091    0.9228 H         1 <0>         0.1443
     58 H26        -1.0583    7.9589    1.7840 H         1 <0>         0.1386
     59 H27        -1.9003    5.3463    2.0623 H         1 <0>         0.4455
@<TRIPOS>BOND
     1    1    2 1
     2    1   35 1
     3    1   36 1
     4    1   37 1
     5    2    7 1
     6    2    3 2
     7    3    4 1
     8    3   23 1
     9    4    5 1
    10    4    6 1
    11    6    7 2
    12    6   22 1
    13    7    8 1
    14    8    9 2
    15    8   10 am
    16   10   11 1
    17   10   38 1
    18   11   12 1
    19   11   39 1
    20   11   40 1
    21   12   13 1
    22   12   14 1
    23   12   21 1
    24   14   15 1
    25   14   41 1
    26   14   42 1
    27   15   20 1
    28   15   16 1
    29   16   17 1
    30   16   43 1
    31   16   44 1
    32   17   18 1
    33   17   45 1
    34   17   46 1
    35   18   19 1
    36   19   20 1
    37   19   47 1
    38   19   48 1
    39   20   49 1
    40   20   50 1
    41   21   51 1
    42   22   52 1
    43   22   53 1
    44   22   54 1
    45   23   24 2
    46   23   55 1
    47   24   32 1
    48   24   25 1
    49   25   30 ar
    50   25   26 ar
    51   26   27 ar
    52   26   56 1
    53   27   28 ar
    54   27   34 1
    55   28   29 ar
    56   28   57 1
    57   29   30 ar
    58   29   58 1
    59   30   31 1
    60   31   32 am
    61   31   59 1
    62   32   33 2
@<TRIPOS>MOLECULE
ZINC18825344
   59    62     0     0     0
SMALL
USER_CHARGES
5-[(Z)-(5-fluoro-2-oxo-indolin-3-ylidene)methyl]-N-[(2S)-2-hydroxy-3-morpholino-propyl]-2,4-dimethyl-1H-pyrrole-3-carboxamide
@<TRIPOS>ATOM
      1 C1          4.7056    0.6287    1.0117 C.3       1 <0>        -0.0968
      2 C2          3.2464    0.8378    0.6983 C.2       1 <0>        -0.0523
      3 C3          2.5980    2.0501    0.5678 C.2       1 <0>        -0.0327
      4 N1          1.2732    1.7961    0.2789 N.pl3     1 <0>        -0.5060
      5 H1          0.5720    2.6311    0.1339 H         1 <0>         0.4496
      6 C4          1.0783    0.4679    0.2258 C.2       1 <0>         0.1246
      7 C5          2.2801   -0.1676    0.4808 C.2       1 <0>        -0.2308
      8 C6          2.5088   -1.6234    0.5191 C.2       1 <0>         0.5976
      9 O1          2.8262   -2.2159   -0.4944 O.2       1 <0>        -0.5428
     10 N2          2.3662   -2.2977    1.6773 N.am      1 <0>        -0.7254
     11 C7          2.5935   -3.7444    1.7154 C.3       1 <0>         0.1298
     12 C8          2.3672   -4.2590    3.1384 C.3       1 <0>         0.1172
     13 H2          1.3599   -4.0040    3.4994 H         1 <0>         0.0560
     14 C9          2.6045   -5.7699    3.1781 C.3       1 <0>         0.0219
     15 N3          2.3382   -6.2720    4.5327 N.3       1 <0>        -0.5356
     16 C10         2.9762   -7.5793    4.7450 C.3       1 <0>         0.0168
     17 C11         2.7241   -8.0365    6.1842 C.3       1 <0>         0.0612
     18 O2          1.3152   -8.0759    6.4267 O.3       1 <0>        -0.3844
     19 C12         0.6618   -6.8191    6.2299 C.3       1 <0>         0.0617
     20 C13         0.8930   -6.3496    4.7911 C.3       1 <0>         0.0111
     21 O3          3.2765   -3.6103    4.0297 O.3       1 <0>        -0.5892
     22 C14        -0.2328   -0.2165   -0.0637 C.3       1 <0>        -0.0987
     23 C15         3.1876    3.3256    0.7056 C.2       1 <0>         0.0935
     24 C16         2.4515    4.3746    1.2192 C.2       1 <0>        -0.2157
     25 C17         2.8515    5.7966    1.3077 C.ar      1 <0>        -0.0669
     26 C18         3.9943    6.4912    0.9234 C.ar      1 <0>        -0.1048
     27 C19         4.0710    7.8545    1.1363 C.ar      1 <0>         0.0814
     28 C20         3.0098    8.5263    1.7247 C.ar      1 <0>        -0.1204
     29 C21         1.8704    7.8457    2.1029 C.ar      1 <0>        -0.1055
     30 C22         1.7753    6.4739    1.8965 C.ar      1 <0>         0.1237
     31 N4          0.7622    5.5637    2.1775 N.am      1 <0>        -0.6596
     32 C23         1.1039    4.3195    1.8021 C.2       1 <0>         0.5657
     33 O4          0.4171    3.3209    1.9242 O.2       1 <0>        -0.5153
     34 F1          5.1807    8.5334    0.7715 F         1 <0>        -0.1355
     35 H3          5.1994    1.6049    1.1269 H         1 <0>         0.0668
     36 H4          5.1808    0.0720    0.1906 H         1 <0>         0.0744
     37 H5          4.8016    0.0567    1.9464 H         1 <0>         0.0741
     38 H6          2.0791   -1.7617    2.5940 H         1 <0>         0.4273
     39 H7          1.8935   -4.2437    1.0293 H         1 <0>         0.0777
     40 H8          3.6268   -3.9615    1.4070 H         1 <0>         0.0736
     41 H9          1.9304   -6.2658    2.4641 H         1 <0>         0.0486
     42 H10         3.6486   -5.9844    2.9062 H         1 <0>         0.0884
     43 H11         2.5501   -8.3132    4.0451 H         1 <0>         0.0451
     44 H12         4.0587   -7.4917    4.5704 H         1 <0>         0.0900
     45 H13         3.1515   -9.0395    6.3305 H         1 <0>         0.1008
     46 H14         3.1986   -7.3305    6.8817 H         1 <0>         0.0620
     47 H15        -0.4170   -6.9344    6.4112 H         1 <0>         0.1000
     48 H16         1.0741   -6.0778    6.9303 H         1 <0>         0.0613
     49 H17         0.4415   -5.3564    4.6504 H         1 <0>         0.0873
     50 H18         0.4333   -7.0637    4.0920 H         1 <0>         0.0461
     51 H19         3.2627   -3.8533    5.1024 H         1 <0>         0.4141
     52 H20        -0.0899   -1.3070   -0.0417 H         1 <0>         0.0829
     53 H21        -0.5927    0.0862   -1.0581 H         1 <0>         0.0781
     54 H22        -0.9728    0.0718    0.6974 H         1 <0>         0.0803
     55 H23         4.2335    3.4835    0.4037 H         1 <0>         0.1584
     56 H24         4.8196    5.9664    0.4654 H         1 <0>         0.1411
     57 H25         3.0756    9.5918    1.8882 H         1 <0>         0.1443
     58 H26         1.0507    8.3797    2.5605 H         1 <0>         0.1385
     59 H27        -0.1701    5.9069    2.6497 H         1 <0>         0.4455
@<TRIPOS>BOND
     1    1    2 1
     2    1   35 1
     3    1   36 1
     4    1   37 1
     5    2    7 1
     6    2    3 2
     7    3    4 1
     8    3   23 1
     9    4    5 1
    10    4    6 1
    11    6    7 2
    12    6   22 1
    13    7    8 1
    14    8    9 2
    15    8   10 am
    16   10   11 1
    17   10   38 1
    18   11   12 1
    19   11   39 1
    20   11   40 1
    21   12   13 1
    22   12   14 1
    23   12   21 1
    24   14   15 1
    25   14   41 1
    26   14   42 1
    27   15   20 1
    28   15   16 1
    29   16   17 1
    30   16   43 1
    31   16   44 1
    32   17   18 1
    33   17   45 1
    34   17   46 1
    35   18   19 1
    36   19   20 1
    37   19   47 1
    38   19   48 1
    39   20   49 1
    40   20   50 1
    41   21   51 1
    42   22   52 1
    43   22   53 1
    44   22   54 1
    45   23   24 2
    46   23   55 1
    47   24   32 1
    48   24   25 1
    49   25   30 ar
    50   25   26 ar
    51   26   27 ar
    52   26   56 1
    53   27   28 ar
    54   27   34 1
    55   28   29 ar
    56   28   57 1
    57   29   30 ar
    58   29   58 1
    59   30   31 1
    60   31   32 am
    61   31   59 1
    62   32   33 2
@<TRIPOS>MOLECULE
ZINC23247639
   69    72     0     0     0
SMALL
USER_CHARGES
1-[4-[(4-ethylpiperazin-1-yl)methyl]-3-(trifluoromethyl)phenyl]-3-[4-(6-methylaminopyrimidin-4-yl)oxyphenyl]urea
@<TRIPOS>ATOM
      1 C1          8.9417    3.3719    8.2172 C.3       1 <0>        -0.1901
      2 C2         10.1498    2.9102    7.3997 C.3       1 <0>        -0.0070
      3 N1          9.9972    3.3533    6.0075 N.4       1 <0>        -0.4011
      4 C3         11.2367    3.1387    5.2477 C.3       1 <0>         0.0016
      5 C4         11.0629    3.6845    3.8284 C.3       1 <0>         0.0271
      6 N2          9.9288    3.0094    3.1822 N.3       1 <0>        -0.5300
      7 C5          8.6893    3.2240    3.9420 C.3       1 <0>         0.0232
      8 C6          8.8631    2.6781    5.3612 C.3       1 <0>        -0.0016
      9 C7          9.7762    3.4524    1.7899 C.3       1 <0>         0.0786
     10 C8          8.7879    2.5601    1.0842 C.ar      1 <0>        -0.0666
     11 C9          7.5022    3.0092    0.8434 C.ar      1 <0>        -0.0932
     12 C10         6.5958    2.1959    0.1923 C.ar      1 <0>        -0.0888
     13 C11         6.9731    0.9214   -0.2106 C.ar      1 <0>         0.1880
     14 C12         8.2646    0.4735    0.0326 C.ar      1 <0>        -0.1043
     15 C13         9.1683    1.2940    0.6793 C.ar      1 <0>        -0.1369
     16 C14        10.5702    0.8086    0.9441 C.3       1 <0>         0.5111
     17 F1         10.7250   -0.4786    0.4184 F         1 <0>        -0.1776
     18 F2         11.4860    1.6739    0.3362 F         1 <0>        -0.1774
     19 F3         10.8008    0.7797    2.3237 F         1 <0>        -0.1628
     20 N3          6.0552    0.0926   -0.8655 N.am      1 <0>        -0.6979
     21 C15         4.7513    0.1311   -0.5266 C.2       1 <0>         0.7117
     22 O1          4.3858    0.8194    0.4067 O.2       1 <0>        -0.5623
     23 N4          3.8526   -0.5934   -1.2222 N.am      1 <0>        -0.6900
     24 C16         2.4863   -0.4790   -0.9335 C.ar      1 <0>         0.1635
     25 C17         1.5516   -0.5518   -1.9576 C.ar      1 <0>        -0.1265
     26 C18         0.2052   -0.4394   -1.6724 C.ar      1 <0>        -0.0923
     27 C19        -0.2137   -0.2543   -0.3628 C.ar      1 <0>         0.0841
     28 C20         0.7198   -0.1815    0.6609 C.ar      1 <0>        -0.0957
     29 C21         2.0665   -0.2932    0.3769 C.ar      1 <0>        -0.1058
     30 O2         -1.5393   -0.1385   -0.0833 O.3       1 <0>        -0.2424
     31 C22        -2.3129   -1.2454   -0.1983 C.ar      1 <0>         0.3836
     32 C23        -3.6894   -1.1637   -0.0277 C.ar      1 <0>        -0.3134
     33 C24        -4.4409   -2.3284   -0.1601 C.ar      1 <0>         0.4631
     34 N5         -3.8165   -3.4721   -0.4341 N.ar      1 <0>        -0.5936
     35 C25        -2.5082   -3.5081   -0.5840 C.ar      1 <0>         0.3760
     36 N6         -1.7644   -2.4263   -0.4707 N.ar      1 <0>        -0.6039
     37 N7         -5.8178   -2.2988   -0.0034 N.pl3     1 <0>        -0.7218
     38 C26        -6.4937   -1.0344    0.2979 C.3       1 <0>         0.0891
     39 H1          9.0560    3.0401    9.2597 H         1 <0>         0.1066
     40 H2          8.0243    2.9380    7.7928 H         1 <0>         0.0798
     41 H3          8.8763    4.4695    8.1868 H         1 <0>         0.0803
     42 H4         11.0672    3.3441    7.8241 H         1 <0>         0.1306
     43 H5         10.2153    1.8126    7.4301 H         1 <0>         0.1269
     44 H6         12.0665    3.6630    5.7442 H         1 <0>         0.1361
     45 H7         11.4577    2.0621    5.2031 H         1 <0>         0.1357
     46 H8         10.8699    4.7665    3.8728 H         1 <0>         0.0625
     47 H9         11.9796    3.4990    3.2494 H         1 <0>         0.1239
     48 H10         8.4684    4.3007    3.9867 H         1 <0>         0.0621
     49 H11         7.8594    2.6998    3.4455 H         1 <0>         0.1239
     50 H12         9.0569    1.5962    5.3178 H         1 <0>         0.1351
     51 H13         7.9470    2.8635    5.9412 H         1 <0>         0.1359
     52 H14         9.4106    4.4897    1.7732 H         1 <0>         0.0663
     53 H15        10.7489    3.3982    1.2791 H         1 <0>         0.1073
     54 H16         7.2082    3.9988    1.1607 H         1 <0>         0.1358
     55 H17         5.5933    2.5489    0.0003 H         1 <0>         0.1466
     56 H18         8.5625   -0.5152   -0.2838 H         1 <0>         0.1447
     57 H19         6.3979   -0.5903   -1.6569 H         1 <0>         0.4387
     58 H20         4.1917   -1.2745   -2.0166 H         1 <0>         0.4355
     59 H21         1.8775   -0.6959   -2.9771 H         1 <0>         0.1334
     60 H22        -0.5220   -0.4960   -2.4689 H         1 <0>         0.1303
     61 H23         0.3932   -0.0371    1.6801 H         1 <0>         0.1327
     62 H24         2.7931   -0.2369    1.1740 H         1 <0>         0.1442
     63 H25        -4.1646   -0.2205    0.1982 H         1 <0>         0.1466
     64 H26        -2.0315   -4.4515   -0.8058 H         1 <0>         0.2000
     65 H27        -6.4030   -3.2246   -0.1053 H         1 <0>         0.4376
     66 H28        -7.5762   -1.2091    0.3856 H         1 <0>         0.0864
     67 H29        -6.3028   -0.3146   -0.5117 H         1 <0>         0.0603
     68 H30        -6.1096   -0.6302    1.2461 H         1 <0>         0.0599
     69 H31         9.7882    4.4332    6.0188 H         1 <0>         0.4364
@<TRIPOS>BOND
     1    1    2 1
     2    1   39 1
     3    1   40 1
     4    1   41 1
     5    2    3 1
     6    2   42 1
     7    2   43 1
     8    3    8 1
     9    3    4 1
    10    3   69 1
    11    4    5 1
    12    4   44 1
    13    4   45 1
    14    5    6 1
    15    5   46 1
    16    5   47 1
    17    6    7 1
    18    6    9 1
    19    7    8 1
    20    7   48 1
    21    7   49 1
    22    8   50 1
    23    8   51 1
    24    9   10 1
    25    9   52 1
    26    9   53 1
    27   10   15 ar
    28   10   11 ar
    29   11   12 ar
    30   11   54 1
    31   12   13 ar
    32   12   55 1
    33   13   14 ar
    34   13   20 1
    35   14   15 ar
    36   14   56 1
    37   15   16 1
    38   16   17 1
    39   16   18 1
    40   16   19 1
    41   20   21 am
    42   20   57 1
    43   21   22 2
    44   21   23 am
    45   23   24 1
    46   23   58 1
    47   24   29 ar
    48   24   25 ar
    49   25   26 ar
    50   25   59 1
    51   26   27 ar
    52   26   60 1
    53   27   28 ar
    54   27   30 1
    55   28   29 ar
    56   28   61 1
    57   29   62 1
    58   30   31 1
    59   31   36 ar
    60   31   32 ar
    61   32   33 ar
    62   32   63 1
    63   33   34 ar
    64   33   37 1
    65   34   35 ar
    66   35   36 ar
    67   35   64 1
    68   37   38 1
    69   37   65 1
    70   38   66 1
    71   38   67 1
    72   38   68 1
@<TRIPOS>MOLECULE
ZINC23247639
   69    72     0     0     0
SMALL
USER_CHARGES
1-[4-[(4-ethylpiperazin-1-yl)methyl]-3-(trifluoromethyl)phenyl]-3-[4-(6-methylaminopyrimidin-4-yl)oxyphenyl]urea
@<TRIPOS>ATOM
      1 C1          8.9417    3.3719    8.2172 C.3       1 <0>        -0.1569
      2 C2         10.1498    2.9102    7.3997 C.3       1 <0>         0.0486
      3 N1          9.9972    3.3533    6.0075 N.3       1 <0>        -0.5379
      4 C3         11.2367    3.1387    5.2477 C.3       1 <0>         0.0250
      5 C4         11.0629    3.6845    3.8284 C.3       1 <0>         0.0004
      6 N2          9.9288    3.0094    3.1822 N.4       1 <0>        -0.4202
      7 C5          8.6893    3.2240    3.9420 C.3       1 <0>        -0.0009
      8 C6          8.8631    2.6781    5.3612 C.3       1 <0>         0.0222
      9 C7          9.7762    3.4524    1.7899 C.3       1 <0>         0.0266
     10 C8          8.7879    2.5601    1.0842 C.ar      1 <0>        -0.1272
     11 C9          7.5022    3.0092    0.8434 C.ar      1 <0>        -0.0630
     12 C10         6.5958    2.1959    0.1923 C.ar      1 <0>        -0.0846
     13 C11         6.9731    0.9214   -0.2106 C.ar      1 <0>         0.2154
     14 C12         8.2646    0.4735    0.0326 C.ar      1 <0>        -0.0955
     15 C13         9.1683    1.2940    0.6793 C.ar      1 <0>        -0.1507
     16 C14        10.5702    0.8086    0.9441 C.3       1 <0>         0.5109
     17 F1         10.7250   -0.4786    0.4184 F         1 <0>        -0.1491
     18 F2         11.4860    1.6739    0.3362 F         1 <0>        -0.1584
     19 F3         10.8008    0.7797    2.3237 F         1 <0>        -0.1724
     20 N3          6.0552    0.0926   -0.8655 N.am      1 <0>        -0.6988
     21 C15         4.7513    0.1311   -0.5266 C.2       1 <0>         0.7114
     22 O1          4.3858    0.8194    0.4067 O.2       1 <0>        -0.5584
     23 N4          3.8526   -0.5934   -1.2222 N.am      1 <0>        -0.6858
     24 C16         2.4863   -0.4790   -0.9335 C.ar      1 <0>         0.1577
     25 C17         1.5516   -0.5518   -1.9576 C.ar      1 <0>        -0.1240
     26 C18         0.2052   -0.4394   -1.6724 C.ar      1 <0>        -0.0926
     27 C19        -0.2137   -0.2543   -0.3628 C.ar      1 <0>         0.0883
     28 C20         0.7198   -0.1815    0.6609 C.ar      1 <0>        -0.0957
     29 C21         2.0665   -0.2932    0.3769 C.ar      1 <0>        -0.1046
     30 O2         -1.5393   -0.1385   -0.0833 O.3       1 <0>        -0.2426
     31 C22        -2.3129   -1.2454   -0.1983 C.ar      1 <0>         0.3832
     32 C23        -3.6894   -1.1637   -0.0277 C.ar      1 <0>        -0.3126
     33 C24        -4.4409   -2.3284   -0.1601 C.ar      1 <0>         0.4635
     34 N5         -3.8165   -3.4721   -0.4341 N.ar      1 <0>        -0.5931
     35 C25        -2.5082   -3.5081   -0.5840 C.ar      1 <0>         0.3762
     36 N6         -1.7644   -2.4263   -0.4707 N.ar      1 <0>        -0.6049
     37 N7         -5.8178   -2.2988   -0.0034 N.pl3     1 <0>        -0.7212
     38 C26        -6.4937   -1.0344    0.2979 C.3       1 <0>         0.0887
     39 H1          9.0560    3.0401    9.2597 H         1 <0>         0.0714
     40 H2          8.0243    2.9380    7.7928 H         1 <0>         0.0562
     41 H3          8.8763    4.4695    8.1868 H         1 <0>         0.0696
     42 H4         11.0672    3.3441    7.8241 H         1 <0>         0.0895
     43 H5         10.2153    1.8126    7.4301 H         1 <0>         0.0455
     44 H6         12.0665    3.6630    5.7442 H         1 <0>         0.1253
     45 H7         11.4577    2.0621    5.2031 H         1 <0>         0.0582
     46 H8         10.8699    4.7665    3.8728 H         1 <0>         0.1369
     47 H9         11.9796    3.4990    3.2494 H         1 <0>         0.1329
     48 H10         8.4684    4.3007    3.9867 H         1 <0>         0.1355
     49 H11         7.8594    2.6998    3.4455 H         1 <0>         0.1312
     50 H12         9.0569    1.5962    5.3178 H         1 <0>         0.0572
     51 H13         7.9470    2.8635    5.9412 H         1 <0>         0.1266
     52 H14         9.4106    4.4897    1.7732 H         1 <0>         0.1472
     53 H15        10.7489    3.3982    1.2791 H         1 <0>         0.1420
     54 H16         7.2082    3.9988    1.1607 H         1 <0>         0.1512
     55 H17         5.5933    2.5489    0.0003 H         1 <0>         0.1583
     56 H18         8.5625   -0.5152   -0.2838 H         1 <0>         0.1556
     57 H19         6.3979   -0.5903   -1.6569 H         1 <0>         0.4440
     58 H20         4.1917   -1.2745   -2.0166 H         1 <0>         0.4371
     59 H21         1.8775   -0.6959   -2.9771 H         1 <0>         0.1338
     60 H22        -0.5220   -0.4960   -2.4689 H         1 <0>         0.1313
     61 H23         0.3932   -0.0371    1.6801 H         1 <0>         0.1341
     62 H24         2.7931   -0.2369    1.1740 H         1 <0>         0.1440
     63 H25        -4.1646   -0.2205    0.1982 H         1 <0>         0.1470
     64 H26        -2.0315   -4.4515   -0.8058 H         1 <0>         0.2001
     65 H27        -6.4030   -3.2246   -0.1053 H         1 <0>         0.4380
     66 H28        -7.5762   -1.2091    0.3856 H         1 <0>         0.0868
     67 H29        -6.3028   -0.3146   -0.5117 H         1 <0>         0.0604
     68 H30        -6.1096   -0.6302    1.2461 H         1 <0>         0.0603
     69 H31        10.1379    1.9295    3.1711 H         1 <0>         0.4253
@<TRIPOS>BOND
     1    1    2 1
     2    1   39 1
     3    1   40 1
     4    1   41 1
     5    2    3 1
     6    2   42 1
     7    2   43 1
     8    3    8 1
     9    3    4 1
    10    4    5 1
    11    4   44 1
    12    4   45 1
    13    5    6 1
    14    5   46 1
    15    5   47 1
    16    6    7 1
    17    6    9 1
    18    6   69 1
    19    7    8 1
    20    7   48 1
    21    7   49 1
    22    8   50 1
    23    8   51 1
    24    9   10 1
    25    9   52 1
    26    9   53 1
    27   10   15 ar
    28   10   11 ar
    29   11   12 ar
    30   11   54 1
    31   12   13 ar
    32   12   55 1
    33   13   14 ar
    34   13   20 1
    35   14   15 ar
    36   14   56 1
    37   15   16 1
    38   16   17 1
    39   16   18 1
    40   16   19 1
    41   20   21 am
    42   20   57 1
    43   21   22 2
    44   21   23 am
    45   23   24 1
    46   23   58 1
    47   24   29 ar
    48   24   25 ar
    49   25   26 ar
    50   25   59 1
    51   26   27 ar
    52   26   60 1
    53   27   28 ar
    54   27   30 1
    55   28   29 ar
    56   28   61 1
    57   29   62 1
    58   30   31 1
    59   31   36 ar
    60   31   32 ar
    61   32   33 ar
    62   32   63 1
    63   33   34 ar
    64   33   37 1
    65   34   35 ar
    66   35   36 ar
    67   35   64 1
    68   37   38 1
    69   37   65 1
    70   38   66 1
    71   38   67 1
    72   38   68 1
@<TRIPOS>MOLECULE
ZINC23247639
   68    71     0     0     0
SMALL
USER_CHARGES
1-[4-[(4-ethylpiperazin-1-yl)methyl]-3-(trifluoromethyl)phenyl]-3-[4-(6-methylaminopyrimidin-4-yl)oxyphenyl]urea
@<TRIPOS>ATOM
      1 C1          8.9417    3.3719    8.2172 C.3       1 <0>        -0.1510
      2 C2         10.1498    2.9102    7.3997 C.3       1 <0>         0.0499
      3 N1          9.9972    3.3533    6.0075 N.3       1 <0>        -0.5402
      4 C3         11.2367    3.1387    5.2477 C.3       1 <0>         0.0569
      5 C4         11.0629    3.6845    3.8284 C.3       1 <0>         0.0590
      6 N2          9.9288    3.0094    3.1822 N.3       1 <0>        -0.5268
      7 C5          8.6893    3.2240    3.9420 C.3       1 <0>         0.0561
      8 C6          8.8631    2.6781    5.3612 C.3       1 <0>         0.0550
      9 C7          9.7762    3.4524    1.7899 C.3       1 <0>         0.0729
     10 C8          8.7879    2.5601    1.0842 C.ar      1 <0>        -0.0447
     11 C9          7.5022    3.0092    0.8434 C.ar      1 <0>        -0.0942
     12 C10         6.5958    2.1959    0.1923 C.ar      1 <0>        -0.0884
     13 C11         6.9731    0.9214   -0.2106 C.ar      1 <0>         0.1720
     14 C12         8.2646    0.4735    0.0326 C.ar      1 <0>        -0.1038
     15 C13         9.1683    1.2940    0.6793 C.ar      1 <0>        -0.1404
     16 C14        10.5702    0.8086    0.9441 C.3       1 <0>         0.5095
     17 F1         10.7250   -0.4786    0.4184 F         1 <0>        -0.1841
     18 F2         11.4860    1.6739    0.3362 F         1 <0>        -0.1795
     19 F3         10.8008    0.7797    2.3237 F         1 <0>        -0.1519
     20 N3          6.0552    0.0926   -0.8655 N.am      1 <0>        -0.6948
     21 C15         4.7513    0.1311   -0.5266 C.2       1 <0>         0.7096
     22 O1          4.3858    0.8194    0.4067 O.2       1 <0>        -0.5587
     23 N4          3.8526   -0.5934   -1.2222 N.am      1 <0>        -0.6930
     24 C16         2.4863   -0.4790   -0.9335 C.ar      1 <0>         0.1697
     25 C17         1.5516   -0.5518   -1.9576 C.ar      1 <0>        -0.1297
     26 C18         0.2052   -0.4394   -1.6724 C.ar      1 <0>        -0.0930
     27 C19        -0.2137   -0.2543   -0.3628 C.ar      1 <0>         0.0783
     28 C20         0.7198   -0.1815    0.6609 C.ar      1 <0>        -0.0936
     29 C21         2.0665   -0.2932    0.3769 C.ar      1 <0>        -0.1059
     30 O2         -1.5393   -0.1385   -0.0833 O.3       1 <0>        -0.2412
     31 C22        -2.3129   -1.2454   -0.1983 C.ar      1 <0>         0.3851
     32 C23        -3.6894   -1.1637   -0.0277 C.ar      1 <0>        -0.3141
     33 C24        -4.4409   -2.3284   -0.1601 C.ar      1 <0>         0.4620
     34 N5         -3.8165   -3.4721   -0.4341 N.ar      1 <0>        -0.5954
     35 C25        -2.5082   -3.5081   -0.5840 C.ar      1 <0>         0.3753
     36 N6         -1.7644   -2.4263   -0.4707 N.ar      1 <0>        -0.6017
     37 N7         -5.8178   -2.2988   -0.0034 N.pl3     1 <0>        -0.7231
     38 C26        -6.4937   -1.0344    0.2979 C.3       1 <0>         0.0898
     39 H1          9.0560    3.0401    9.2597 H         1 <0>         0.0595
     40 H2          8.0243    2.9380    7.7928 H         1 <0>         0.0547
     41 H3          8.8763    4.4695    8.1868 H         1 <0>         0.0631
     42 H4         11.0672    3.3441    7.8241 H         1 <0>         0.0746
     43 H5         10.2153    1.8126    7.4301 H         1 <0>         0.0335
     44 H6         12.0665    3.6630    5.7442 H         1 <0>         0.0800
     45 H7         11.4577    2.0621    5.2031 H         1 <0>         0.0441
     46 H8         10.8699    4.7665    3.8728 H         1 <0>         0.0445
     47 H9         11.9796    3.4990    3.2494 H         1 <0>         0.0809
     48 H10         8.4684    4.3007    3.9867 H         1 <0>         0.0435
     49 H11         7.8594    2.6998    3.4455 H         1 <0>         0.0808
     50 H12         9.0569    1.5962    5.3178 H         1 <0>         0.0425
     51 H13         7.9470    2.8635    5.9412 H         1 <0>         0.0819
     52 H14         9.4106    4.4897    1.7732 H         1 <0>         0.0550
     53 H15        10.7489    3.3982    1.2791 H         1 <0>         0.0962
     54 H16         7.2082    3.9988    1.1607 H         1 <0>         0.1355
     55 H17         5.5933    2.5489    0.0003 H         1 <0>         0.1427
     56 H18         8.5625   -0.5152   -0.2838 H         1 <0>         0.1409
     57 H19         6.3979   -0.5903   -1.6569 H         1 <0>         0.4343
     58 H20         4.1917   -1.2745   -2.0166 H         1 <0>         0.4332
     59 H21         1.8775   -0.6959   -2.9771 H         1 <0>         0.1323
     60 H22        -0.5220   -0.4960   -2.4689 H         1 <0>         0.1282
     61 H23         0.3932   -0.0371    1.6801 H         1 <0>         0.1328
     62 H24         2.7931   -0.2369    1.1740 H         1 <0>         0.1466
     63 H25        -4.1646   -0.2205    0.1982 H         1 <0>         0.1463
     64 H26        -2.0315   -4.4515   -0.8058 H         1 <0>         0.1996
     65 H27        -6.4030   -3.2246   -0.1053 H         1 <0>         0.4362
     66 H28        -7.5762   -1.2091    0.3856 H         1 <0>         0.0851
     67 H29        -6.3028   -0.3146   -0.5117 H         1 <0>         0.0598
     68 H30        -6.1096   -0.6302    1.2461 H         1 <0>         0.0599
@<TRIPOS>BOND
     1    1    2 1
     2    1   39 1
     3    1   40 1
     4    1   41 1
     5    2    3 1
     6    2   42 1
     7    2   43 1
     8    3    8 1
     9    3    4 1
    10    4    5 1
    11    4   44 1
    12    4   45 1
    13    5    6 1
    14    5   46 1
    15    5   47 1
    16    6    7 1
    17    6    9 1
    18    7    8 1
    19    7   48 1
    20    7   49 1
    21    8   50 1
    22    8   51 1
    23    9   10 1
    24    9   52 1
    25    9   53 1
    26   10   15 ar
    27   10   11 ar
    28   11   12 ar
    29   11   54 1
    30   12   13 ar
    31   12   55 1
    32   13   14 ar
    33   13   20 1
    34   14   15 ar
    35   14   56 1
    36   15   16 1
    37   16   17 1
    38   16   18 1
    39   16   19 1
    40   20   21 am
    41   20   57 1
    42   21   22 2
    43   21   23 am
    44   23   24 1
    45   23   58 1
    46   24   29 ar
    47   24   25 ar
    48   25   26 ar
    49   25   59 1
    50   26   27 ar
    51   26   60 1
    52   27   28 ar
    53   27   30 1
    54   28   29 ar
    55   28   61 1
    56   29   62 1
    57   30   31 1
    58   31   36 ar
    59   31   32 ar
    60   32   33 ar
    61   32   63 1
    62   33   34 ar
    63   33   37 1
    64   34   35 ar
    65   35   36 ar
    66   35   64 1
    67   37   38 1
    68   37   65 1
    69   38   66 1
    70   38   67 1
    71   38   68 1
