@<TRIPOS>MOLECULE
ZINC49034948
   63    68     0     0     0
SMALL
USER_CHARGES

@<TRIPOS>ATOM
      1 C1          0.0549    1.4627   -0.1006 C.ar      1 <0>        -0.1051
      2 C2          1.2468    2.1627   -0.0812 C.ar      1 <0>        -0.1211
      3 C3          2.4491    1.4805   -0.0830 C.ar      1 <0>        -0.0944
      4 C4          2.4595    0.0983   -0.1039 C.ar      1 <0>        -0.1042
      5 C5          1.2676   -0.6017   -0.1225 C.ar      1 <0>        -0.0957
      6 C6          0.0653    0.0806   -0.1220 C.ar      1 <0>        -0.1225
      7 C7          3.7702   -0.6454   -0.1070 C.3       1 <0>         0.1035
      8 O1          4.1760   -0.9009    1.2392 O.3       1 <0>        -0.3050
      9 C8          5.3469   -1.5686    1.4145 C.ar      1 <0>         0.1388
     10 C9          6.0908   -1.9635    0.3112 C.ar      1 <0>        -0.2033
     11 C10         7.2792   -2.6416    0.4856 C.ar      1 <0>        -0.0653
     12 C11         7.7331   -2.9299    1.7719 C.ar      1 <0>        -0.0621
     13 C12         6.9837   -2.5314    2.8779 C.ar      1 <0>        -0.0836
     14 C13         5.7988   -1.8491    2.6966 C.ar      1 <0>        -0.1433
     15 C14         9.0100   -3.6591    1.9631 C.2       1 <0>        -0.0696
     16 C15         9.3854   -4.8104    1.3538 C.2       1 <0>         0.0277
     17 N1         10.6317   -5.1748    1.7873 N.pl3     1 <0>        -0.4446
     18 C16        11.1028   -4.2654    2.6952 C.ar      1 <0>         0.3563
     19 C17        10.1186   -3.2727    2.8450 C.ar      1 <0>        -0.2604
     20 C18        10.3619   -2.2100    3.7250 C.ar      1 <0>         0.4978
     21 N2         11.5195   -2.1848    4.3802 N.ar      1 <0>        -0.5973
     22 C19        12.4192   -3.1361    4.2080 C.ar      1 <0>         0.3729
     23 N3         12.2288   -4.1561    3.3993 N.ar      1 <0>        -0.5750
     24 N4          9.4220   -1.2114    3.9078 N.pl3     1 <0>        -0.8273
     25 C20        11.3570   -6.3677    1.3434 C.3       1 <0>         0.1205
     26 C21        11.0439   -6.7753   -0.1060 C.3       1 <0>        -0.1289
     27 C22         9.8933   -7.6217    0.4638 C.3       1 <0>        -0.1526
     28 C23        10.6951   -7.6871    1.7744 C.3       1 <0>        -0.1522
     29 C24         9.7318   -8.9787   -0.2242 C.3       1 <0>         0.0039
     30 N5          8.5413   -9.6574    0.3049 N.4       1 <0>        -0.4127
     31 C25         7.2972   -9.2925   -0.3981 C.3       1 <0>        -0.0025
     32 C26         6.8568  -10.7569   -0.2625 C.3       1 <0>        -0.1612
     33 C27         8.3673  -11.0266   -0.2147 C.3       1 <0>        -0.0001
     34 H1         -0.8844    1.9956   -0.0947 H         1 <0>         0.1271
     35 H2          1.2387    3.2425   -0.0648 H         1 <0>         0.1279
     36 H3          3.3803    2.0273   -0.0685 H         1 <0>         0.1245
     37 H4          1.2757   -1.6815   -0.1392 H         1 <0>         0.1227
     38 H5         -0.8659   -0.4663   -0.1369 H         1 <0>         0.1269
     39 H6          3.6503   -1.5909   -0.6360 H         1 <0>         0.0719
     40 H7          4.5286   -0.0430   -0.6070 H         1 <0>         0.0736
     41 H8          5.7386   -1.7398   -0.6850 H         1 <0>         0.1327
     42 H9          7.8572   -2.9492   -0.3733 H         1 <0>         0.1260
     43 H10         7.3324   -2.7536    3.8756 H         1 <0>         0.1319
     44 H11         5.2200   -1.5362    3.5531 H         1 <0>         0.1375
     45 H12         8.7918   -5.3568    0.6358 H         1 <0>         0.1718
     46 H13        13.3463   -3.0780    4.7589 H         1 <0>         0.2031
     47 H14         8.5821   -1.2415    3.4236 H         1 <0>         0.4124
     48 H15         9.6030   -0.4812    4.5201 H         1 <0>         0.4109
     49 H16        12.4233   -6.3215    1.5647 H         1 <0>         0.1259
     50 H17        10.7089   -5.9467   -0.7299 H         1 <0>         0.0933
     51 H18        11.8313   -7.3668   -0.5730 H         1 <0>         0.1139
     52 H19         8.9535   -7.0770    0.5536 H         1 <0>         0.1141
     53 H20        11.3872   -8.5279    1.8214 H         1 <0>         0.1097
     54 H21        10.0785   -7.5946    2.6685 H         1 <0>         0.0868
     55 H22         9.6183   -8.8304   -1.2981 H         1 <0>         0.1320
     56 H23        10.6137   -9.5902   -0.0332 H         1 <0>         0.1316
     57 H24         6.6707   -8.5972    0.1606 H         1 <0>         0.1344
     58 H25         7.4571   -8.9809   -1.4303 H         1 <0>         0.1501
     59 H26         6.3337  -10.9814    0.6670 H         1 <0>         0.1231
     60 H27         6.3597  -11.1570   -1.1462 H         1 <0>         0.1299
     61 H28         8.8127  -11.1778   -1.1979 H         1 <0>         0.1503
     62 H29         8.6477  -11.8009    0.4994 H         1 <0>         0.1361
     63 H30         8.4680   -9.5971    1.3094 H         1 <0>         0.4365
@<TRIPOS>BOND
     1    1    6 ar
     2    1    2 ar
     3    1   34 1
     4    2    3 ar
     5    2   35 1
     6    3    4 ar
     7    3   36 1
     8    4    5 ar
     9    4    7 1
    10    5    6 ar
    11    5   37 1
    12    6   38 1
    13    7    8 1
    14    7   39 1
    15    7   40 1
    16    8    9 1
    17    9   14 ar
    18    9   10 ar
    19   10   11 ar
    20   10   41 1
    21   11   12 ar
    22   11   42 1
    23   12   13 ar
    24   12   15 1
    25   13   14 ar
    26   13   43 1
    27   14   44 1
    28   15   19 1
    29   15   16 2
    30   16   17 1
    31   16   45 1
    32   17   18 1
    33   17   25 1
    34   18   23 ar
    35   18   19 ar
    36   19   20 ar
    37   20   21 ar
    38   20   24 1
    39   21   22 ar
    40   22   23 ar
    41   22   46 1
    42   24   47 1
    43   24   48 1
    44   25   28 1
    45   25   26 1
    46   25   49 1
    47   26   27 1
    48   26   50 1
    49   26   51 1
    50   27   28 1
    51   27   29 1
    52   27   52 1
    53   28   53 1
    54   28   54 1
    55   29   30 1
    56   29   55 1
    57   29   56 1
    58   30   33 1
    59   30   31 1
    60   30   63 1
    61   31   32 1
    62   31   57 1
    63   31   58 1
    64   32   33 1
    65   32   59 1
    66   32   60 1
    67   33   61 1
    68   33   62 1
@<TRIPOS>MOLECULE
ZINC37134210
   32    34     0     0     0
SMALL
USER_CHARGES

@<TRIPOS>ATOM
      1 C1         -0.0167    1.3779    0.0096 C.ar      1 <0>        -0.0906
      2 C2          1.1696    2.0886    0.0021 C.ar      1 <0>        -0.1320
      3 C3          2.3802    1.4154   -0.0130 C.ar      1 <0>         0.0903
      4 C4          2.3990    0.0236   -0.0206 C.ar      1 <0>         0.0791
      5 C5          1.2071   -0.6822   -0.0130 C.ar      1 <0>        -0.1101
      6 C6          0.0021   -0.0041    0.0020 C.ar      1 <0>        -0.1031
      7 C7         -1.2936   -0.7736    0.0102 C.3       1 <0>         0.1674
      8 N1         -1.7266   -1.0155   -1.3683 N.pl3     1 <0>        -0.7391
      9 C8         -2.9096   -1.7153   -1.6160 C.ar      1 <0>         0.2657
     10 C9         -3.6786   -2.1771   -0.5459 C.ar      1 <0>        -0.2196
     11 C10        -4.8358   -2.8617   -0.7685 C.ar      1 <0>         0.0061
     12 C11        -5.2604   -3.1060   -2.0800 C.ar      1 <0>        -0.2325
     13 C12        -6.4142   -3.7872   -2.6591 C.2       1 <0>         0.0870
     14 N2         -6.3085   -3.7176   -3.9552 N.2       1 <0>        -0.2638
     15 N3         -5.1448   -3.0256   -4.3060 N.pl3     1 <0>        -0.5168
     16 H1         -4.8489   -2.8450   -5.2120 H         1 <0>         0.4380
     17 C13        -4.4898   -2.6432   -3.1642 C.ar      1 <0>         0.1773
     18 C14        -3.3134   -1.9407   -2.9190 C.ar      1 <0>        -0.2386
     19 O1          3.5850   -0.6417   -0.0359 O.3       1 <0>        -0.4868
     20 O2          3.5476    2.1129   -0.0209 O.3       1 <0>        -0.4879
     21 H2         -0.9598    1.9038    0.0259 H         1 <0>         0.1335
     22 H3          1.1522    3.1684    0.0077 H         1 <0>         0.1370
     23 H4          1.2190   -1.7621   -0.0189 H         1 <0>         0.1360
     24 H5         -1.1467   -1.7271    0.5175 H         1 <0>         0.0730
     25 H6         -2.0555   -0.1967    0.5344 H         1 <0>         0.0746
     26 H7         -1.1917   -0.6897   -2.1089 H         1 <0>         0.4027
     27 H8         -3.3533   -1.9904    0.4670 H         1 <0>         0.1266
     28 H9         -5.4241   -3.2155    0.0653 H         1 <0>         0.1297
     29 H10        -7.2129   -4.2641   -2.1104 H         1 <0>         0.1946
     30 H11        -2.7168   -1.5770   -3.7425 H         1 <0>         0.1221
     31 H12         3.9367   -0.8389    0.8430 H         1 <0>         0.3894
     32 H13         3.8938    2.3101    0.8602 H         1 <0>         0.3905
@<TRIPOS>BOND
     1    1    6 ar
     2    1    2 ar
     3    1   21 1
     4    2    3 ar
     5    2   22 1
     6    3    4 ar
     7    3   20 1
     8    4    5 ar
     9    4   19 1
    10    5    6 ar
    11    5   23 1
    12    6    7 1
    13    7    8 1
    14    7   24 1
    15    7   25 1
    16    8    9 1
    17    8   26 1
    18    9   18 ar
    19    9   10 ar
    20   10   11 ar
    21   10   27 1
    22   11   12 ar
    23   11   28 1
    24   12   17 ar
    25   12   13 1
    26   13   14 2
    27   13   29 1
    28   14   15 1
    29   15   16 1
    30   15   17 1
    31   17   18 ar
    32   18   30 1
    33   19   31 1
    34   20   32 1
@<TRIPOS>MOLECULE
ZINC36951929
   35    37     0     0     0
SMALL
USER_CHARGES

@<TRIPOS>ATOM
      1 C1         -0.0164    1.3568    0.0095 C.ar      1 <0>        -0.1404
      2 C2          1.1684    2.0908    0.0021 C.ar      1 <0>        -0.1028
      3 C3          2.3781    1.4677   -0.0128 C.ar      1 <0>        -0.1260
      4 C4          2.4371    0.0630   -0.0208 C.ar      1 <0>         0.0006
      5 C5          3.6679   -0.6130   -0.0357 C.ar      1 <0>        -0.2082
      6 C6          3.6852   -1.9904   -0.0428 C.ar      1 <0>         0.2212
      7 C7          2.4899   -2.7199   -0.0359 C.ar      1 <0>        -0.1717
      8 C8          1.2866   -2.0884   -0.0216 C.ar      1 <0>        -0.0603
      9 C9          1.2321   -0.6835   -0.0134 C.ar      1 <0>        -0.0988
     10 C10         0.0021   -0.0041    0.0020 C.ar      1 <0>        -0.0887
     11 N1          4.9069   -2.6660   -0.0576 N.pl3     1 <0>        -0.7436
     12 C11         4.9340   -4.1307   -0.0653 C.3       1 <0>         0.1666
     13 C12         6.3637   -4.6067   -0.0809 C.ar      1 <0>        -0.1015
     14 C13         7.0088   -4.8129   -1.2862 C.ar      1 <0>        -0.0911
     15 C14         8.3204   -5.2495   -1.3058 C.ar      1 <0>        -0.1316
     16 C15         8.9914   -5.4809   -0.1158 C.ar      1 <0>         0.0898
     17 C16         8.3423   -5.2729    1.0973 C.ar      1 <0>         0.0794
     18 C17         7.0291   -4.8306    1.1100 C.ar      1 <0>        -0.1104
     19 O1          8.9966   -5.4986    2.2679 O.3       1 <0>        -0.4864
     20 O2         10.2815   -5.9108   -0.1334 O.3       1 <0>        -0.4876
     21 H1         -0.9634    1.8758    0.0259 H         1 <0>         0.1200
     22 H2          1.1257    3.1700    0.0080 H         1 <0>         0.1202
     23 H3          3.2882    2.0492   -0.0187 H         1 <0>         0.1231
     24 H4          4.5939   -0.0572   -0.0418 H         1 <0>         0.1226
     25 H5          2.5248   -3.7993   -0.0425 H         1 <0>         0.1238
     26 H6          0.3734   -2.6650   -0.0168 H         1 <0>         0.1283
     27 H7         -0.9243   -0.5592    0.0082 H         1 <0>         0.1236
     28 H8          5.7379   -2.1655   -0.0627 H         1 <0>         0.4013
     29 H9          4.4352   -4.5080    0.8275 H         1 <0>         0.0711
     30 H10         4.4187   -4.4989   -0.9524 H         1 <0>         0.0724
     31 H11         6.4869   -4.6330   -2.2144 H         1 <0>         0.1331
     32 H12         8.8218   -5.4106   -2.2487 H         1 <0>         0.1370
     33 H13         6.5242   -4.6647    2.0501 H         1 <0>         0.1356
     34 H14         9.4650   -4.7257    2.6120 H         1 <0>         0.3890
     35 H15        10.9340   -5.1971   -0.1331 H         1 <0>         0.3902
@<TRIPOS>BOND
     1    1   10 ar
     2    1    2 ar
     3    1   21 1
     4    2    3 ar
     5    2   22 1
     6    3    4 ar
     7    3   23 1
     8    4    9 ar
     9    4    5 ar
    10    5    6 ar
    11    5   24 1
    12    6    7 ar
    13    6   11 1
    14    7    8 ar
    15    7   25 1
    16    8    9 ar
    17    8   26 1
    18    9   10 ar
    19   10   27 1
    20   11   12 1
    21   11   28 1
    22   12   13 1
    23   12   29 1
    24   12   30 1
    25   13   18 ar
    26   13   14 ar
    27   14   15 ar
    28   14   31 1
    29   15   16 ar
    30   15   32 1
    31   16   17 ar
    32   16   20 1
    33   17   18 ar
    34   17   19 1
    35   18   33 1
    36   19   34 1
    37   20   35 1
@<TRIPOS>MOLECULE
ZINC19966204
   32    34     0     0     0
SMALL
USER_CHARGES
4-[(1,3-benzodioxol-5-ylamino)methyl]benzene-1,2-diol
@<TRIPOS>ATOM
      1 C1          7.9424   -2.0239    2.4992 C.ar      1 <0>        -0.0955
      2 C2          9.2343   -1.8760    2.9700 C.ar      1 <0>        -0.1323
      3 C3          9.4532   -1.4715    4.2767 C.ar      1 <0>         0.1356
      4 C4          8.3706   -1.2096    5.1115 C.ar      1 <0>         0.0612
      5 C5          7.0791   -1.3546    4.6320 C.ar      1 <0>        -0.1541
      6 C6          6.8676   -1.7588    3.3266 C.ar      1 <0>        -0.1135
      7 C7          5.4619   -1.9165    2.8068 C.3       1 <0>         0.1739
      8 N1          5.0096   -0.6483    2.2294 N.pl3     1 <0>        -0.7487
      9 C8          3.7269   -0.5481    1.6792 C.ar      1 <0>         0.2364
     10 C9          2.8828   -1.6507    1.6800 C.ar      1 <0>        -0.1967
     11 C10         1.6161   -1.5533    1.1361 C.ar      1 <0>        -0.0467
     12 C11         1.1844   -0.3558    0.5896 C.ar      1 <0>        -0.0360
     13 C12         2.0286    0.7519    0.5872 C.ar      1 <0>         0.0840
     14 C13         3.2982    0.6535    1.1321 C.ar      1 <0>        -0.1816
     15 O1          1.3763    1.7966   -0.0014 O.3       1 <0>        -0.3131
     16 C14        -0.0175    1.4356    0.0099 C.3       1 <0>         0.2108
     17 O2          0.0021   -0.0041    0.0020 O.3       1 <0>        -0.3078
     18 O3          8.5804   -0.8118    6.3949 O.3       1 <0>        -0.5198
     19 O4         10.7229   -1.3310    4.7429 O.3       1 <0>        -0.5071
     20 H1          7.7731   -2.3433    1.4816 H         1 <0>         0.1314
     21 H2         10.0725   -2.0799    2.3202 H         1 <0>         0.1368
     22 H3          6.2374   -1.1524    5.2779 H         1 <0>         0.1292
     23 H4          5.4424   -2.6989    2.0339 H         1 <0>         0.0697
     24 H5          4.7949   -2.2014    3.6338 H         1 <0>         0.0667
     25 H6          5.6783    0.2251    2.2284 H         1 <0>         0.4225
     26 H7          3.2167   -2.5854    2.1058 H         1 <0>         0.1341
     27 H8          0.9613   -2.4121    1.1379 H         1 <0>         0.1337
     28 H9          3.9545    1.5112    1.1309 H         1 <0>         0.1320
     29 H10        -0.4939    1.8408    0.9148 H         1 <0>         0.0824
     30 H11        -0.5110    1.8505   -0.8814 H         1 <0>         0.1309
     31 H12         7.7240   -0.6051    7.0536 H         1 <0>         0.4412
     32 H13        10.8953   -1.0097    5.7807 H         1 <0>         0.4404
@<TRIPOS>BOND
     1    1    6 ar
     2    1    2 ar
     3    1   20 1
     4    2    3 ar
     5    2   21 1
     6    3    4 ar
     7    3   19 1
     8    4    5 ar
     9    4   18 1
    10    5    6 ar
    11    5   22 1
    12    6    7 1
    13    7    8 1
    14    7   23 1
    15    7   24 1
    16    8    9 1
    17    8   25 1
    18    9   14 ar
    19    9   10 ar
    20   10   11 ar
    21   10   26 1
    22   11   12 ar
    23   11   27 1
    24   12   17 1
    25   12   13 ar
    26   13   14 ar
    27   13   15 1
    28   14   28 1
    29   15   16 1
    30   16   17 1
    31   16   29 1
    32   16   30 1
    33   18   31 1
    34   19   32 1
@<TRIPOS>MOLECULE
ZINC01493878
   48    50     0     0     0
SMALL
USER_CHARGES

@<TRIPOS>ATOM
      1 C1         -1.0955   -5.0083   -6.9234 C.3       1 <0>         0.0847
      2 N1         -1.5520   -4.3038   -5.7228 N.am      1 <0>        -0.7137
      3 C2         -1.8827   -5.0004   -4.6175 C.2       1 <0>         0.5696
      4 O1         -1.8023   -6.2129   -4.6168 O.2       1 <0>        -0.5284
      5 C3         -2.3445   -4.2878   -3.4031 C.ar      1 <0>         0.1129
      6 C4         -2.6788   -5.0128   -2.2640 C.ar      1 <0>        -0.1883
      7 C5         -3.1110   -4.3279   -1.1310 C.ar      1 <0>         0.1595
      8 C6         -3.1903   -2.9389   -1.1877 C.ar      1 <0>        -0.1766
      9 C7         -2.8404   -2.2885   -2.3571 C.ar      1 <0>         0.1349
     10 N2         -2.4302   -2.9626   -3.4105 N.ar      1 <0>        -0.4815
     11 O2         -3.4471   -4.9979    0.0005 O.3       1 <0>        -0.2437
     12 C8         -3.4462   -6.3570   -0.0383 C.ar      1 <0>         0.0568
     13 C9         -2.2447   -7.0505   -0.0178 C.ar      1 <0>        -0.1074
     14 C10        -2.2431   -8.4307   -0.0577 C.ar      1 <0>        -0.1009
     15 C11        -3.4442   -9.1246   -0.1179 C.ar      1 <0>         0.1671
     16 C12        -4.6464   -8.4301   -0.1379 C.ar      1 <0>        -0.1272
     17 C13        -4.6469   -7.0500   -0.0928 C.ar      1 <0>        -0.0940
     18 N3         -3.4432  -10.5252   -0.1588 N.am      1 <0>        -0.6776
     19 C14        -2.5108  -11.2187    0.5239 C.2       1 <0>         0.7077
     20 O3         -1.6217  -10.6297    1.1080 O.2       1 <0>        -0.5493
     21 N4         -2.5639  -12.5649    0.5593 N.am      1 <0>        -0.6795
     22 C15        -1.6655  -13.2800    1.3600 C.ar      1 <0>         0.1700
     23 C16        -1.2529  -12.7583    2.5792 C.ar      1 <0>        -0.0742
     24 C17        -0.3670  -13.4659    3.3674 C.ar      1 <0>        -0.0871
     25 C18         0.1097  -14.6941    2.9434 C.ar      1 <0>        -0.0077
     26 C19        -0.2993  -15.2159    1.7290 C.ar      1 <0>        -0.1564
     27 C20        -1.1898  -14.5147    0.9394 C.ar      1 <0>        -0.0879
     28 C21         0.2222  -16.5533    1.2702 C.3       1 <0>         0.5112
     29 F1         -0.3299  -16.8663    0.0234 F         1 <0>        -0.1743
     30 F2          1.6160  -16.4983    1.1626 F         1 <0>        -0.1671
     31 F3         -0.1354  -17.5367    2.1987 F         1 <0>        -0.1677
     32 Cl1         1.2234  -15.5812    3.9366 Cl        1 <0>        -0.0394
     33 H1         -0.8760   -4.2843   -7.7081 H         1 <0>         0.0803
     34 H2         -0.1948   -5.5764   -6.6909 H         1 <0>         0.0631
     35 H3         -1.8761   -5.6883   -7.2645 H         1 <0>         0.0629
     36 H4         -1.6162   -3.3359   -5.7233 H         1 <0>         0.4141
     37 H5         -2.6047   -6.0902   -2.2584 H         1 <0>         0.1546
     38 H6         -3.5217   -2.3755   -0.3280 H         1 <0>         0.1523
     39 H7         -2.9005   -1.2112   -2.4052 H         1 <0>         0.1747
     40 H8         -1.3104   -6.5106    0.0290 H         1 <0>         0.1364
     41 H9         -1.3078   -8.9704   -0.0424 H         1 <0>         0.1514
     42 H10        -5.5809   -8.9693   -0.1851 H         1 <0>         0.1386
     43 H11        -5.5820   -6.5098   -0.1039 H         1 <0>         0.1400
     44 H12        -4.1137  -10.9957   -0.6785 H         1 <0>         0.4131
     45 H13        -3.2246  -13.0383    0.0299 H         1 <0>         0.4146
     46 H14        -1.6244  -11.7997    2.9103 H         1 <0>         0.1546
     47 H15        -0.0456  -13.0604    4.3154 H         1 <0>         0.1524
     48 H16        -1.5123  -14.9245   -0.0064 H         1 <0>         0.1525
@<TRIPOS>BOND
     1    1    2 1
     2    1   33 1
     3    1   34 1
     4    1   35 1
     5    2    3 am
     6    2   36 1
     7    3    4 2
     8    3    5 1
     9    5   10 ar
    10    5    6 ar
    11    6    7 ar
    12    6   37 1
    13    7    8 ar
    14    7   11 1
    15    8    9 ar
    16    8   38 1
    17    9   10 ar
    18    9   39 1
    19   11   12 1
    20   12   17 ar
    21   12   13 ar
    22   13   14 ar
    23   13   40 1
    24   14   15 ar
    25   14   41 1
    26   15   16 ar
    27   15   18 1
    28   16   17 ar
    29   16   42 1
    30   17   43 1
    31   18   19 am
    32   18   44 1
    33   19   20 2
    34   19   21 am
    35   21   22 1
    36   21   45 1
    37   22   27 ar
    38   22   23 ar
    39   23   24 ar
    40   23   46 1
    41   24   25 ar
    42   24   47 1
    43   25   26 ar
    44   25   32 1
    45   26   27 ar
    46   26   28 1
    47   27   48 1
    48   28   29 1
    49   28   30 1
    50   28   31 1
@<TRIPOS>MOLECULE
ZINC03814434
   62    69     0     0     0
SMALL
USER_CHARGES

@<TRIPOS>ATOM
      1 C1         -0.1295    1.5952   -0.2973 C.3       1 <0>        -0.1687
      2 C2         -0.0862    0.0696   -0.1900 C.3       1 <0>         0.3342
      3 C3          0.5692   -0.4501   -1.4637 C.3       1 <0>         0.0405
      4 H1          1.4796    0.1159   -1.6612 H         1 <0>         0.1372
      5 C4          0.9167   -1.9328   -1.2889 C.3       1 <0>        -0.0061
      6 H2          1.3963   -2.3075   -2.1932 H         1 <0>         0.1555
      7 C5          1.8785   -2.0596   -0.1021 C.3       1 <0>        -0.1827
      8 C6          1.2061   -1.5198    1.1541 C.3       1 <0>         0.2999
      9 H3          1.9797   -1.4243    1.9161 H         1 <0>         0.1550
     10 O1          0.6555   -0.2442    0.9666 O.3       1 <0>        -0.3234
     11 N1          0.2189   -2.4746    1.6600 N.pl3     1 <0>        -0.5366
     12 C7          0.4705   -3.5508    2.4739 C.ar      1 <0>         0.1469
     13 C8          1.6649   -4.0152    3.0240 C.ar      1 <0>        -0.1522
     14 C9          1.5948   -5.1456    3.8201 C.ar      1 <0>        -0.0582
     15 C10         0.4006   -5.7997    4.0696 C.ar      1 <0>        -0.1457
     16 C11        -0.7984   -5.3597    3.5358 C.ar      1 <0>        -0.0280
     17 C12        -0.7487   -4.2198    2.7307 C.ar      1 <0>        -0.1131
     18 C13        -1.7893   -3.4830    2.0197 C.ar      1 <0>         0.0276
     19 C14        -1.1442   -2.4197    1.3841 C.ar      1 <0>         0.0376
     20 C15        -1.8806   -1.5095    0.6175 C.ar      1 <0>         0.0894
     21 N2         -1.4718   -0.3951   -0.1095 N.pl3     1 <0>        -0.5183
     22 C16        -2.5611    0.1913   -0.7090 C.ar      1 <0>         0.1618
     23 C17        -2.6521    1.3277   -1.5118 C.ar      1 <0>        -0.1305
     24 C18        -3.9109    1.6745   -1.9733 C.ar      1 <0>        -0.0737
     25 C19        -5.0393    0.9368   -1.6616 C.ar      1 <0>        -0.1358
     26 C20        -4.9745   -0.1955   -0.8662 C.ar      1 <0>        -0.0503
     27 C21        -3.7147   -0.5596   -0.3919 C.ar      1 <0>        -0.1042
     28 C22        -3.2693   -1.6660    0.4845 C.ar      1 <0>        -0.0360
     29 C23        -3.9084   -2.7313    1.1102 C.ar      1 <0>        -0.0288
     30 C24        -3.1873   -3.6421    1.8754 C.ar      1 <0>        -0.1255
     31 C25        -4.1221   -4.6480    2.4030 C.2       1 <0>         0.5632
     32 O2         -3.8062   -5.5851    3.1110 O.2       1 <0>        -0.5106
     33 N3         -5.3744   -4.3851    1.9926 N.am      1 <0>        -0.7162
     34 C26        -5.3495   -3.1771    1.1601 C.3       1 <0>         0.1358
     35 N4         -0.3067   -2.7008   -1.0216 N.4       1 <0>        -0.5252
     36 C27         0.0145   -4.1336   -0.9773 C.3       1 <0>        -0.0497
     37 O3         -0.3340   -0.2979   -2.5607 O.3       1 <0>        -0.3614
     38 C28         0.3101   -0.0933   -3.8198 C.3       1 <0>         0.0162
     39 H4          0.8261    2.0094    0.0240 H         1 <0>         0.0984
     40 H5         -0.3202    1.8814   -1.3317 H         1 <0>         0.1036
     41 H6         -0.9255    1.9818    0.3392 H         1 <0>         0.0921
     42 H7          2.1370   -3.1081    0.0458 H         1 <0>         0.1233
     43 H8          2.7835   -1.4869   -0.3048 H         1 <0>         0.1455
     44 H9          2.6036   -3.5149    2.8368 H         1 <0>         0.1365
     45 H10         2.5026   -5.5304    4.2610 H         1 <0>         0.1359
     46 H11         0.4045   -6.6780    4.6980 H         1 <0>         0.1352
     47 H12        -1.7278   -5.8736    3.7323 H         1 <0>         0.1600
     48 H13        -1.7792    1.9122   -1.7624 H         1 <0>         0.1440
     49 H14        -4.0153    2.5500   -2.5970 H         1 <0>         0.1336
     50 H15        -5.9967    1.2527   -2.0488 H         1 <0>         0.1332
     51 H16        -5.8575   -0.7687   -0.6249 H         1 <0>         0.1415
     52 H17        -6.1628   -4.9065    2.2103 H         1 <0>         0.4348
     53 H18        -5.9671   -2.3994    1.6094 H         1 <0>         0.1115
     54 H19        -5.7060   -3.4063    0.1559 H         1 <0>         0.1103
     55 H20        -0.6958   -2.4158   -0.1353 H         1 <0>         0.4186
     56 H21         0.4349   -4.4415   -1.9347 H         1 <0>         0.1256
     57 H22         0.7403   -4.3189   -0.1854 H         1 <0>         0.1191
     58 H23        -0.8932   -4.7035   -0.7789 H         1 <0>         0.1256
     59 H24         0.9168    0.8112   -3.7748 H         1 <0>         0.0633
     60 H25         0.9482   -0.9479   -4.0446 H         1 <0>         0.0514
     61 H26        -0.4433    0.0130   -4.6003 H         1 <0>         0.1100
     62 H27        -0.9785   -2.5293   -1.7546 H         1 <0>         0.4274
@<TRIPOS>BOND
     1    1    2 1
     2    1   39 1
     3    1   40 1
     4    1   41 1
     5    2   10 1
     6    2   21 1
     7    2    3 1
     8    3    4 1
     9    3    5 1
    10    3   37 1
    11    5    6 1
    12    5    7 1
    13    5   35 1
    14    7    8 1
    15    7   42 1
    16    7   43 1
    17    8    9 1
    18    8   10 1
    19    8   11 1
    20   11   19 1
    21   11   12 1
    22   12   17 ar
    23   12   13 ar
    24   13   14 ar
    25   13   44 1
    26   14   15 ar
    27   14   45 1
    28   15   16 ar
    29   15   46 1
    30   16   17 ar
    31   16   47 1
    32   17   18 1
    33   18   30 ar
    34   18   19 ar
    35   19   20 ar
    36   20   28 ar
    37   20   21 1
    38   21   22 1
    39   22   27 ar
    40   22   23 ar
    41   23   24 ar
    42   23   48 1
    43   24   25 ar
    44   24   49 1
    45   25   26 ar
    46   25   50 1
    47   26   27 ar
    48   26   51 1
    49   27   28 1
    50   28   29 ar
    51   29   34 1
    52   29   30 ar
    53   30   31 1
    54   31   32 2
    55   31   33 am
    56   33   34 1
    57   33   52 1
    58   34   53 1
    59   34   54 1
    60   35   36 1
    61   35   55 1
    62   35   62 1
    63   36   56 1
    64   36   57 1
    65   36   58 1
    66   37   38 1
    67   38   59 1
    68   38   60 1
    69   38   61 1
@<TRIPOS>MOLECULE
ZINC03874317
   33    35     0     0     0
SMALL
USER_CHARGES

@<TRIPOS>ATOM
      1 C1          2.0732    1.4062   -0.8308 C.ar      1 <0>        -0.0859
      2 C2          1.1849    2.0922    0.0020 C.ar      1 <0>        -0.0258
      3 C3          0.3126    1.3779    0.8279 C.ar      1 <0>        -0.1033
      4 C4          0.3308   -0.0046    0.8189 C.ar      1 <0>         0.0938
      5 C5          1.2167   -0.6850   -0.0116 C.ar      1 <0>         0.0764
      6 C6          2.0867    0.0236   -0.8354 C.ar      1 <0>         0.0966
      7 O1          2.9505   -0.6446   -1.6458 O.3       1 <0>        -0.4863
      8 O2          1.2322   -2.0446   -0.0183 O.3       1 <0>        -0.4787
      9 O3         -0.5174   -0.7003    1.6227 O.3       1 <0>        -0.4812
     10 C7          1.1683    3.5667    0.0096 C.2       1 <0>         0.1312
     11 C8          2.3519    4.2356    0.1004 C.2       1 <0>        -0.0374
     12 C9          2.3527    5.6546    0.1089 C.2       1 <0>         0.4012
     13 O4          3.3933    6.2877    0.1887 O.2       1 <0>        -0.4464
     14 C10         1.0501    6.3331    0.0174 C.ar      1 <0>        -0.2690
     15 C11         0.9572    7.7312    0.0184 C.ar      1 <0>         0.2250
     16 C12        -0.2849    8.3310   -0.0697 C.ar      1 <0>        -0.2079
     17 C13        -1.4331    7.5508   -0.1581 C.ar      1 <0>         0.2004
     18 C14        -1.3490    6.1675   -0.1597 C.ar      1 <0>        -0.1855
     19 C15        -0.1119    5.5470   -0.0726 C.ar      1 <0>         0.1879
     20 O5         -0.0133    4.2011   -0.0789 O.3       1 <0>        -0.1974
     21 O6         -2.6481    8.1504   -0.2432 O.3       1 <0>        -0.4866
     22 O7          2.0786    8.4907    0.1056 O.3       1 <0>        -0.4725
     23 O8          3.5237    3.5485    0.1828 O.3       1 <0>        -0.4491
     24 H1          2.7453    1.9555   -1.4734 H         1 <0>         0.1463
     25 H2         -0.3747    1.9053    1.4728 H         1 <0>         0.1442
     26 H3          3.8063   -0.8341   -1.2374 H         1 <0>         0.3987
     27 H4          0.6310   -2.4417   -0.6632 H         1 <0>         0.3936
     28 H5         -1.3687   -0.9054    1.2124 H         1 <0>         0.3924
     29 H6         -0.3642    9.4081   -0.0694 H         1 <0>         0.1517
     30 H7         -2.2476    5.5724   -0.2288 H         1 <0>         0.1557
     31 H8         -2.9359    8.3293   -1.1489 H         1 <0>         0.4053
     32 H9          2.4687    8.7158   -0.7501 H         1 <0>         0.4040
     33 H10         4.3069    4.1124    0.2436 H         1 <0>         0.4089
@<TRIPOS>BOND
     1    1    6 ar
     2    1    2 ar
     3    1   24 1
     4    2    3 ar
     5    2   10 1
     6    3    4 ar
     7    3   25 1
     8    4    5 ar
     9    4    9 1
    10    5    6 ar
    11    5    8 1
    12    6    7 1
    13    7   26 1
    14    8   27 1
    15    9   28 1
    16   10   20 1
    17   10   11 2
    18   11   12 1
    19   11   23 1
    20   12   13 2
    21   12   14 1
    22   14   19 ar
    23   14   15 ar
    24   15   16 ar
    25   15   22 1
    26   16   17 ar
    27   16   29 1
    28   17   18 ar
    29   17   21 1
    30   18   19 ar
    31   18   30 1
    32   19   20 1
    33   21   31 1
    34   22   32 1
    35   23   33 1
@<TRIPOS>MOLECULE
ZINC03874317
   32    34     0     0     0
SMALL
USER_CHARGES

@<TRIPOS>ATOM
      1 C1          2.0771    1.4053   -0.8287 C.ar      1 <0>        -0.0905
      2 C2          1.1858    2.0921    0.0020 C.ar      1 <0>        -0.0015
      3 C3          0.3103    1.3773    0.8258 C.ar      1 <0>        -0.1070
      4 C4          0.3284   -0.0047    0.8166 C.ar      1 <0>         0.0918
      5 C5          1.2173   -0.6854   -0.0113 C.ar      1 <0>         0.0627
      6 C6          2.0900    0.0232   -0.8331 C.ar      1 <0>         0.0937
      7 O1          2.9560   -0.6454   -1.6409 O.3       1 <0>        -0.4882
      8 O2          1.2332   -2.0446   -0.0173 O.3       1 <0>        -0.4810
      9 O3         -0.5225   -0.7004    1.6174 O.3       1 <0>        -0.4835
     10 C7          1.1696    3.5647    0.0095 C.2       1 <0>         0.0969
     11 C8          2.3645    4.2546    0.1013 C.2       1 <0>         0.0017
     12 C9          2.3581    5.6552    0.1091 C.2       1 <0>         0.3347
     13 C10         1.1162    6.3213    0.0219 C.2       1 <0>        -0.3328
     14 C11         1.0516    7.7306    0.0250 C.2       1 <0>         0.2668
     15 C12        -0.1591    8.3550   -0.0605 C.2       1 <0>        -0.3747
     16 C13        -1.3400    7.6005   -0.1516 C.2       1 <0>         0.3649
     17 O4         -2.5185    8.2209   -0.2352 O.2       1 <0>        -0.6597
     18 C14        -1.2886    6.2026   -0.1556 C.2       1 <0>        -0.3140
     19 C15        -0.0694    5.5584   -0.0695 C.2       1 <0>         0.2123
     20 O5         -0.0059    4.2104   -0.0783 O.3       1 <0>        -0.2019
     21 O6          2.1901    8.4635    0.1132 O.3       1 <0>        -0.4481
     22 O7          3.5130    6.3524    0.1984 O.3       1 <0>        -0.5726
     23 O8          3.5409    3.5760    0.1840 O.3       1 <0>        -0.4646
     24 H1          2.7513    1.9542   -1.4694 H         1 <0>         0.1458
     25 H2         -0.3788    1.9047    1.4687 H         1 <0>         0.1447
     26 H3          3.8105   -0.8352   -1.2299 H         1 <0>         0.3943
     27 H4          0.6340   -2.4421   -0.6639 H         1 <0>         0.3880
     28 H5         -1.3725   -0.9053    1.2042 H         1 <0>         0.3891
     29 H6         -0.2092    9.4338   -0.0579 H         1 <0>         0.1182
     30 H7         -2.2003    5.6280   -0.2254 H         1 <0>         0.1230
     31 H8          2.0440    9.4194    0.1078 H         1 <0>         0.3850
     32 H9          4.3201    4.1455    0.2445 H         1 <0>         0.4068
@<TRIPOS>BOND
     1    1    6 ar
     2    1    2 ar
     3    1   24 1
     4    2    3 ar
     5    2   10 1
     6    3    4 ar
     7    3   25 1
     8    4    5 ar
     9    4    9 1
    10    5    6 ar
    11    5    8 1
    12    6    7 1
    13    7   26 1
    14    8   27 1
    15    9   28 1
    16   10   20 1
    17   10   11 2
    18   11   12 1
    19   11   23 1
    20   12   13 2
    21   12   22 1
    22   13   19 1
    23   13   14 1
    24   14   15 2
    25   14   21 1
    26   15   16 1
    27   15   29 1
    28   16   17 2
    29   16   18 1
    30   18   19 2
    31   18   30 1
    32   19   20 1
    33   21   31 1
    34   23   32 1
@<TRIPOS>MOLECULE
ZINC72105034
   70    73     0     0     0
SMALL
USER_CHARGES

@<TRIPOS>ATOM
      1 C1         -3.0465   -3.1127   14.8741 C.3       1 <0>        -0.1892
      2 C2         -3.2466   -2.2549   13.6230 C.3       1 <0>        -0.0108
      3 N1         -4.1264   -2.9600   12.6814 N.4       1 <0>        -0.3829
      4 C3         -3.4647   -4.1874   12.2214 C.3       1 <0>        -0.0274
      5 C4         -4.4254   -4.9810   11.3297 C.3       1 <0>         0.1010
      6 N2         -4.8919   -4.1005   10.2474 N.pl3     1 <0>        -0.6456
      7 C5         -5.4217   -2.7770   10.6103 C.3       1 <0>         0.1015
      8 C6         -4.4140   -2.0875   11.5359 C.3       1 <0>        -0.0220
      9 C7         -4.8337   -4.5106    8.9106 C.ar      1 <0>         0.1766
     10 C8         -4.2262   -5.7148    8.5795 C.ar      1 <0>        -0.1629
     11 C9         -4.1692   -6.1195    7.2606 C.ar      1 <0>        -0.0646
     12 C10        -4.7193   -5.3226    6.2653 C.ar      1 <0>         0.1310
     13 C11        -5.3268   -4.1185    6.5964 C.ar      1 <0>        -0.1041
     14 C12        -5.3885   -3.7162    7.9158 C.ar      1 <0>        -0.1629
     15 N3         -4.6611   -5.7330    4.9274 N.pl3     1 <0>        -0.6533
     16 C13        -4.7431   -7.0808    4.6114 C.ar      1 <0>         0.4484
     17 C14        -4.5642   -7.5111    3.2990 C.ar      1 <0>        -0.3232
     18 C15        -4.6563   -8.8727    3.0342 C.ar      1 <0>         0.4562
     19 N4         -4.9104   -9.7105    4.0371 N.ar      1 <0>        -0.5358
     20 C16        -5.0737   -9.2649    5.2660 C.ar      1 <0>         0.3663
     21 N5         -4.9887   -7.9832    5.5591 N.ar      1 <0>        -0.5884
     22 N6         -4.4859   -9.3527    1.7400 N.am      1 <0>        -0.5513
     23 C17        -4.0993   -8.4367    0.6640 C.3       1 <0>         0.0633
     24 C18        -4.6764  -10.6605    1.4758 C.2       1 <0>         0.6965
     25 O1         -4.9972  -11.4206    2.3688 O.2       1 <0>        -0.4771
     26 N7         -4.5113  -11.1256    0.2217 N.am      1 <0>        -0.6806
     27 C19        -4.5933  -12.5005   -0.0317 C.ar      1 <0>         0.2488
     28 C20        -3.5635  -13.1459   -0.7035 C.ar      1 <0>        -0.1156
     29 C21        -3.6457  -14.5077   -0.9540 C.ar      1 <0>         0.1985
     30 C22        -4.7561  -15.2246   -0.5342 C.ar      1 <0>        -0.2856
     31 C23        -5.7851  -14.5810    0.1368 C.ar      1 <0>         0.1981
     32 C24        -5.7020  -13.2205    0.3937 C.ar      1 <0>        -0.0913
     33 Cl1        -6.9867  -12.4166    1.2405 Cl        1 <0>        -0.0174
     34 O2         -6.8731  -15.2849    0.5478 O.3       1 <0>        -0.2934
     35 C25        -6.8895  -16.6834    0.2548 C.3       1 <0>         0.0217
     36 O3         -2.6377  -15.1397   -1.6116 O.3       1 <0>        -0.2949
     37 C26        -2.7887  -16.5430   -1.8355 C.3       1 <0>         0.0219
     38 Cl2        -2.1738  -12.2486   -1.2302 Cl        1 <0>        -0.0383
     39 H1         -2.3937   -2.5895   15.5727 H         1 <0>         0.1068
     40 H2         -4.0114   -3.2967   15.3466 H         1 <0>         0.0809
     41 H3         -2.5919   -4.0630   14.5941 H         1 <0>         0.0805
     42 H4         -3.7012   -1.3046   13.9030 H         1 <0>         0.1310
     43 H5         -2.2817   -2.0709   13.1505 H         1 <0>         0.1281
     44 H6         -2.5717   -3.9277   11.6528 H         1 <0>         0.1321
     45 H7         -3.1838   -4.7935   13.0827 H         1 <0>         0.1410
     46 H8         -3.9058   -5.8399   10.9049 H         1 <0>         0.1268
     47 H9         -5.2773   -5.3195   11.9194 H         1 <0>         0.0863
     48 H10        -5.5608   -2.1788    9.7098 H         1 <0>         0.1256
     49 H11        -6.3742   -2.8930   11.1273 H         1 <0>         0.0858
     50 H12        -4.8326   -1.1462   11.8921 H         1 <0>         0.1394
     51 H13        -3.4923   -1.8913   10.9881 H         1 <0>         0.1318
     52 H14        -3.7980   -6.3344    9.3535 H         1 <0>         0.1245
     53 H15        -3.6964   -7.0558    7.0031 H         1 <0>         0.1406
     54 H16        -5.7546   -3.4987    5.8223 H         1 <0>         0.1287
     55 H17        -5.8648   -2.7819    8.1738 H         1 <0>         0.1249
     56 H18        -4.5634   -5.0745    4.2219 H         1 <0>         0.4207
     57 H19        -4.3595   -6.8053    2.5076 H         1 <0>         0.1461
     58 H20        -5.2787   -9.9712    6.0569 H         1 <0>         0.2006
     59 H21        -3.0123   -8.3941    0.5961 H         1 <0>         0.0784
     60 H22        -4.5087   -8.7932   -0.2812 H         1 <0>         0.0834
     61 H23        -4.4893   -7.4413    0.8765 H         1 <0>         0.0916
     62 H24        -4.3356  -10.5081   -0.5055 H         1 <0>         0.4126
     63 H25        -4.8197  -16.2847   -0.7302 H         1 <0>         0.1546
     64 H26        -7.8108  -17.1238    0.6364 H         1 <0>         0.1096
     65 H27        -6.8368  -16.8293   -0.8241 H         1 <0>         0.0610
     66 H28        -6.0336  -17.1640    0.7287 H         1 <0>         0.0609
     67 H29        -3.6841  -16.7217   -2.4308 H         1 <0>         0.0613
     68 H30        -1.9165  -16.9218   -2.3683 H         1 <0>         0.1099
     69 H31        -2.8806  -17.0558   -0.8781 H         1 <0>         0.0610
     70 H32        -4.9899   -3.1998   13.1451 H         1 <0>         0.4221
@<TRIPOS>BOND
     1    1    2 1
     2    1   39 1
     3    1   40 1
     4    1   41 1
     5    2    3 1
     6    2   42 1
     7    2   43 1
     8    3    8 1
     9    3    4 1
    10    3   70 1
    11    4    5 1
    12    4   44 1
    13    4   45 1
    14    5    6 1
    15    5   46 1
    16    5   47 1
    17    6    7 1
    18    6    9 1
    19    7    8 1
    20    7   48 1
    21    7   49 1
    22    8   50 1
    23    8   51 1
    24    9   14 ar
    25    9   10 ar
    26   10   11 ar
    27   10   52 1
    28   11   12 ar
    29   11   53 1
    30   12   13 ar
    31   12   15 1
    32   13   14 ar
    33   13   54 1
    34   14   55 1
    35   15   16 1
    36   15   56 1
    37   16   21 ar
    38   16   17 ar
    39   17   18 ar
    40   17   57 1
    41   18   19 ar
    42   18   22 1
    43   19   20 ar
    44   20   21 ar
    45   20   58 1
    46   22   23 1
    47   22   24 am
    48   23   59 1
    49   23   60 1
    50   23   61 1
    51   24   25 2
    52   24   26 am
    53   26   27 1
    54   26   62 1
    55   27   32 ar
    56   27   28 ar
    57   28   29 ar
    58   28   38 1
    59   29   30 ar
    60   29   36 1
    61   30   31 ar
    62   30   63 1
    63   31   32 ar
    64   31   34 1
    65   32   33 1
    66   34   35 1
    67   35   64 1
    68   35   65 1
    69   35   66 1
    70   36   37 1
    71   37   67 1
    72   37   68 1
    73   37   69 1
@<TRIPOS>MOLECULE
ZINC72105034
   69    72     0     0     0
SMALL
USER_CHARGES

@<TRIPOS>ATOM
      1 C1         -3.4378   -3.9375   14.6684 C.3       1 <0>        -0.1502
      2 C2         -3.5006   -3.0159   13.4488 C.3       1 <0>         0.0503
      3 N1         -4.3406   -3.6313   12.4127 N.3       1 <0>        -0.5378
      4 C3         -3.7251   -4.8621   11.8984 C.3       1 <0>         0.0363
      5 C4         -4.7086   -5.5666   10.9578 C.3       1 <0>         0.1266
      6 N2         -5.1378   -4.6085    9.9278 N.pl3     1 <0>        -0.6321
      7 C5         -5.6391   -3.2963   10.3636 C.3       1 <0>         0.1276
      8 C6         -4.6190   -2.6811   11.3275 C.3       1 <0>         0.0396
      9 C7         -5.0714   -4.9369    8.5689 C.ar      1 <0>         0.2080
     10 C8         -4.4894   -6.1336    8.1714 C.ar      1 <0>        -0.1806
     11 C9         -4.4244   -6.4578    6.8309 C.ar      1 <0>        -0.0579
     12 C10        -4.9408   -5.5873    5.8801 C.ar      1 <0>         0.0956
     13 C11        -5.5227   -4.3907    6.2776 C.ar      1 <0>        -0.0967
     14 C12        -5.5926   -4.0689    7.6185 C.ar      1 <0>        -0.1814
     15 N3         -4.8743   -5.9160    4.5202 N.pl3     1 <0>        -0.6480
     16 C13        -4.9857   -7.2392    4.1204 C.ar      1 <0>         0.4532
     17 C14        -4.7996   -7.5924    2.7862 C.ar      1 <0>        -0.3285
     18 C15        -4.9221   -8.9324    2.4366 C.ar      1 <0>         0.4515
     19 N4         -5.2108   -9.8235    3.3827 N.ar      1 <0>        -0.5423
     20 C16        -5.3796   -9.4503    4.6347 C.ar      1 <0>         0.3655
     21 N5         -5.2667   -8.1917    5.0075 N.ar      1 <0>        -0.5828
     22 N6         -4.7461   -9.3361    1.1173 N.am      1 <0>        -0.5515
     23 C17        -4.3221   -8.3659    0.1048 C.3       1 <0>         0.0649
     24 C18        -4.9656  -10.6198    0.7705 C.2       1 <0>         0.6963
     25 O1         -5.3174  -11.4249    1.6108 O.2       1 <0>        -0.4774
     26 N7         -4.7950  -11.0110   -0.5080 N.am      1 <0>        -0.6824
     27 C19        -4.9079  -12.3651   -0.8468 C.ar      1 <0>         0.2515
     28 C20        -3.8855  -12.9943   -1.5448 C.ar      1 <0>        -0.1156
     29 C21        -3.9983  -14.3355   -1.8800 C.ar      1 <0>         0.1969
     30 C22        -5.1319  -15.0480   -1.5188 C.ar      1 <0>        -0.2867
     31 C23        -6.1535  -14.4206   -0.8218 C.ar      1 <0>         0.1972
     32 C24        -6.0399  -13.0811   -0.4802 C.ar      1 <0>        -0.0912
     33 Cl1        -7.3156  -12.2980    0.3991 Cl        1 <0>        -0.0151
     34 O2         -7.2642  -15.1202   -0.4683 O.3       1 <0>        -0.2933
     35 C25        -7.3116  -16.4972   -0.8473 C.3       1 <0>         0.0224
     36 O3         -2.9975  -14.9516   -2.5633 O.3       1 <0>        -0.2955
     37 C26        -3.1804  -16.3341   -2.8753 C.3       1 <0>         0.0225
     38 Cl2        -2.4668  -12.1023   -1.9981 Cl        1 <0>        -0.0388
     39 H1         -2.8146   -3.4808   15.4373 H         1 <0>         0.0601
     40 H2         -4.4435   -4.0912   15.0599 H         1 <0>         0.0642
     41 H3         -3.0108   -4.8971   14.3771 H         1 <0>         0.0548
     42 H4         -3.9276   -2.0563   13.7401 H         1 <0>         0.0754
     43 H5         -2.4950   -2.8622   13.0574 H         1 <0>         0.0324
     44 H6         -2.8150   -4.6131   11.3528 H         1 <0>         0.0373
     45 H7         -3.4816   -5.5223   12.7308 H         1 <0>         0.0881
     46 H8         -4.2176   -6.4171   10.4850 H         1 <0>         0.0867
     47 H9         -5.5752   -5.9086   11.5236 H         1 <0>         0.0692
     48 H10        -5.7633   -2.6458    9.4978 H         1 <0>         0.0853
     49 H11        -6.5952   -3.4200   10.8723 H         1 <0>         0.0688
     50 H12        -5.0237   -1.7596   11.7460 H         1 <0>         0.0847
     51 H13        -3.6964   -2.4625   10.7899 H         1 <0>         0.0375
     52 H14        -4.0875   -6.8104    8.9108 H         1 <0>         0.1239
     53 H15        -3.9715   -7.3882    6.5217 H         1 <0>         0.1333
     54 H16        -5.9244   -3.7138    5.5381 H         1 <0>         0.1213
     55 H17        -6.0491   -3.1403    7.9278 H         1 <0>         0.1240
     56 H18        -4.7504   -5.2181    3.8580 H         1 <0>         0.4169
     57 H19        -4.5666   -6.8448    2.0425 H         1 <0>         0.1434
     58 H20        -5.6130  -10.1984    5.3779 H         1 <0>         0.1992
     59 H21        -3.2335   -8.3472    0.0528 H         1 <0>         0.0766
     60 H22        -4.7274   -8.6529   -0.8655 H         1 <0>         0.0808
     61 H23        -4.6901   -7.3757    0.3737 H         1 <0>         0.0918
     62 H24        -4.5941  -10.3546   -1.1933 H         1 <0>         0.4120
     63 H25        -5.2193  -16.0921   -1.7808 H         1 <0>         0.1535
     64 H26        -7.2478  -16.5777   -1.9325 H         1 <0>         0.0599
     65 H27        -6.4745  -17.0279   -0.3938 H         1 <0>         0.0605
     66 H28        -8.2486  -16.9363   -0.5049 H         1 <0>         0.1088
     67 H29        -3.2981  -16.9023   -1.9526 H         1 <0>         0.0606
     68 H30        -4.0718  -16.4527   -3.4913 H         1 <0>         0.0604
     69 H31        -2.3108  -16.7017   -3.4200 H         1 <0>         0.1087
@<TRIPOS>BOND
     1    1    2 1
     2    1   39 1
     3    1   40 1
     4    1   41 1
     5    2    3 1
     6    2   42 1
     7    2   43 1
     8    3    8 1
     9    3    4 1
    10    4    5 1
    11    4   44 1
    12    4   45 1
    13    5    6 1
    14    5   46 1
    15    5   47 1
    16    6    7 1
    17    6    9 1
    18    7    8 1
    19    7   48 1
    20    7   49 1
    21    8   50 1
    22    8   51 1
    23    9   14 ar
    24    9   10 ar
    25   10   11 ar
    26   10   52 1
    27   11   12 ar
    28   11   53 1
    29   12   13 ar
    30   12   15 1
    31   13   14 ar
    32   13   54 1
    33   14   55 1
    34   15   16 1
    35   15   56 1
    36   16   21 ar
    37   16   17 ar
    38   17   18 ar
    39   17   57 1
    40   18   19 ar
    41   18   22 1
    42   19   20 ar
    43   20   21 ar
    44   20   58 1
    45   22   23 1
    46   22   24 am
    47   23   59 1
    48   23   60 1
    49   23   61 1
    50   24   25 2
    51   24   26 am
    52   26   27 1
    53   26   62 1
    54   27   32 ar
    55   27   28 ar
    56   28   29 ar
    57   28   38 1
    58   29   30 ar
    59   29   36 1
    60   30   31 ar
    61   30   63 1
    62   31   32 ar
    63   31   34 1
    64   32   33 1
    65   34   35 1
    66   35   64 1
    67   35   65 1
    68   35   66 1
    69   36   37 1
    70   37   67 1
    71   37   68 1
    72   37   69 1
@<TRIPOS>MOLECULE
ZINC01489867
   66    70     0     0     0
SMALL
USER_CHARGES
3-[2-(1,1-dimethylprop-2-enyl)-1H-indol-3-yl]-4,5-dihydroxy-6-[7-(3-methylbut-2-enyl)-1H-indol-3-yl]-1,2-benzoquinone
@<TRIPOS>ATOM
      1 C1         -4.8294    6.1943    1.1406 C.3       1 <0>        -0.1132
      2 C2         -4.3190    5.0581    1.9890 C.2       1 <0>        -0.1559
      3 C3         -3.7013    4.0480    1.4282 C.2       1 <0>        -0.1369
      4 C4         -3.6165    3.9565   -0.0737 C.3       1 <0>        -0.0453
      5 C5         -2.1697    3.9085   -0.4930 C.ar      1 <0>        -0.1125
      6 C6         -1.5179    5.0672   -0.8555 C.ar      1 <0>        -0.1093
      7 C7         -0.1860    5.0379   -1.2433 C.ar      1 <0>        -0.1781
      8 C8          0.5042    3.8461   -1.2708 C.ar      1 <0>        -0.0405
      9 C9         -0.1417    2.6659   -0.9072 C.ar      1 <0>        -0.0935
     10 C10        -1.4909    2.6947   -0.5142 C.ar      1 <0>         0.0937
     11 N1         -1.8630    1.4003   -0.2199 N.pl3     1 <0>        -0.6093
     12 H1         -2.8912    1.1842    0.1060 H         1 <0>         0.4166
     13 C11        -0.8061    0.5536   -0.3999 C.2       1 <0>         0.0087
     14 C12         0.2770    1.2570   -0.8225 C.2       1 <0>         0.0310
     15 C13         1.6155    0.7132   -1.1364 C.2       1 <0>        -0.4510
     16 C14         1.8380    0.0034   -2.3051 C.2       1 <0>         0.3163
     17 C15         3.1567   -0.5294   -2.6301 C.2       1 <0>         0.3195
     18 C16         4.1611   -0.5951   -1.6782 C.2       1 <0>        -0.4462
     19 C17         3.8691   -0.1006   -0.3175 C.2       1 <0>         0.3758
     20 O1          4.4909   -0.4801    0.6536 O.3       1 <0>        -0.5245
     21 C18         2.7501    0.9127   -0.2120 C.2       1 <0>         0.3758
     22 O2          2.7775    1.8260    0.5873 O.2       1 <0>        -0.5236
     23 C19         5.4911   -1.1456   -2.0159 C.2       1 <0>         0.0442
     24 C20         5.9174   -2.5498   -1.8975 C.ar      1 <0>        -0.0933
     25 C21         5.2844   -3.7214   -1.4855 C.ar      1 <0>        -0.0422
     26 C22         5.9697   -4.9043   -1.4981 C.ar      1 <0>        -0.1773
     27 C23         7.2901   -4.9484   -1.9229 C.ar      1 <0>        -0.1178
     28 C24         7.9323   -3.8025   -2.3391 C.ar      1 <0>        -0.1481
     29 C25         7.2524   -2.5884   -2.3344 C.ar      1 <0>         0.0849
     30 N2          7.6110   -1.3039   -2.6821 N.pl3     1 <0>        -0.6046
     31 H2          8.6262   -1.0972   -3.0518 H         1 <0>         0.4158
     32 C26         6.5597   -0.4529   -2.4901 C.2       1 <0>         0.0542
     33 C27         6.5814    1.0289   -2.7634 C.3       1 <0>         0.0463
     34 C28         7.9616    1.4307   -3.2875 C.3       1 <0>        -0.1458
     35 C29         5.5191    1.3702   -3.8103 C.3       1 <0>        -0.1363
     36 C30         6.2901    1.7790   -1.4892 C.2       1 <0>        -0.1018
     37 C31         7.1713    2.6206   -1.0084 C.2       1 <0>        -0.2362
     38 O3          3.4029   -0.9740   -3.8865 O.2       1 <0>        -0.6513
     39 O4          0.8096   -0.2001   -3.1640 O.3       1 <0>        -0.6580
     40 C32        -4.5191    5.0838    3.4823 C.3       1 <0>        -0.1120
     41 H3         -5.3154    6.9426    1.7839 H         1 <0>         0.0530
     42 H4         -5.5575    5.8091    0.4115 H         1 <0>         0.0621
     43 H5         -3.9879    6.6604    0.6072 H         1 <0>         0.0669
     44 H6         -3.2446    3.2668    2.0535 H         1 <0>         0.1083
     45 H7         -4.1275    3.0441   -0.4148 H         1 <0>         0.0678
     46 H8         -4.0994    4.8369   -0.5226 H         1 <0>         0.0744
     47 H9         -2.0492    6.0074   -0.8379 H         1 <0>         0.1049
     48 H10         0.3121    5.9539   -1.5244 H         1 <0>         0.1071
     49 H11         1.5409    3.8265   -1.5730 H         1 <0>         0.1154
     50 H12        -0.8293   -0.5135   -0.2355 H         1 <0>         0.1548
     51 H13         4.2571   -3.6940   -1.1534 H         1 <0>         0.1151
     52 H14         5.4801   -5.8111   -1.1748 H         1 <0>         0.1064
     53 H15         7.8195   -5.8897   -1.9269 H         1 <0>         0.1067
     54 H16         8.9600   -3.8467   -2.6684 H         1 <0>         0.1024
     55 H17         7.9774    2.5124   -3.4869 H         1 <0>         0.0602
     56 H18         8.1742    0.8832   -4.2176 H         1 <0>         0.0519
     57 H19         8.7253    1.1854   -2.5348 H         1 <0>         0.0518
     58 H20         5.5350    2.4519   -4.0097 H         1 <0>         0.0406
     59 H21         4.5268    1.0814   -3.4335 H         1 <0>         0.0963
     60 H22         5.7318    0.8227   -4.7404 H         1 <0>         0.0505
     61 H23         5.3374    1.6198   -0.9629 H         1 <0>         0.1228
     62 H24         6.9586    3.1681   -0.0783 H         1 <0>         0.0919
     63 H25         8.1240    2.7799   -1.5347 H         1 <0>         0.0931
     64 H26        -4.0827    4.1771    3.9264 H         1 <0>         0.0588
     65 H27        -5.5952    5.1210    3.7074 H         1 <0>         0.0589
     66 H28        -4.0256    5.9723    3.9031 H         1 <0>         0.0595
@<TRIPOS>BOND
     1    1    2 1
     2    1   41 1
     3    1   42 1
     4    1   43 1
     5    2    3 2
     6    2   40 1
     7    3    4 1
     8    3   44 1
     9    4    5 1
    10    4   45 1
    11    4   46 1
    12    5   10 ar
    13    5    6 ar
    14    6    7 ar
    15    6   47 1
    16    7    8 ar
    17    7   48 1
    18    8    9 ar
    19    8   49 1
    20    9   14 1
    21    9   10 ar
    22   10   11 1
    23   11   12 1
    24   11   13 1
    25   13   14 2
    26   13   50 1
    27   14   15 1
    28   15   21 1
    29   15   16 2
    30   16   39 1
    31   16   17 1
    32   17   38 2
    33   17   18 1
    34   18   19 2
    35   18   23 1
    36   19   20 1
    37   19   21 1
    38   21   22 2
    39   23   32 2
    40   23   24 1
    41   24   29 ar
    42   24   25 ar
    43   25   26 ar
    44   25   51 1
    45   26   27 ar
    46   26   52 1
    47   27   28 ar
    48   27   53 1
    49   28   29 ar
    50   28   54 1
    51   29   30 1
    52   30   31 1
    53   30   32 1
    54   32   33 1
    55   33   34 1
    56   33   35 1
    57   33   36 1
    58   34   55 1
    59   34   56 1
    60   34   57 1
    61   35   58 1
    62   35   59 1
    63   35   60 1
    64   36   37 2
    65   36   61 1
    66   37   62 1
    67   37   63 1
    68   40   64 1
    69   40   65 1
    70   40   66 1
@<TRIPOS>MOLECULE
ZINC01489867
   68    72     0     0     0
SMALL
USER_CHARGES
2-[2-(1,1-dimethylprop-2-enyl)-1H-indol-3-yl]-3,6-dihydroxy-5-[7-(3-methylbut-2-enyl)-1H-indol-3-yl]-1,4-benzoquinone
@<TRIPOS>ATOM
      1 C1         -4.9291    6.0958    1.1125 C.3       1 <0>        -0.1222
      2 C2         -4.4104    4.9664    1.9648 C.2       1 <0>        -0.1234
      3 C3         -3.5404    4.1201    1.4719 C.2       1 <0>        -0.1654
      4 C4         -3.0582    4.2759    0.0526 C.3       1 <0>        -0.0543
      5 C5         -1.5531    4.3500    0.0387 C.ar      1 <0>        -0.0771
      6 C6         -0.9227    5.5762    0.0395 C.ar      1 <0>        -0.0978
      7 C7          0.4616    5.6591    0.0268 C.ar      1 <0>        -0.1323
      8 C8          1.2269    4.5129    0.0139 C.ar      1 <0>        -0.0840
      9 C9          0.6032    3.2674    0.0129 C.ar      1 <0>        -0.0907
     10 C10        -0.7990    3.1820    0.0254 C.ar      1 <0>         0.0979
     11 N1         -1.1335    1.8429    0.0169 N.pl3     1 <0>        -0.5818
     12 H1         -2.0403    1.4985    0.0193 H         1 <0>         0.4187
     13 C11        -0.0126    1.0758    0.0080 C.2       1 <0>         0.1026
     14 C12         1.0940    1.8782    0.0017 C.2       1 <0>        -0.1449
     15 C13         2.4986    1.4407   -0.0133 C.2       1 <0>        -0.2782
     16 C14         3.0489    0.9516   -1.1627 C.2       1 <0>         0.3065
     17 C15         4.4515    0.5267   -1.1807 C.2       1 <0>         0.3742
     18 O1          4.9433    0.0954   -2.2063 O.2       1 <0>        -0.3601
     19 C16         5.2691    0.6170    0.0524 C.2       1 <0>        -0.0776
     20 C17         4.7155    1.0953    1.2048 C.2       1 <0>         0.1355
     21 C18         3.3162    1.5310    1.2198 C.2       1 <0>         0.2687
     22 O2          2.8258    1.9667    2.2441 O.3       1 <0>        -0.3670
     23 O3          5.4652    1.1785    2.3352 O.3       1 <0>        -0.4239
     24 C19         6.6753    0.1847    0.0359 C.2       1 <0>        -0.1336
     25 C20         7.8498    1.0163   -0.2801 C.ar      1 <0>        -0.0710
     26 C21         8.0220    2.3561   -0.6214 C.ar      1 <0>        -0.0755
     27 C22         9.2898    2.8435   -0.8531 C.ar      1 <0>        -0.1385
     28 C23        10.3919    2.0081   -0.7424 C.ar      1 <0>        -0.1014
     29 C24        10.2365    0.6820   -0.4002 C.ar      1 <0>        -0.1251
     30 C25         8.9652    0.1709   -0.1619 C.ar      1 <0>         0.0943
     31 N2          8.5021   -1.0810    0.1890 N.pl3     1 <0>        -0.5800
     32 H2          9.0634   -1.8590    0.3322 H         1 <0>         0.4162
     33 C26         7.1489   -1.0690    0.3049 C.2       1 <0>         0.1401
     34 C27         6.2987   -2.2572    0.6745 C.3       1 <0>         0.0252
     35 C28         7.1957   -3.4764    0.8977 C.3       1 <0>        -0.1575
     36 C29         5.5253   -1.9512    1.9586 C.3       1 <0>        -0.1347
     37 C30         5.3269   -2.5459   -0.4406 C.2       1 <0>        -0.1446
     38 C31         5.3514   -3.7071   -1.0465 C.2       1 <0>        -0.1817
     39 O4          2.2976    0.8631   -2.2917 O.2       1 <0>        -0.4772
     40 C32        -4.8925    4.8106    3.3840 C.3       1 <0>        -0.1191
     41 H3         -5.4275    5.6881    0.2330 H         1 <0>         0.0671
     42 H4         -5.6380    6.6901    1.6890 H         1 <0>         0.0616
     43 H5         -4.0970    6.7262    0.7989 H         1 <0>         0.0679
     44 H6         -3.1686    3.3107    2.0827 H         1 <0>         0.1054
     45 H7         -3.4710    5.1905   -0.3730 H         1 <0>         0.0853
     46 H8         -3.3854    3.4203   -0.5382 H         1 <0>         0.0722
     47 H9         -1.5126    6.4808    0.0499 H         1 <0>         0.1243
     48 H10         0.9422    6.6263    0.0276 H         1 <0>         0.1244
     49 H11         2.3048    4.5800    0.0047 H         1 <0>         0.1194
     50 H12         0.0021   -0.0041    0.0020 H         1 <0>         0.1749
     51 H13         4.9073    1.5471    3.0788 H         1 <0>         0.4053
     52 H14         7.1656    3.0085   -0.7082 H         1 <0>         0.1180
     53 H15         9.4263    3.8804   -1.1224 H         1 <0>         0.1239
     54 H16        11.3811    2.4005   -0.9266 H         1 <0>         0.1262
     55 H17        11.1014    0.0404   -0.3168 H         1 <0>         0.1204
     56 H18         7.8987   -3.2676    1.7042 H         1 <0>         0.0623
     57 H19         6.5809   -4.3358    1.1650 H         1 <0>         0.0755
     58 H20         7.7468   -3.6944   -0.0172 H         1 <0>         0.0629
     59 H21         4.8862   -1.0827    1.7997 H         1 <0>         0.0602
     60 H22         4.9104   -2.8106    2.2260 H         1 <0>         0.0657
     61 H23         6.2282   -1.7425    2.7652 H         1 <0>         0.0649
     62 H24         4.6104   -1.7955   -0.7401 H         1 <0>         0.1054
     63 H25         4.6550   -3.9140   -1.8455 H         1 <0>         0.1021
     64 H26         6.0680   -4.4575   -0.7468 H         1 <0>         0.1051
     65 H27         1.8714    2.2148    2.0775 H         1 <0>         0.4474
     66 H28        -4.2406    5.3724    4.0530 H         1 <0>         0.0678
     67 H29        -5.9109    5.1904    3.4656 H         1 <0>         0.0638
     68 H30        -4.8747    3.7563    3.6601 H         1 <0>         0.0611
@<TRIPOS>BOND
     1    1    2 1
     2    1   41 1
     3    1   42 1
     4    1   43 1
     5    2    3 2
     6    2   40 1
     7    3    4 1
     8    3   44 1
     9    4    5 1
    10    4   45 1
    11    4   46 1
    12    5   10 ar
    13    5    6 ar
    14    6    7 ar
    15    6   47 1
    16    7    8 ar
    17    7   48 1
    18    8    9 ar
    19    8   49 1
    20    9   14 1
    21    9   10 ar
    22   10   11 1
    23   11   12 1
    24   11   13 1
    25   13   14 2
    26   13   50 1
    27   14   15 1
    28   15   16 1
    29   15   21 2
    30   16   17 1
    31   16   39 2
    32   17   18 2
    33   17   19 1
    34   19   20 2
    35   19   24 1
    36   20   21 1
    37   20   23 1
    38   21   22 1
    39   22   65 1
    40   23   51 1
    41   24   33 2
    42   24   25 1
    43   25   30 ar
    44   25   26 ar
    45   26   27 ar
    46   26   52 1
    47   27   28 ar
    48   27   53 1
    49   28   29 ar
    50   28   54 1
    51   29   30 ar
    52   29   55 1
    53   30   31 1
    54   31   32 1
    55   31   33 1
    56   33   34 1
    57   34   35 1
    58   34   36 1
    59   34   37 1
    60   35   56 1
    61   35   57 1
    62   35   58 1
    63   36   59 1
    64   36   60 1
    65   36   61 1
    66   37   38 2
    67   37   62 1
    68   38   63 1
    69   38   64 1
    70   40   66 1
    71   40   67 1
    72   40   68 1
@<TRIPOS>MOLECULE
ZINC01489867
   67    71     0     0     0
SMALL
USER_CHARGES
3-[2-(1,1-dimethylprop-2-enyl)-1H-indol-3-yl]-4,5-dihydroxy-6-[7-(3-methylbut-2-enyl)-1H-indol-3-yl]-1,2-benzoquinone
@<TRIPOS>ATOM
      1 C1         -4.8294    6.1943    1.1406 C.3       1 <0>        -0.1171
      2 C2         -4.3190    5.0581    1.9890 C.2       1 <0>        -0.1445
      3 C3         -3.7013    4.0480    1.4282 C.2       1 <0>        -0.1469
      4 C4         -3.6165    3.9565   -0.0737 C.3       1 <0>        -0.0486
      5 C5         -2.1697    3.9085   -0.4930 C.ar      1 <0>        -0.1019
      6 C6         -1.5179    5.0672   -0.8555 C.ar      1 <0>        -0.1059
      7 C7         -0.1860    5.0379   -1.2433 C.ar      1 <0>        -0.1667
      8 C8          0.5042    3.8461   -1.2708 C.ar      1 <0>        -0.0514
      9 C9         -0.1417    2.6659   -0.9072 C.ar      1 <0>        -0.0913
     10 C10        -1.4909    2.6947   -0.5142 C.ar      1 <0>         0.0945
     11 N1         -1.8630    1.4003   -0.2199 N.pl3     1 <0>        -0.6085
     12 H1         -2.8911    1.1842    0.1060 H         1 <0>         0.4254
     13 C11        -0.8061    0.5536   -0.3999 C.2       1 <0>         0.0349
     14 C12         0.2770    1.2570   -0.8225 C.2       1 <0>        -0.0067
     15 C13         1.6155    0.7132   -1.1364 C.2       1 <0>        -0.4078
     16 C14         1.8380    0.0034   -2.3051 C.2       1 <0>         0.3016
     17 C15         3.1567   -0.5294   -2.6301 C.2       1 <0>         0.3535
     18 C16         4.1611   -0.5951   -1.6782 C.2       1 <0>        -0.2719
     19 C17         3.8691   -0.1006   -0.3175 C.2       1 <0>         0.2510
     20 O1          4.4909   -0.4801    0.6536 O.3       1 <0>        -0.3810
     21 C18         2.7501    0.9127   -0.2120 C.2       1 <0>         0.3686
     22 O2          2.7775    1.8260    0.5873 O.2       1 <0>        -0.4957
     23 C19         5.4911   -1.1456   -2.0159 C.2       1 <0>        -0.0534
     24 C20         5.9174   -2.5498   -1.8975 C.ar      1 <0>        -0.0876
     25 C21         5.2844   -3.7214   -1.4855 C.ar      1 <0>        -0.0594
     26 C22         5.9697   -4.9043   -1.4981 C.ar      1 <0>        -0.1580
     27 C23         7.2901   -4.9484   -1.9229 C.ar      1 <0>        -0.1088
     28 C24         7.9323   -3.8025   -2.3391 C.ar      1 <0>        -0.1363
     29 C25         7.2524   -2.5884   -2.3344 C.ar      1 <0>         0.0883
     30 N2          7.6110   -1.3039   -2.6821 N.pl3     1 <0>        -0.6004
     31 H2          8.6262   -1.0973   -3.0518 H         1 <0>         0.4306
     32 C26         6.5597   -0.4529   -2.4901 C.2       1 <0>         0.1097
     33 C27         6.5814    1.0289   -2.7634 C.3       1 <0>         0.0352
     34 C28         7.9616    1.4307   -3.2875 C.3       1 <0>        -0.1518
     35 C29         5.5191    1.3702   -3.8103 C.3       1 <0>        -0.1386
     36 C30         6.2901    1.7790   -1.4892 C.2       1 <0>        -0.1251
     37 C31         7.1713    2.6206   -1.0084 C.2       1 <0>        -0.2089
     38 O3          3.4029   -0.9740   -3.8865 O.2       1 <0>        -0.5292
     39 O4          0.8096   -0.2001   -3.1640 O.3       1 <0>        -0.5978
     40 C32        -4.5191    5.0838    3.4823 C.3       1 <0>        -0.1149
     41 H3         -5.3154    6.9426    1.7839 H         1 <0>         0.0563
     42 H4         -5.5575    5.8091    0.4115 H         1 <0>         0.0642
     43 H5         -3.9878    6.6604    0.6072 H         1 <0>         0.0674
     44 H6         -3.2446    3.2667    2.0536 H         1 <0>         0.1074
     45 H7         -4.1277    3.0442   -0.4149 H         1 <0>         0.0694
     46 H8         -4.0994    4.8370   -0.5226 H         1 <0>         0.0781
     47 H9         -2.0492    6.0074   -0.8379 H         1 <0>         0.1106
     48 H10         0.3121    5.9539   -1.5244 H         1 <0>         0.1112
     49 H11         1.5409    3.8265   -1.5730 H         1 <0>         0.1134
     50 H12        -0.8293   -0.5135   -0.2355 H         1 <0>         0.1573
     51 H13         4.2571   -3.6940   -1.1534 H         1 <0>         0.1159
     52 H14         5.4801   -5.8111   -1.1748 H         1 <0>         0.1149
     53 H15         7.8195   -5.8897   -1.9269 H         1 <0>         0.1166
     54 H16         8.9600   -3.8467   -2.6684 H         1 <0>         0.1120
     55 H17         7.9774    2.5123   -3.4870 H         1 <0>         0.0684
     56 H18         8.1743    0.8832   -4.2175 H         1 <0>         0.0586
     57 H19         8.7253    1.1855   -2.5348 H         1 <0>         0.0573
     58 H20         5.5351    2.4519   -4.0097 H         1 <0>         0.0553
     59 H21         4.5268    1.0814   -3.4334 H         1 <0>         0.0790
     60 H22         5.7317    0.8227   -4.7404 H         1 <0>         0.0594
     61 H23         5.3374    1.6198   -0.9629 H         1 <0>         0.1090
     62 H24         6.9586    3.1681   -0.0783 H         1 <0>         0.0981
     63 H25         8.1240    2.7798   -1.5347 H         1 <0>         0.1026
     64 H26        -4.0827    4.1770    3.9264 H         1 <0>         0.0587
     65 H27        -5.5952    5.1210    3.7074 H         1 <0>         0.0623
     66 H28        -4.0255    5.9722    3.9031 H         1 <0>         0.0617
     67 H29         4.2445   -0.0890    1.6518 H         1 <0>         0.4576
@<TRIPOS>BOND
     1    1    2 1
     2    1   41 1
     3    1   42 1
     4    1   43 1
     5    2    3 2
     6    2   40 1
     7    3    4 1
     8    3   44 1
     9    4    5 1
    10    4   45 1
    11    4   46 1
    12    5   10 ar
    13    5    6 ar
    14    6    7 ar
    15    6   47 1
    16    7    8 ar
    17    7   48 1
    18    8    9 ar
    19    8   49 1
    20    9   14 1
    21    9   10 ar
    22   10   11 1
    23   11   12 1
    24   11   13 1
    25   13   14 2
    26   13   50 1
    27   14   15 1
    28   15   21 1
    29   15   16 2
    30   16   39 1
    31   16   17 1
    32   17   38 2
    33   17   18 1
    34   18   19 2
    35   18   23 1
    36   19   20 1
    37   19   21 1
    38   20   67 1
    39   21   22 2
    40   23   32 2
    41   23   24 1
    42   24   29 ar
    43   24   25 ar
    44   25   26 ar
    45   25   51 1
    46   26   27 ar
    47   26   52 1
    48   27   28 ar
    49   27   53 1
    50   28   29 ar
    51   28   54 1
    52   29   30 1
    53   30   31 1
    54   30   32 1
    55   32   33 1
    56   33   34 1
    57   33   35 1
    58   33   36 1
    59   34   55 1
    60   34   56 1
    61   34   57 1
    62   35   58 1
    63   35   59 1
    64   35   60 1
    65   36   37 2
    66   36   61 1
    67   37   62 1
    68   37   63 1
    69   40   64 1
    70   40   65 1
    71   40   66 1
@<TRIPOS>MOLECULE
ZINC01489867
   67    71     0     0     0
SMALL
USER_CHARGES
3-[2-(1,1-dimethylprop-2-enyl)-1H-indol-3-yl]-4,5-dihydroxy-6-[7-(3-methylbut-2-enyl)-1H-indol-3-yl]-1,2-benzoquinone
@<TRIPOS>ATOM
      1 C1         -4.8294    6.1943    1.1406 C.3       1 <0>        -0.1186
      2 C2         -4.3190    5.0581    1.9890 C.2       1 <0>        -0.1379
      3 C3         -3.7013    4.0480    1.4282 C.2       1 <0>        -0.1539
      4 C4         -3.6165    3.9565   -0.0737 C.3       1 <0>        -0.0492
      5 C5         -2.1697    3.9085   -0.4930 C.ar      1 <0>        -0.0955
      6 C6         -1.5179    5.0672   -0.8555 C.ar      1 <0>        -0.1017
      7 C7         -0.1860    5.0379   -1.2433 C.ar      1 <0>        -0.1548
      8 C8          0.5042    3.8461   -1.2708 C.ar      1 <0>        -0.0588
      9 C9         -0.1417    2.6659   -0.9072 C.ar      1 <0>        -0.0842
     10 C10        -1.4909    2.6947   -0.5142 C.ar      1 <0>         0.0961
     11 N1         -1.8630    1.4003   -0.2199 N.pl3     1 <0>        -0.6047
     12 H1         -2.8911    1.1842    0.1060 H         1 <0>         0.4334
     13 C11        -0.8061    0.5536   -0.3999 C.2       1 <0>         0.0655
     14 C12         0.2770    1.2570   -0.8225 C.2       1 <0>        -0.0794
     15 C13         1.6155    0.7132   -1.1364 C.2       1 <0>        -0.2317
     16 C14         1.8380    0.0034   -2.3051 C.2       1 <0>         0.2166
     17 C15         3.1567   -0.5294   -2.6301 C.2       1 <0>         0.2795
     18 C16         4.1611   -0.5951   -1.6782 C.2       1 <0>        -0.3782
     19 C17         3.8691   -0.1006   -0.3175 C.2       1 <0>         0.3699
     20 O1          4.4909   -0.4801    0.6536 O.3       1 <0>        -0.4695
     21 C18         2.7501    0.9127   -0.2120 C.2       1 <0>         0.3815
     22 O2          2.7775    1.8260    0.5873 O.2       1 <0>        -0.4353
     23 C19         5.4911   -1.1456   -2.0159 C.2       1 <0>         0.0021
     24 C20         5.9174   -2.5498   -1.8975 C.ar      1 <0>        -0.0893
     25 C21         5.2844   -3.7214   -1.4855 C.ar      1 <0>        -0.0524
     26 C22         5.9697   -4.9043   -1.4981 C.ar      1 <0>        -0.1667
     27 C23         7.2901   -4.9484   -1.9229 C.ar      1 <0>        -0.1126
     28 C24         7.9323   -3.8025   -2.3391 C.ar      1 <0>        -0.1406
     29 C25         7.2524   -2.5884   -2.3344 C.ar      1 <0>         0.0869
     30 N2          7.6110   -1.3039   -2.6821 N.pl3     1 <0>        -0.6034
     31 H2          8.6262   -1.0973   -3.0518 H         1 <0>         0.4244
     32 C26         6.5597   -0.4529   -2.4901 C.2       1 <0>         0.0823
     33 C27         6.5814    1.0289   -2.7634 C.3       1 <0>         0.0413
     34 C28         7.9616    1.4307   -3.2875 C.3       1 <0>        -0.1506
     35 C29         5.5191    1.3702   -3.8103 C.3       1 <0>        -0.1335
     36 C30         6.2901    1.7790   -1.4892 C.2       1 <0>        -0.1176
     37 C31         7.1713    2.6206   -1.0084 C.2       1 <0>        -0.2181
     38 O3          3.4029   -0.9740   -3.8865 O.2       1 <0>        -0.6443
     39 O4          0.8096   -0.2001   -3.1640 O.3       1 <0>        -0.4845
     40 C32        -4.5191    5.0838    3.4823 C.3       1 <0>        -0.1170
     41 H3         -5.3154    6.9426    1.7839 H         1 <0>         0.0579
     42 H4         -5.5575    5.8091    0.4115 H         1 <0>         0.0649
     43 H5         -3.9878    6.6604    0.6072 H         1 <0>         0.0677
     44 H6         -3.2446    3.2667    2.0536 H         1 <0>         0.1081
     45 H7         -4.1277    3.0442   -0.4149 H         1 <0>         0.0702
     46 H8         -4.0994    4.8370   -0.5226 H         1 <0>         0.0806
     47 H9         -2.0492    6.0074   -0.8379 H         1 <0>         0.1155
     48 H10         0.3121    5.9539   -1.5244 H         1 <0>         0.1168
     49 H11         1.5409    3.8265   -1.5730 H         1 <0>         0.1169
     50 H12        -0.8293   -0.5135   -0.2355 H         1 <0>         0.1655
     51 H13         4.2571   -3.6940   -1.1534 H         1 <0>         0.1130
     52 H14         5.4801   -5.8111   -1.1748 H         1 <0>         0.1108
     53 H15         7.8195   -5.8897   -1.9269 H         1 <0>         0.1128
     54 H16         8.9600   -3.8467   -2.6684 H         1 <0>         0.1083
     55 H17         7.9774    2.5123   -3.4870 H         1 <0>         0.0645
     56 H18         8.1743    0.8832   -4.2175 H         1 <0>         0.0559
     57 H19         8.7253    1.1855   -2.5348 H         1 <0>         0.0558
     58 H20         5.5351    2.4519   -4.0097 H         1 <0>         0.0459
     59 H21         4.5268    1.0814   -3.4334 H         1 <0>         0.0842
     60 H22         5.7317    0.8227   -4.7404 H         1 <0>         0.0550
     61 H23         5.3374    1.6198   -0.9629 H         1 <0>         0.1121
     62 H24         6.9586    3.1681   -0.0783 H         1 <0>         0.0958
     63 H25         8.1240    2.7798   -1.5347 H         1 <0>         0.0998
     64 H26        -4.0827    4.1770    3.9264 H         1 <0>         0.0596
     65 H27        -5.5952    5.1210    3.7074 H         1 <0>         0.0637
     66 H28        -4.0255    5.9722    3.9031 H         1 <0>         0.0632
     67 H29         0.9737   -0.7622   -4.0952 H         1 <0>         0.4398
@<TRIPOS>BOND
     1    1    2 1
     2    1   41 1
     3    1   42 1
     4    1   43 1
     5    2    3 2
     6    2   40 1
     7    3    4 1
     8    3   44 1
     9    4    5 1
    10    4   45 1
    11    4   46 1
    12    5   10 ar
    13    5    6 ar
    14    6    7 ar
    15    6   47 1
    16    7    8 ar
    17    7   48 1
    18    8    9 ar
    19    8   49 1
    20    9   14 1
    21    9   10 ar
    22   10   11 1
    23   11   12 1
    24   11   13 1
    25   13   14 2
    26   13   50 1
    27   14   15 1
    28   15   21 1
    29   15   16 2
    30   16   39 1
    31   16   17 1
    32   17   38 2
    33   17   18 1
    34   18   19 2
    35   18   23 1
    36   19   20 1
    37   19   21 1
    38   21   22 2
    39   23   32 2
    40   23   24 1
    41   24   29 ar
    42   24   25 ar
    43   25   26 ar
    44   25   51 1
    45   26   27 ar
    46   26   52 1
    47   27   28 ar
    48   27   53 1
    49   28   29 ar
    50   28   54 1
    51   29   30 1
    52   30   31 1
    53   30   32 1
    54   32   33 1
    55   33   34 1
    56   33   35 1
    57   33   36 1
    58   34   55 1
    59   34   56 1
    60   34   57 1
    61   35   58 1
    62   35   59 1
    63   35   60 1
    64   36   37 2
    65   36   61 1
    66   37   62 1
    67   37   63 1
    68   39   67 1
    69   40   64 1
    70   40   65 1
    71   40   66 1
@<TRIPOS>MOLECULE
ZINC00582590
   54    56     0     0     0
SMALL
USER_CHARGES

@<TRIPOS>ATOM
      1 C1          0.3210   -0.2542   -0.2950 C.3       1 <0>        -0.1471
      2 C2         -0.6989    0.1485    0.7720 C.3       1 <0>        -0.0980
      3 C3         -0.9526    1.6552    0.6922 C.3       1 <0>        -0.1473
      4 C4         -2.0102   -0.6029    0.5335 C.3       1 <0>         0.1711
      5 H1         -2.4152   -0.3269   -0.4401 H         1 <0>         0.1082
      6 C5         -3.0151   -0.2346    1.6269 C.3       1 <0>         0.0616
      7 O1         -2.4404   -0.4943    2.9092 O.3       1 <0>        -0.5710
      8 N1         -1.7592   -2.0458    0.5668 N.pl3     1 <0>        -0.6786
      9 C6         -2.6062   -2.9119   -0.1051 C.ar      1 <0>         0.6293
     10 N2         -3.6349   -2.4098   -0.7763 N.ar      1 <0>        -0.6062
     11 C7         -4.4751   -3.1988   -1.4363 C.ar      1 <0>         0.5376
     12 C8         -4.2539   -4.5867   -1.4114 C.ar      1 <0>        -0.1535
     13 C9         -3.1523   -5.0726   -0.6878 C.ar      1 <0>         0.3509
     14 N3         -2.3585   -4.2107   -0.0601 N.ar      1 <0>        -0.6161
     15 N4         -3.1762   -6.4368   -0.8324 N.pl3     1 <0>        -0.4727
     16 C10        -4.2520   -6.7464   -1.6124 C.2       1 <0>         0.2292
     17 N5         -4.8825   -5.6599   -1.9508 N.2       1 <0>        -0.4526
     18 C11        -2.2219   -7.3866   -0.2551 C.3       1 <0>         0.1354
     19 C12        -2.9632   -8.3593    0.6643 C.3       1 <0>        -0.1619
     20 C13        -1.5372   -8.1679   -1.3784 C.3       1 <0>        -0.1618
     21 N6         -5.5464   -2.6655   -2.1337 N.pl3     1 <0>        -0.6280
     22 C14        -5.6825   -1.2864   -2.2512 C.ar      1 <0>         0.1488
     23 C15        -4.5525   -0.4885   -2.4166 C.ar      1 <0>        -0.1220
     24 C16        -4.6779    0.8657   -2.5326 C.ar      1 <0>        -0.0594
     25 C17        -5.9451    1.4590   -2.4857 C.ar      1 <0>        -0.1364
     26 C18        -7.0831    0.6589   -2.3195 C.ar      1 <0>         0.0117
     27 C19        -6.9477   -0.7079   -2.2089 C.ar      1 <0>        -0.1557
     28 Cl1        -8.6583    1.3861   -2.2597 Cl        1 <0>        -0.0441
     29 C20        -6.0813    2.9182   -2.6102 C.2       1 <0>         0.5168
     30 O2         -5.0862    3.6154   -2.7549 O.co2     1 <0>        -0.6900
     31 O3         -7.1896    3.4349   -2.5690 O.co2     1 <0>        -0.6630
     32 H2          1.2552    0.2811   -0.1251 H         1 <0>         0.0549
     33 H3          0.5018   -1.3276   -0.2382 H         1 <0>         0.0529
     34 H4         -0.0674   -0.0030   -1.2820 H         1 <0>         0.0568
     35 H5         -0.3105   -0.1028    1.7590 H         1 <0>         0.0821
     36 H6         -1.3236    1.9090   -0.3008 H         1 <0>         0.0629
     37 H7         -1.6929    1.9391    1.4402 H         1 <0>         0.0595
     38 H8         -0.0222    2.1908    0.8803 H         1 <0>         0.0576
     39 H9         -3.2659    0.8232    1.5485 H         1 <0>         0.0601
     40 H10        -3.9187   -0.8321    1.5060 H         1 <0>         0.0503
     41 H11        -3.0232   -0.2835    3.6514 H         1 <0>         0.3749
     42 H12        -0.9999   -2.3948    1.0594 H         1 <0>         0.4127
     43 H13        -4.5374   -7.7457   -1.9061 H         1 <0>         0.2129
     44 H14        -1.4715   -6.8438    0.3196 H         1 <0>         0.1056
     45 H15        -3.7136   -8.9021    0.0895 H         1 <0>         0.0647
     46 H16        -2.2531   -9.0660    1.0938 H         1 <0>         0.0772
     47 H17        -3.4510   -7.8027    1.4645 H         1 <0>         0.0630
     48 H18        -1.0091   -7.4750   -2.0333 H         1 <0>         0.0633
     49 H19        -0.8272   -8.8746   -0.9489 H         1 <0>         0.0771
     50 H20        -2.2876   -8.7108   -1.9531 H         1 <0>         0.0647
     51 H21        -6.2018   -3.2539   -2.5402 H         1 <0>         0.4250
     52 H22        -3.5736   -0.9432   -2.4528 H         1 <0>         0.1261
     53 H23        -3.7989    1.4800   -2.6603 H         1 <0>         0.1350
     54 H24        -7.8223   -1.3294   -2.0853 H         1 <0>         0.1255
@<TRIPOS>BOND
     1    1    2 1
     2    1   32 1
     3    1   33 1
     4    1   34 1
     5    2    3 1
     6    2    4 1
     7    2   35 1
     8    3   36 1
     9    3   37 1
    10    3   38 1
    11    4    5 1
    12    4    6 1
    13    4    8 1
    14    6    7 1
    15    6   39 1
    16    6   40 1
    17    7   41 1
    18    8    9 1
    19    8   42 1
    20    9   14 ar
    21    9   10 ar
    22   10   11 ar
    23   11   12 ar
    24   11   21 1
    25   12   17 1
    26   12   13 ar
    27   13   14 ar
    28   13   15 1
    29   15   16 1
    30   15   18 1
    31   16   17 2
    32   16   43 1
    33   18   19 1
    34   18   20 1
    35   18   44 1
    36   19   45 1
    37   19   46 1
    38   19   47 1
    39   20   48 1
    40   20   49 1
    41   20   50 1
    42   21   22 1
    43   21   51 1
    44   22   27 ar
    45   22   23 ar
    46   23   24 ar
    47   23   52 1
    48   24   25 ar
    49   24   53 1
    50   25   26 ar
    51   25   29 1
    52   26   27 ar
    53   26   28 1
    54   27   54 1
    55   29   30 2
    56   29   31 1
@<TRIPOS>MOLECULE
ZINC00582575
   52    54     0     0     0
SMALL
USER_CHARGES

@<TRIPOS>ATOM
      1 C1          0.4280   -0.4909    1.8513 C.3       1 <0>        -0.1353
      2 C2         -0.1373    0.3043    0.6728 C.3       1 <0>        -0.0998
      3 C3          0.1219    1.7960    0.8928 C.3       1 <0>        -0.1438
      4 C4          0.5445   -0.1465   -0.6206 C.3       1 <0>         0.1707
      5 H1          1.6116    0.0682   -0.5626 H         1 <0>         0.1020
      6 C5         -0.0633    0.6053   -1.8064 C.3       1 <0>         0.0638
      7 O1         -1.4784    0.4070   -1.8214 O.3       1 <0>        -0.5678
      8 N1          0.3453   -1.5866   -0.8014 N.pl3     1 <0>        -0.6843
      9 C6          1.2038   -2.4865   -0.1915 C.ar      1 <0>         0.6278
     10 N2          2.1960   -2.0197    0.5559 N.ar      1 <0>        -0.6013
     11 C7          3.0454   -2.8423    1.1611 C.ar      1 <0>         0.5297
     12 C8          2.8737   -4.2277    0.9949 C.ar      1 <0>        -0.1465
     13 C9          1.8096   -4.6754    0.1948 C.ar      1 <0>         0.3495
     14 N3          1.0032   -3.7820   -0.3699 N.ar      1 <0>        -0.6072
     15 N4          1.8776   -6.0456    0.2064 N.pl3     1 <0>        -0.4700
     16 C10         2.9424   -6.3955    0.9844 C.2       1 <0>         0.2415
     17 N5          3.5251   -5.3277    1.4458 N.2       1 <0>        -0.4572
     18 C11         0.9729   -6.9645   -0.4890 C.3       1 <0>         0.1340
     19 C12         1.7722   -7.8175   -1.4761 C.3       1 <0>        -0.1629
     20 C13         0.2864   -7.8742    0.5318 C.3       1 <0>        -0.1632
     21 N6          4.0779   -2.3459    1.9386 N.pl3     1 <0>        -0.6355
     22 C14         4.2903   -0.9669    2.0207 C.ar      1 <0>         0.1742
     23 C15         4.0436   -0.1577    0.9185 C.ar      1 <0>        -0.1100
     24 C16         4.2538    1.2045    1.0024 C.ar      1 <0>        -0.0884
     25 C17         4.7100    1.7642    2.1819 C.ar      1 <0>        -0.1271
     26 C18         4.9569    0.9617    3.2819 C.ar      1 <0>        -0.0129
     27 C19         4.7429   -0.4020    3.2058 C.ar      1 <0>        -0.1416
     28 Cl1         5.5294    1.6687    4.7604 Cl        1 <0>        -0.0669
     29 H2          0.2433   -1.5536    1.6946 H         1 <0>         0.0430
     30 H3          1.5012   -0.3158    1.9263 H         1 <0>         0.0707
     31 H4         -0.0578   -0.1697    2.7727 H         1 <0>         0.0403
     32 H5         -1.2106    0.1292    0.5978 H         1 <0>         0.0766
     33 H6          1.1945    1.9872    0.8596 H         1 <0>         0.0559
     34 H7         -0.3739    2.3703    0.1101 H         1 <0>         0.0538
     35 H8         -0.2703    2.0934    1.8654 H         1 <0>         0.0560
     36 H9          0.1535    1.6693   -1.7118 H         1 <0>         0.0658
     37 H10         0.3663    0.2281   -2.7345 H         1 <0>         0.0519
     38 H11        -1.9308    0.8561   -2.5484 H         1 <0>         0.3823
     39 H12        -0.3878   -1.9099   -1.3481 H         1 <0>         0.4179
     40 H13         3.2553   -7.4091    1.1873 H         1 <0>         0.2164
     41 H14         0.2195   -6.3923   -1.0303 H         1 <0>         0.1069
     42 H15         2.5256   -8.3897   -0.9348 H         1 <0>         0.0660
     43 H16         1.0991   -8.5011   -1.9935 H         1 <0>         0.0802
     44 H17         2.2613   -7.1693   -2.2033 H         1 <0>         0.0632
     45 H18        -0.2830   -7.2665    1.2351 H         1 <0>         0.0634
     46 H19        -0.3867   -8.5579    0.0144 H         1 <0>         0.0803
     47 H20         1.0399   -8.4464    1.0731 H         1 <0>         0.0660
     48 H21         4.6539   -2.9553    2.4263 H         1 <0>         0.4297
     49 H22         3.6881   -0.5939   -0.0033 H         1 <0>         0.1411
     50 H23         4.0621    1.8335    0.1457 H         1 <0>         0.1337
     51 H24         4.8742    2.8298    2.2445 H         1 <0>         0.1331
     52 H25         4.9317   -1.0277    4.0656 H         1 <0>         0.1347
@<TRIPOS>BOND
     1    1    2 1
     2    1   29 1
     3    1   30 1
     4    1   31 1
     5    2    3 1
     6    2    4 1
     7    2   32 1
     8    3   33 1
     9    3   34 1
    10    3   35 1
    11    4    5 1
    12    4    6 1
    13    4    8 1
    14    6    7 1
    15    6   36 1
    16    6   37 1
    17    7   38 1
    18    8    9 1
    19    8   39 1
    20    9   14 ar
    21    9   10 ar
    22   10   11 ar
    23   11   12 ar
    24   11   21 1
    25   12   17 1
    26   12   13 ar
    27   13   14 ar
    28   13   15 1
    29   15   16 1
    30   15   18 1
    31   16   17 2
    32   16   40 1
    33   18   19 1
    34   18   20 1
    35   18   41 1
    36   19   42 1
    37   19   43 1
    38   19   44 1
    39   20   45 1
    40   20   46 1
    41   20   47 1
    42   21   22 1
    43   21   48 1
    44   22   27 ar
    45   22   23 ar
    46   23   24 ar
    47   23   49 1
    48   24   25 ar
    49   24   50 1
    50   25   26 ar
    51   25   51 1
    52   26   27 ar
    53   26   28 1
    54   27   52 1
@<TRIPOS>MOLECULE
ZINC00016978
   36    38     0     0     0
SMALL
USER_CHARGES
N-(3-chloro-4-fluoro-phenyl)-6,7-dimethoxy-quinazolin-4-amine
@<TRIPOS>ATOM
      1 C1         -0.1077    7.8043   -0.3043 C.3       1 <0>         0.0213
      2 O1          1.1553    7.1532   -0.1529 O.3       1 <0>        -0.2997
      3 C2          1.1387    5.8027    0.0050 C.ar      1 <0>         0.1127
      4 C3         -0.0547    5.1381    0.0126 C.ar      1 <0>        -0.1498
      5 C4         -0.0730    3.7479    0.1756 C.ar      1 <0>        -0.1807
      6 C5          1.1438    3.0387    0.3316 C.ar      1 <0>         0.2015
      7 C6          2.3555    3.7401    0.3208 C.ar      1 <0>        -0.1836
      8 C7          2.3465    5.1079    0.1588 C.ar      1 <0>         0.1645
      9 O2          3.5207    5.7910    0.1475 O.3       1 <0>        -0.2967
     10 C8          4.7173    5.0267    0.3088 C.3       1 <0>         0.0198
     11 N1          1.0981    1.7061    0.4867 N.ar      1 <0>        -0.5395
     12 C9         -0.0526    1.0764    0.4931 C.ar      1 <0>         0.3425
     13 N2         -1.2130    1.6959    0.3460 N.ar      1 <0>        -0.5817
     14 C10        -1.2816    3.0117    0.1912 C.ar      1 <0>         0.4638
     15 N3         -2.4991    3.6452    0.0437 N.pl3     1 <0>        -0.6386
     16 C11        -3.6729    2.8905   -0.0548 C.ar      1 <0>         0.1586
     17 C12        -3.6501    1.6464   -0.6722 C.ar      1 <0>        -0.0781
     18 C13        -4.8088    0.9005   -0.7643 C.ar      1 <0>        -0.1189
     19 C14        -5.9954    1.3962   -0.2511 C.ar      1 <0>         0.0951
     20 C15        -6.0222    2.6392    0.3606 C.ar      1 <0>        -0.0539
     21 C16        -4.8635    3.3866    0.4595 C.ar      1 <0>        -0.1144
     22 Cl1        -7.5113    3.2580    1.0036 Cl        1 <0>        -0.0424
     23 F1         -7.1286    0.6668   -0.3466 F         1 <0>        -0.1253
     24 H1          0.0480    8.8767   -0.4213 H         1 <0>         0.1075
     25 H2         -0.6150    7.4125   -1.1859 H         1 <0>         0.0578
     26 H3         -0.7195    7.6202    0.5788 H         1 <0>         0.0576
     27 H4         -0.9797    5.6826   -0.1070 H         1 <0>         0.1396
     28 H5          3.2905    3.2125    0.4383 H         1 <0>         0.1568
     29 H6          4.6901    4.5069    1.2665 H         1 <0>         0.0625
     30 H7          4.7946    4.2980   -0.4981 H         1 <0>         0.0626
     31 H8          5.5801    5.6924    0.2811 H         1 <0>         0.1078
     32 H9         -0.0529    0.0039    0.6197 H         1 <0>         0.1993
     33 H10        -2.5408    4.6137    0.0082 H         1 <0>         0.4219
     34 H11        -2.7259    1.2610   -1.0767 H         1 <0>         0.1541
     35 H12        -4.7901   -0.0685   -1.2408 H         1 <0>         0.1508
     36 H13        -4.8843    4.3556    0.9360 H         1 <0>         0.1453
@<TRIPOS>BOND
     1    1    2 1
     2    1   24 1
     3    1   25 1
     4    1   26 1
     5    2    3 1
     6    3    8 ar
     7    3    4 ar
     8    4    5 ar
     9    4   27 1
    10    5   14 ar
    11    5    6 ar
    12    6    7 ar
    13    6   11 ar
    14    7    8 ar
    15    7   28 1
    16    8    9 1
    17    9   10 1
    18   10   29 1
    19   10   30 1
    20   10   31 1
    21   11   12 ar
    22   12   13 ar
    23   12   32 1
    24   13   14 ar
    25   14   15 1
    26   15   16 1
    27   15   33 1
    28   16   21 ar
    29   16   17 ar
    30   17   18 ar
    31   17   34 1
    32   18   19 ar
    33   18   35 1
    34   19   20 ar
    35   19   23 1
    36   20   21 ar
    37   20   22 1
    38   21   36 1
@<TRIPOS>MOLECULE
ZINC22935274
   60    64     0     0     0
SMALL
USER_CHARGES
5-(1,3-benzodioxol-5-yl)-N-[4-[(4-methylpiperazin-1-yl)methyl]phenyl]-2-oxo-1H-pyridine-3-carboxamide
@<TRIPOS>ATOM
      1 C1          5.4583   -2.6631   -5.0582 C.3       1 <0>        -0.0450
      2 N1          5.0314   -2.4533   -3.6684 N.4       1 <0>        -0.4025
      3 C2          5.9495   -1.5451   -2.9669 C.3       1 <0>         0.0005
      4 C3          5.5165   -1.4157   -1.5046 C.3       1 <0>         0.0236
      5 N2          4.1369   -0.9127   -1.4476 N.3       1 <0>        -0.5344
      6 C4          3.2188   -1.8209   -2.1491 C.3       1 <0>         0.0187
      7 C5          3.6518   -1.9503   -3.6114 C.3       1 <0>         0.0006
      8 C6          3.7100   -0.7029   -0.0577 C.3       1 <0>         0.1012
      9 C7          2.3972    0.0369   -0.0416 C.ar      1 <0>        -0.1204
     10 C8          1.2077   -0.6682   -0.0575 C.ar      1 <0>        -0.0978
     11 C9          0.0029    0.0067   -0.0423 C.ar      1 <0>        -0.1473
     12 C10        -0.0132    1.3952   -0.0112 C.ar      1 <0>         0.1708
     13 C11         1.1833    2.1003    0.0046 C.ar      1 <0>        -0.1267
     14 C12         2.3847    1.4193   -0.0106 C.ar      1 <0>        -0.0741
     15 N3         -1.2315    2.0818   -0.0016 N.am      1 <0>        -0.6801
     16 C13        -1.3531    3.2289    0.6955 C.2       1 <0>         0.5839
     17 O1         -0.3803    3.7156    1.2403 O.2       1 <0>        -0.5323
     18 C14        -2.6619    3.8922    0.7977 C.2       1 <0>        -0.2866
     19 C15        -2.7759    5.1396    1.4032 C.2       1 <0>         0.0902
     20 C16        -4.0435    5.7410    1.4810 C.2       1 <0>        -0.1684
     21 C17        -5.1423    5.0907    0.9608 C.2       1 <0>         0.1974
     22 N4         -5.0213    3.8823    0.3762 N.am      1 <0>        -0.6017
     23 H1         -5.9097    3.3760   -0.0293 H         1 <0>         0.4581
     24 C18        -3.8263    3.2720    0.2748 C.2       1 <0>         0.5380
     25 O2         -3.7446    2.1813   -0.2631 O.2       1 <0>        -0.5490
     26 C19        -4.1990    7.0711    2.1212 C.ar      1 <0>        -0.0342
     27 C20        -3.9421    7.2249    3.4820 C.ar      1 <0>        -0.0881
     28 C21        -4.0864    8.4620    4.0764 C.ar      1 <0>        -0.0967
     29 C22        -4.4875    9.5549    3.3232 C.ar      1 <0>         0.0422
     30 C23        -4.7462    9.4064    1.9619 C.ar      1 <0>         0.0357
     31 C24        -4.5965    8.1690    1.3614 C.ar      1 <0>        -0.0872
     32 O3         -5.1203   10.6174    1.4543 O.3       1 <0>        -0.3088
     33 C25        -5.4831   11.4169    2.5955 C.3       1 <0>         0.2084
     34 O4         -4.6998   10.8592    3.6671 O.3       1 <0>        -0.3018
     35 H2          6.4921   -3.0388   -5.0715 H         1 <0>         0.1241
     36 H3          5.4075   -1.7101   -5.6052 H         1 <0>         0.1195
     37 H4          4.7950   -3.3975   -5.5386 H         1 <0>         0.1240
     38 H5          6.9716   -1.9491   -3.0133 H         1 <0>         0.1356
     39 H6          5.9243   -0.5556   -3.4467 H         1 <0>         0.1345
     40 H7          5.5690   -2.4009   -1.0181 H         1 <0>         0.0605
     41 H8          6.1854   -0.7140   -0.9848 H         1 <0>         0.1237
     42 H9          3.2441   -2.8104   -1.6692 H         1 <0>         0.0599
     43 H10         2.1967   -1.4169   -2.1027 H         1 <0>         0.1280
     44 H11         3.6002   -0.9654   -4.0986 H         1 <0>         0.1343
     45 H12         2.9838   -2.6523   -4.1319 H         1 <0>         0.1350
     46 H13         3.5883   -1.6766    0.4394 H         1 <0>         0.0541
     47 H14         4.4703   -0.1122    0.4742 H         1 <0>         0.0958
     48 H15         1.2209   -1.7479   -0.0813 H         1 <0>         0.1194
     49 H16        -0.9257   -0.5446   -0.0543 H         1 <0>         0.1272
     50 H17         1.1742    3.1800    0.0285 H         1 <0>         0.1412
     51 H18         3.3154    1.9671    0.0016 H         1 <0>         0.1244
     52 H19        -2.0905    1.6857   -0.5630 H         1 <0>         0.4489
     53 H20        -1.9060    5.6366    1.8065 H         1 <0>         0.1555
     54 H21        -6.1147    5.5564    1.0231 H         1 <0>         0.1800
     55 H22        -3.6295    6.3758    4.0716 H         1 <0>         0.1420
     56 H23        -3.8861    8.5793    5.1312 H         1 <0>         0.1417
     57 H24        -4.7916    8.0534    0.3055 H         1 <0>         0.1378
     58 H25        -5.2319   12.4699    2.4003 H         1 <0>         0.1373
     59 H26        -6.5639   11.3257    2.7785 H         1 <0>         0.0896
     60 H27         5.0594   -3.4267   -3.1569 H         1 <0>         0.4399
@<TRIPOS>BOND
     1    1    2 1
     2    1   35 1
     3    1   36 1
     4    1   37 1
     5    2    7 1
     6    2    3 1
     7    2   60 1
     8    3    4 1
     9    3   38 1
    10    3   39 1
    11    4    5 1
    12    4   40 1
    13    4   41 1
    14    5    6 1
    15    5    8 1
    16    6    7 1
    17    6   42 1
    18    6   43 1
    19    7   44 1
    20    7   45 1
    21    8    9 1
    22    8   46 1
    23    8   47 1
    24    9   14 ar
    25    9   10 ar
    26   10   11 ar
    27   10   48 1
    28   11   12 ar
    29   11   49 1
    30   12   13 ar
    31   12   15 1
    32   13   14 ar
    33   13   50 1
    34   14   51 1
    35   15   16 am
    36   15   52 1
    37   16   17 2
    38   16   18 1
    39   18   24 1
    40   18   19 2
    41   19   20 1
    42   19   53 1
    43   20   21 2
    44   20   26 1
    45   21   22 1
    46   21   54 1
    47   22   23 1
    48   22   24 am
    49   24   25 2
    50   26   31 ar
    51   26   27 ar
    52   27   28 ar
    53   27   55 1
    54   28   29 ar
    55   28   56 1
    56   29   34 1
    57   29   30 ar
    58   30   31 ar
    59   30   32 1
    60   31   57 1
    61   32   33 1
    62   33   34 1
    63   33   58 1
    64   33   59 1
@<TRIPOS>MOLECULE
ZINC22935274
   60    64     0     0     0
SMALL
USER_CHARGES
5-(1,3-benzodioxol-5-yl)-N-[4-[(4-methylpiperazin-1-yl)methyl]phenyl]-2-oxo-1H-pyridine-3-carboxamide
@<TRIPOS>ATOM
      1 C1          5.4583   -2.6631   -5.0582 C.3       1 <0>         0.0173
      2 N1          5.0314   -2.4533   -3.6684 N.3       1 <0>        -0.5437
      3 C2          5.9495   -1.5451   -2.9669 C.3       1 <0>         0.0235
      4 C3          5.5165   -1.4157   -1.5046 C.3       1 <0>         0.0000
      5 N2          4.1369   -0.9127   -1.4476 N.4       1 <0>        -0.3995
      6 C4          3.2188   -1.8209   -2.1491 C.3       1 <0>        -0.0031
      7 C5          3.6518   -1.9503   -3.6114 C.3       1 <0>         0.0252
      8 C6          3.7100   -0.7029   -0.0577 C.3       1 <0>         0.0523
      9 C7          2.3972    0.0369   -0.0416 C.ar      1 <0>        -0.1893
     10 C8          1.2077   -0.6682   -0.0575 C.ar      1 <0>        -0.0731
     11 C9          0.0029    0.0067   -0.0423 C.ar      1 <0>        -0.1472
     12 C10        -0.0132    1.3952   -0.0112 C.ar      1 <0>         0.2000
     13 C11         1.1833    2.1003    0.0046 C.ar      1 <0>        -0.1293
     14 C12         2.3847    1.4193   -0.0106 C.ar      1 <0>        -0.0716
     15 N3         -1.2315    2.0818   -0.0016 N.am      1 <0>        -0.6823
     16 C13        -1.3531    3.2289    0.6955 C.2       1 <0>         0.5882
     17 O1         -0.3803    3.7156    1.2403 O.2       1 <0>        -0.5294
     18 C14        -2.6619    3.8922    0.7977 C.2       1 <0>        -0.2932
     19 C15        -2.7759    5.1396    1.4032 C.2       1 <0>         0.0952
     20 C16        -4.0435    5.7410    1.4810 C.2       1 <0>        -0.1684
     21 C17        -5.1423    5.0907    0.9608 C.2       1 <0>         0.2020
     22 N4         -5.0213    3.8823    0.3762 N.am      1 <0>        -0.6009
     23 H1         -5.9097    3.3760   -0.0293 H         1 <0>         0.4600
     24 C18        -3.8263    3.2720    0.2748 C.2       1 <0>         0.5392
     25 O2         -3.7446    2.1813   -0.2631 O.2       1 <0>        -0.5501
     26 C19        -4.1990    7.0711    2.1212 C.ar      1 <0>        -0.0366
     27 C20        -3.9421    7.2249    3.4820 C.ar      1 <0>        -0.0880
     28 C21        -4.0864    8.4620    4.0764 C.ar      1 <0>        -0.0968
     29 C22        -4.4875    9.5549    3.3232 C.ar      1 <0>         0.0436
     30 C23        -4.7462    9.4064    1.9619 C.ar      1 <0>         0.0363
     31 C24        -4.5965    8.1690    1.3614 C.ar      1 <0>        -0.0871
     32 O3         -5.1203   10.6174    1.4543 O.3       1 <0>        -0.3085
     33 C25        -5.4831   11.4169    2.5955 C.3       1 <0>         0.2083
     34 O4         -4.6998   10.8592    3.6671 O.3       1 <0>        -0.3014
     35 H2          6.4921   -3.0388   -5.0715 H         1 <0>         0.0838
     36 H3          5.4075   -1.7101   -5.6052 H         1 <0>         0.0391
     37 H4          4.7950   -3.3975   -5.5386 H         1 <0>         0.0841
     38 H5          6.9716   -1.9491   -3.0133 H         1 <0>         0.1230
     39 H6          5.9243   -0.5556   -3.4467 H         1 <0>         0.0599
     40 H7          5.5690   -2.4009   -1.0181 H         1 <0>         0.1351
     41 H8          6.1854   -0.7140   -0.9848 H         1 <0>         0.1361
     42 H9          3.2441   -2.8104   -1.6692 H         1 <0>         0.1338
     43 H10         2.1967   -1.4169   -2.1027 H         1 <0>         0.1364
     44 H11         3.6002   -0.9654   -4.0986 H         1 <0>         0.0595
     45 H12         2.9838   -2.6523   -4.1319 H         1 <0>         0.1220
     46 H13         3.5883   -1.6766    0.4394 H         1 <0>         0.1318
     47 H14         4.4703   -0.1122    0.4742 H         1 <0>         0.1358
     48 H15         1.2209   -1.7479   -0.0813 H         1 <0>         0.1321
     49 H16        -0.9257   -0.5446   -0.0543 H         1 <0>         0.1372
     50 H17         1.1742    3.1800    0.0285 H         1 <0>         0.1492
     51 H18         3.3154    1.9671    0.0016 H         1 <0>         0.1315
     52 H19        -2.0905    1.6857   -0.5630 H         1 <0>         0.4536
     53 H20        -1.9060    5.6366    1.8065 H         1 <0>         0.1561
     54 H21        -6.1147    5.5564    1.0231 H         1 <0>         0.1816
     55 H22        -3.6295    6.3758    4.0716 H         1 <0>         0.1417
     56 H23        -3.8861    8.5793    5.1312 H         1 <0>         0.1420
     57 H24        -4.7916    8.0534    0.3055 H         1 <0>         0.1380
     58 H25        -5.2319   12.4699    2.4003 H         1 <0>         0.1380
     59 H26        -6.5639   11.3257    2.7785 H         1 <0>         0.0902
     60 H27         4.1089    0.0607   -1.9592 H         1 <0>         0.4366
@<TRIPOS>BOND
     1    1    2 1
     2    1   35 1
     3    1   36 1
     4    1   37 1
     5    2    7 1
     6    2    3 1
     7    3    4 1
     8    3   38 1
     9    3   39 1
    10    4    5 1
    11    4   40 1
    12    4   41 1
    13    5    6 1
    14    5    8 1
    15    5   60 1
    16    6    7 1
    17    6   42 1
    18    6   43 1
    19    7   44 1
    20    7   45 1
    21    8    9 1
    22    8   46 1
    23    8   47 1
    24    9   14 ar
    25    9   10 ar
    26   10   11 ar
    27   10   48 1
    28   11   12 ar
    29   11   49 1
    30   12   13 ar
    31   12   15 1
    32   13   14 ar
    33   13   50 1
    34   14   51 1
    35   15   16 am
    36   15   52 1
    37   16   17 2
    38   16   18 1
    39   18   24 1
    40   18   19 2
    41   19   20 1
    42   19   53 1
    43   20   21 2
    44   20   26 1
    45   21   22 1
    46   21   54 1
    47   22   23 1
    48   22   24 am
    49   24   25 2
    50   26   31 ar
    51   26   27 ar
    52   27   28 ar
    53   27   55 1
    54   28   29 ar
    55   28   56 1
    56   29   34 1
    57   29   30 ar
    58   30   31 ar
    59   30   32 1
    60   31   57 1
    61   32   33 1
    62   33   34 1
    63   33   58 1
    64   33   59 1
@<TRIPOS>MOLECULE
ZINC22935274
   59    63     0     0     0
SMALL
USER_CHARGES
5-(1,3-benzodioxol-5-yl)-N-[4-[(4-methylpiperazin-1-yl)methyl]phenyl]-2-oxo-1H-pyridine-3-carboxamide
@<TRIPOS>ATOM
      1 C1          5.4583   -2.6631   -5.0582 C.3       1 <0>         0.0226
      2 N1          5.0314   -2.4533   -3.6684 N.3       1 <0>        -0.5460
      3 C2          5.9495   -1.5451   -2.9669 C.3       1 <0>         0.0551
      4 C3          5.5165   -1.4157   -1.5046 C.3       1 <0>         0.0553
      5 N2          4.1369   -0.9127   -1.4476 N.3       1 <0>        -0.5338
      6 C4          3.2188   -1.8209   -2.1491 C.3       1 <0>         0.0528
      7 C5          3.6518   -1.9503   -3.6114 C.3       1 <0>         0.0554
      8 C6          3.7100   -0.7029   -0.0577 C.3       1 <0>         0.0962
      9 C7          2.3972    0.0369   -0.0416 C.ar      1 <0>        -0.0980
     10 C8          1.2077   -0.6682   -0.0575 C.ar      1 <0>        -0.0957
     11 C9          0.0029    0.0067   -0.0423 C.ar      1 <0>        -0.1459
     12 C10        -0.0132    1.3952   -0.0112 C.ar      1 <0>         0.1543
     13 C11         1.1833    2.1003    0.0046 C.ar      1 <0>        -0.1261
     14 C12         2.3847    1.4193   -0.0106 C.ar      1 <0>        -0.0795
     15 N3         -1.2315    2.0818   -0.0016 N.am      1 <0>        -0.6756
     16 C13        -1.3531    3.2289    0.6955 C.2       1 <0>         0.5792
     17 O1         -0.3803    3.7156    1.2403 O.2       1 <0>        -0.5343
     18 C14        -2.6619    3.8922    0.7977 C.2       1 <0>        -0.2776
     19 C15        -2.7759    5.1396    1.4032 C.2       1 <0>         0.0842
     20 C16        -4.0435    5.7410    1.4810 C.2       1 <0>        -0.1704
     21 C17        -5.1423    5.0907    0.9608 C.2       1 <0>         0.1928
     22 N4         -5.0213    3.8823    0.3762 N.am      1 <0>        -0.6027
     23 H1         -5.9097    3.3760   -0.0293 H         1 <0>         0.4562
     24 C18        -3.8263    3.2720    0.2748 C.2       1 <0>         0.5362
     25 O2         -3.7446    2.1813   -0.2631 O.2       1 <0>        -0.5439
     26 C19        -4.1990    7.0711    2.1212 C.ar      1 <0>        -0.0293
     27 C20        -3.9421    7.2249    3.4820 C.ar      1 <0>        -0.0884
     28 C21        -4.0864    8.4620    4.0764 C.ar      1 <0>        -0.0964
     29 C22        -4.4875    9.5549    3.3232 C.ar      1 <0>         0.0392
     30 C23        -4.7462    9.4064    1.9619 C.ar      1 <0>         0.0348
     31 C24        -4.5965    8.1690    1.3614 C.ar      1 <0>        -0.0872
     32 O3         -5.1203   10.6174    1.4543 O.3       1 <0>        -0.3092
     33 C25        -5.4831   11.4169    2.5955 C.3       1 <0>         0.2087
     34 O4         -4.6998   10.8592    3.6671 O.3       1 <0>        -0.3029
     35 H2          6.4921   -3.0388   -5.0715 H         1 <0>         0.0692
     36 H3          5.4075   -1.7101   -5.6052 H         1 <0>         0.0266
     37 H4          4.7950   -3.3975   -5.5386 H         1 <0>         0.0693
     38 H5          6.9716   -1.9491   -3.0133 H         1 <0>         0.0803
     39 H6          5.9243   -0.5556   -3.4467 H         1 <0>         0.0430
     40 H7          5.5690   -2.4009   -1.0181 H         1 <0>         0.0433
     41 H8          6.1854   -0.7140   -0.9848 H         1 <0>         0.0814
     42 H9          3.2441   -2.8104   -1.6692 H         1 <0>         0.0415
     43 H10         2.1967   -1.4169   -2.1027 H         1 <0>         0.0862
     44 H11         3.6002   -0.9654   -4.0986 H         1 <0>         0.0426
     45 H12         2.9838   -2.6523   -4.1319 H         1 <0>         0.0793
     46 H13         3.5883   -1.6766    0.4394 H         1 <0>         0.0436
     47 H14         4.4703   -0.1122    0.4742 H         1 <0>         0.0839
     48 H15         1.2209   -1.7479   -0.0813 H         1 <0>         0.1208
     49 H16        -0.9257   -0.5446   -0.0543 H         1 <0>         0.1237
     50 H17         1.1742    3.1800    0.0285 H         1 <0>         0.1373
     51 H18         3.3154    1.9671    0.0016 H         1 <0>         0.1232
     52 H19        -2.0905    1.6857   -0.5630 H         1 <0>         0.4465
     53 H20        -1.9060    5.6366    1.8065 H         1 <0>         0.1549
     54 H21        -6.1147    5.5564    1.0231 H         1 <0>         0.1776
     55 H22        -3.6295    6.3758    4.0716 H         1 <0>         0.1426
     56 H23        -3.8861    8.5793    5.1312 H         1 <0>         0.1409
     57 H24        -4.7916    8.0534    0.3055 H         1 <0>         0.1380
     58 H25        -5.2319   12.4699    2.4003 H         1 <0>         0.1358
     59 H26        -6.5639   11.3257    2.7785 H         1 <0>         0.0880
@<TRIPOS>BOND
     1    1    2 1
     2    1   35 1
     3    1   36 1
     4    1   37 1
     5    2    7 1
     6    2    3 1
     7    3    4 1
     8    3   38 1
     9    3   39 1
    10    4    5 1
    11    4   40 1
    12    4   41 1
    13    5    6 1
    14    5    8 1
    15    6    7 1
    16    6   42 1
    17    6   43 1
    18    7   44 1
    19    7   45 1
    20    8    9 1
    21    8   46 1
    22    8   47 1
    23    9   14 ar
    24    9   10 ar
    25   10   11 ar
    26   10   48 1
    27   11   12 ar
    28   11   49 1
    29   12   13 ar
    30   12   15 1
    31   13   14 ar
    32   13   50 1
    33   14   51 1
    34   15   16 am
    35   15   52 1
    36   16   17 2
    37   16   18 1
    38   18   24 1
    39   18   19 2
    40   19   20 1
    41   19   53 1
    42   20   21 2
    43   20   26 1
    44   21   22 1
    45   21   54 1
    46   22   23 1
    47   22   24 am
    48   24   25 2
    49   26   31 ar
    50   26   27 ar
    51   27   28 ar
    52   27   55 1
    53   28   29 ar
    54   28   56 1
    55   29   34 1
    56   29   30 ar
    57   30   31 ar
    58   30   32 1
    59   31   57 1
    60   32   33 1
    61   33   34 1
    62   33   58 1
    63   33   59 1
@<TRIPOS>MOLECULE
ZINC06718468
   60    64     0     0     0
SMALL
USER_CHARGES

@<TRIPOS>ATOM
      1 C1         -0.0958    2.0449    0.1864 C.3       1 <0>        -0.1162
      2 C2         -0.1158    0.5568   -0.0503 C.ar      1 <0>        -0.0263
      3 C3         -0.1580    0.0634   -1.3375 C.ar      1 <0>        -0.1780
      4 C4         -0.1767   -1.3108   -1.5650 C.ar      1 <0>         0.2192
      5 C5         -0.1528   -2.1955   -0.5026 C.ar      1 <0>        -0.1734
      6 C6         -0.1095   -1.7058    0.8062 C.ar      1 <0>         0.1181
      7 C7         -0.0861   -0.3174    1.0258 C.ar      1 <0>        -0.0017
      8 N1         -0.0386   -0.1439    2.3999 N.pl3     1 <0>        -0.5817
      9 H1         -0.0164    0.7025    2.8731 H         1 <0>         0.4308
     10 C8         -0.0293   -1.3922    2.9648 C.2       1 <0>         0.3944
     11 N2         -0.0785   -2.3058    2.0220 N.2       1 <0>        -0.5393
     12 C9          0.0172   -1.6677    4.4100 C.2       1 <0>        -0.3013
     13 C10         0.1458   -2.9816    4.8829 C.2       1 <0>         0.3580
     14 C11         0.1866   -3.2003    6.2729 C.2       1 <0>        -0.2732
     15 C12         0.1024   -2.1542    7.1231 C.2       1 <0>         0.1851
     16 N3         -0.0227   -0.8808    6.6652 N.am      1 <0>        -0.6204
     17 H2         -0.0812   -0.1505    7.3008 H         1 <0>         0.4194
     18 C13        -0.0611   -0.6128    5.3467 C.2       1 <0>         0.5565
     19 O1         -0.1683    0.5394    4.9609 O.2       1 <0>        -0.5654
     20 N4          0.2302   -4.0395    4.0028 N.pl3     1 <0>        -0.6842
     21 C14         0.2417   -5.4142    4.5090 C.3       1 <0>         0.0775
     22 C15         0.3412   -6.3894    3.3342 C.3       1 <0>         0.1422
     23 H3         -0.4665   -6.1925    2.6292 H         1 <0>         0.1200
     24 C16         0.2295   -7.8031    3.8440 C.ar      1 <0>        -0.1062
     25 C17         1.3276   -8.4216    4.4126 C.ar      1 <0>        -0.1060
     26 C18         1.2260   -9.7182    4.8804 C.ar      1 <0>        -0.1011
     27 C19         0.0263  -10.3976    4.7797 C.ar      1 <0>        -0.1057
     28 C20        -1.0727   -9.7794    4.2110 C.ar      1 <0>        -0.0314
     29 C21        -0.9720   -8.4791    3.7483 C.ar      1 <0>        -0.0968
     30 Cl1        -2.5797  -10.6319    4.0842 Cl        1 <0>        -0.0630
     31 O2          1.5988   -6.2177    2.6778 O.3       1 <0>        -0.5410
     32 N5         -0.2205   -1.7985   -2.8758 N.pl3     1 <0>        -0.6339
     33 C22        -0.3691   -0.8847   -4.0195 C.3       1 <0>         0.0887
     34 C23         0.7218   -1.2127   -5.0453 C.3       1 <0>         0.0454
     35 O3          0.6848   -2.6109   -5.3409 O.3       1 <0>        -0.3803
     36 C24         0.9599   -3.4537   -4.2194 C.3       1 <0>         0.0459
     37 C25        -0.1131   -3.2400   -3.1516 C.3       1 <0>         0.0883
     38 H4          0.9360    2.3955    0.2083 H         1 <0>         0.0724
     39 H5         -0.6334    2.5480   -0.6174 H         1 <0>         0.0719
     40 H6         -0.5756    2.2677    1.1394 H         1 <0>         0.0613
     41 H7         -0.1770    0.7464   -2.1739 H         1 <0>         0.1288
     42 H8         -0.1677   -3.2602   -0.6830 H         1 <0>         0.1260
     43 H9          0.2849   -4.2040    6.6593 H         1 <0>         0.1530
     44 H10         0.1348   -2.3332    8.1876 H         1 <0>         0.1731
     45 H11         0.2820   -3.8736    3.0485 H         1 <0>         0.4349
     46 H12         1.0985   -5.5514    5.1686 H         1 <0>         0.0768
     47 H13        -0.6775   -5.6052    5.0628 H         1 <0>         0.0840
     48 H14         2.2653   -7.8915    4.4909 H         1 <0>         0.1287
     49 H15         2.0841  -10.2008    5.3245 H         1 <0>         0.1363
     50 H16        -0.0528  -11.4110    5.1447 H         1 <0>         0.1362
     51 H17        -1.8309   -7.9944    3.3082 H         1 <0>         0.1367
     52 H18         2.3644   -6.3772    3.2466 H         1 <0>         0.3755
     53 H19        -1.3514   -1.0198   -4.4722 H         1 <0>         0.0694
     54 H20        -0.2583    0.1461   -3.6826 H         1 <0>         0.0918
     55 H21         0.5466   -0.6429   -5.9579 H         1 <0>         0.1036
     56 H22         1.6976   -0.9530   -4.6348 H         1 <0>         0.0554
     57 H23         0.9560   -4.4962   -4.5377 H         1 <0>         0.1043
     58 H24         1.9365   -3.2022   -3.8059 H         1 <0>         0.0552
     59 H25         0.1671   -3.7683   -2.2403 H         1 <0>         0.0936
     60 H26        -1.0692   -3.6163   -3.5155 H         1 <0>         0.0686
@<TRIPOS>BOND
     1    1    2 1
     2    1   38 1
     3    1   39 1
     4    1   40 1
     5    2    7 ar
     6    2    3 ar
     7    3    4 ar
     8    3   41 1
     9    4    5 ar
    10    4   32 1
    11    5    6 ar
    12    5   42 1
    13    6   11 1
    14    6    7 ar
    15    7    8 1
    16    8    9 1
    17    8   10 1
    18   10   11 2
    19   10   12 1
    20   12   18 1
    21   12   13 2
    22   13   14 1
    23   13   20 1
    24   14   15 2
    25   14   43 1
    26   15   16 1
    27   15   44 1
    28   16   17 1
    29   16   18 am
    30   18   19 2
    31   20   21 1
    32   20   45 1
    33   21   22 1
    34   21   46 1
    35   21   47 1
    36   22   23 1
    37   22   24 1
    38   22   31 1
    39   24   29 ar
    40   24   25 ar
    41   25   26 ar
    42   25   48 1
    43   26   27 ar
    44   26   49 1
    45   27   28 ar
    46   27   50 1
    47   28   29 ar
    48   28   30 1
    49   29   51 1
    50   31   52 1
    51   32   37 1
    52   32   33 1
    53   33   34 1
    54   33   53 1
    55   33   54 1
    56   34   35 1
    57   34   55 1
    58   34   56 1
    59   35   36 1
    60   36   37 1
    61   36   57 1
    62   36   58 1
    63   37   59 1
    64   37   60 1
@<TRIPOS>MOLECULE
ZINC06718468
   60    64     0     0     0
SMALL
USER_CHARGES

@<TRIPOS>ATOM
      1 C1          0.1861    0.9402    0.2320 C.3       1 <0>        -0.1099
      2 C2          0.1885   -0.5661    0.2760 C.ar      1 <0>         0.0105
      3 C3          0.2130   -1.2834   -0.8862 C.ar      1 <0>        -0.1934
      4 C4          0.2155   -2.6762   -0.8597 C.ar      1 <0>         0.2379
      5 C5          0.1931   -3.3524    0.3500 C.ar      1 <0>        -0.2114
      6 C6          0.1681   -2.6355    1.5366 C.ar      1 <0>         0.1009
      7 C7          0.1715   -1.2297    1.5066 C.ar      1 <0>         0.0140
      8 N1          0.1514   -0.8003    2.7941 N.2       1 <0>        -0.5153
      9 C8          0.1414   -1.8338    3.6037 C.2       1 <0>         0.3723
     10 N2          0.1421   -2.9944    2.8723 N.pl3     1 <0>        -0.5878
     11 H1          0.1365   -3.8977    3.2257 H         1 <0>         0.4313
     12 C9          0.1201   -1.7586    5.0739 C.2       1 <0>        -0.2944
     13 C10        -0.0136   -0.5236    5.7239 C.2       1 <0>         0.3534
     14 C11        -0.0298   -0.4970    7.1313 C.2       1 <0>        -0.2716
     15 C12         0.0823   -1.6480    7.8290 C.2       1 <0>         0.1820
     16 N3          0.2123   -2.8452    7.1992 N.am      1 <0>        -0.6203
     17 H2          0.2910   -3.6547    7.7279 H         1 <0>         0.4189
     18 C13         0.2280   -2.9303    5.8560 C.2       1 <0>         0.5553
     19 O1          0.3405   -4.0175    5.3144 O.2       1 <0>        -0.5664
     20 N4         -0.1266    0.6435    4.9980 N.pl3     1 <0>        -0.6861
     21 C14        -0.1433    1.9361    5.6873 C.3       1 <0>         0.0780
     22 C15        -0.2761    3.0609    4.6587 C.3       1 <0>         0.1422
     23 H3          0.5199    2.9729    3.9193 H         1 <0>         0.1199
     24 C16        -0.1701    4.3933    5.3548 C.ar      1 <0>        -0.1060
     25 C17        -1.2638    4.9136    6.0217 C.ar      1 <0>        -0.1059
     26 C18        -1.1674    6.1356    6.6604 C.ar      1 <0>        -0.1011
     27 C19         0.0226    6.8384    6.6324 C.ar      1 <0>        -0.1059
     28 C20         1.1172    6.3184    5.9653 C.ar      1 <0>        -0.0315
     29 C21         1.0218    5.0921    5.3312 C.ar      1 <0>        -0.0968
     30 Cl1         2.6119    7.2005    5.9296 Cl        1 <0>        -0.0631
     31 O2         -1.5442    2.9634    4.0072 O.3       1 <0>        -0.5411
     32 N5          0.2402   -3.3953   -2.0590 N.pl3     1 <0>        -0.6312
     33 C22         0.3654   -4.8615   -2.0606 C.3       1 <0>         0.0865
     34 C23        -0.7404   -5.4402   -2.9506 C.3       1 <0>         0.0458
     35 O3         -0.7012   -4.7983   -4.2274 O.3       1 <0>        -0.3797
     36 C24        -0.9535   -3.3918   -4.1834 C.3       1 <0>         0.0453
     37 C25         0.1357   -2.7087   -3.3563 C.3       1 <0>         0.0882
     38 H4          1.2131    1.3055    0.2367 H         1 <0>         0.0703
     39 H5         -0.3149    1.2764   -0.6758 H         1 <0>         0.0645
     40 H6         -0.3416    1.3283    1.1032 H         1 <0>         0.0739
     41 H7          0.2303   -0.7662   -1.8342 H         1 <0>         0.1282
     42 H8          0.1946   -4.4322    0.3682 H         1 <0>         0.1205
     43 H9         -0.1314    0.4433    7.6528 H         1 <0>         0.1523
     44 H10         0.0686   -1.6162    8.9085 H         1 <0>         0.1725
     45 H11        -0.1949    0.6085    4.0311 H         1 <0>         0.4342
     46 H12        -0.9888    1.9705    6.3745 H         1 <0>         0.0761
     47 H13         0.7842    2.0621    6.2458 H         1 <0>         0.0833
     48 H14        -2.1940    4.3651    6.0433 H         1 <0>         0.1287
     49 H15        -2.0220    6.5415    7.1812 H         1 <0>         0.1361
     50 H16         0.0976    7.7936    7.1308 H         1 <0>         0.1361
     51 H17         1.8773    4.6836    4.8140 H         1 <0>         0.1367
     52 H18        -2.3004    3.0335    4.6059 H         1 <0>         0.3756
     53 H19         1.3408   -5.1463   -2.4550 H         1 <0>         0.0707
     54 H20         0.2549   -5.2405   -1.0446 H         1 <0>         0.0921
     55 H21        -0.5831   -6.5114   -3.0767 H         1 <0>         0.1043
     56 H22        -1.7107   -5.2663   -2.4854 H         1 <0>         0.0557
     57 H23        -0.9495   -2.9893   -5.1964 H         1 <0>         0.1053
     58 H24        -1.9246   -3.2104   -3.7226 H         1 <0>         0.0555
     59 H25        -0.1269   -1.6627   -3.1979 H         1 <0>         0.0936
     60 H26         1.0876   -2.7730   -3.8834 H         1 <0>         0.0702
@<TRIPOS>BOND
     1    1    2 1
     2    1   38 1
     3    1   39 1
     4    1   40 1
     5    2    7 ar
     6    2    3 ar
     7    3    4 ar
     8    3   41 1
     9    4    5 ar
    10    4   32 1
    11    5    6 ar
    12    5   42 1
    13    6   10 1
    14    6    7 ar
    15    7    8 1
    16    8    9 2
    17    9   10 1
    18    9   12 1
    19   10   11 1
    20   12   18 1
    21   12   13 2
    22   13   14 1
    23   13   20 1
    24   14   15 2
    25   14   43 1
    26   15   16 1
    27   15   44 1
    28   16   17 1
    29   16   18 am
    30   18   19 2
    31   20   21 1
    32   20   45 1
    33   21   22 1
    34   21   46 1
    35   21   47 1
    36   22   23 1
    37   22   24 1
    38   22   31 1
    39   24   29 ar
    40   24   25 ar
    41   25   26 ar
    42   25   48 1
    43   26   27 ar
    44   26   49 1
    45   27   28 ar
    46   27   50 1
    47   28   29 ar
    48   28   30 1
    49   29   51 1
    50   31   52 1
    51   32   37 1
    52   32   33 1
    53   33   34 1
    54   33   53 1
    55   33   54 1
    56   34   35 1
    57   34   55 1
    58   34   56 1
    59   35   36 1
    60   36   37 1
    61   36   57 1
    62   36   58 1
    63   37   59 1
    64   37   60 1
@<TRIPOS>MOLECULE
ZINC20148986
   58    61     0     0     0
SMALL
USER_CHARGES
2-[[5-chloro-2-[(2-methoxy-4-morpholino-phenyl)amino]pyrimidin-4-yl]amino]-N-methyl-benzamide
@<TRIPOS>ATOM
      1 C1          2.0100   -7.4042   -2.0403 C.3       1 <0>         0.0865
      2 N1          2.9989   -6.3692   -1.7292 N.am      1 <0>        -0.7287
      3 C2          2.5960   -5.1704   -1.2634 C.2       1 <0>         0.5614
      4 O1          1.4116   -4.9479   -1.1013 O.2       1 <0>        -0.5382
      5 C3          3.5915   -4.1285   -0.9502 C.ar      1 <0>        -0.1752
      6 C4          4.9406   -4.3325   -1.2505 C.ar      1 <0>        -0.0656
      7 C5          5.8658   -3.3554   -0.9551 C.ar      1 <0>        -0.1436
      8 C6          5.4658   -2.1690   -0.3606 C.ar      1 <0>        -0.0693
      9 C7          4.1364   -1.9505   -0.0627 C.ar      1 <0>        -0.1233
     10 C8          3.1896   -2.9262   -0.3483 C.ar      1 <0>         0.2206
     11 N2          1.8501   -2.7103   -0.0447 N.pl3     1 <0>        -0.6268
     12 C9          1.3032   -1.4425   -0.1819 C.ar      1 <0>         0.4842
     13 C10        -0.0058   -1.1861    0.2348 C.ar      1 <0>        -0.2479
     14 C11        -0.5084    0.0918    0.0790 C.ar      1 <0>         0.2323
     15 N3          0.2597    1.0294   -0.4569 N.ar      1 <0>        -0.5756
     16 C12         1.4974    0.7575   -0.8429 C.ar      1 <0>         0.5995
     17 N4          2.0167   -0.4542   -0.7110 N.ar      1 <0>        -0.5959
     18 N5          2.2679    1.7651   -1.3989 N.pl3     1 <0>        -0.6186
     19 C13         1.7625    3.0719   -1.4786 C.ar      1 <0>         0.1118
     20 C14         0.8267    3.5115   -0.5541 C.ar      1 <0>        -0.0569
     21 C15         0.3293    4.7984   -0.6313 C.ar      1 <0>        -0.1822
     22 C16         0.7651    5.6542   -1.6344 C.ar      1 <0>         0.1303
     23 C17         1.7012    5.2176   -2.5623 C.ar      1 <0>        -0.2072
     24 C18         2.2048    3.9300   -2.4827 C.ar      1 <0>         0.1247
     25 O2          3.1265    3.5024   -3.3866 O.3       1 <0>        -0.3177
     26 C19         3.5341    4.4360   -4.3887 C.3       1 <0>         0.0294
     27 N6          0.2604    6.9571   -1.7103 N.pl3     1 <0>        -0.4873
     28 C20         1.3471    7.9464   -1.6703 C.3       1 <0>         0.0210
     29 C21         0.7567    9.3514   -1.8157 C.3       1 <0>         0.0614
     30 O3         -0.2094    9.5663   -0.7833 O.3       1 <0>        -0.3826
     31 C22        -1.2825    8.6209   -0.7931 C.3       1 <0>         0.0613
     32 C23        -0.7127    7.2085   -0.6373 C.3       1 <0>         0.0130
     33 Cl1        -0.9784   -2.4439    0.9315 Cl        1 <0>        -0.0431
     34 H1          2.5200   -8.2972   -2.4015 H         1 <0>         0.0781
     35 H2          1.4439   -7.6478   -1.1412 H         1 <0>         0.0628
     36 H3          1.3302   -7.0378   -2.8095 H         1 <0>         0.0623
     37 H4          3.9438   -6.5466   -1.8584 H         1 <0>         0.4025
     38 H5          5.2578   -5.2549   -1.7141 H         1 <0>         0.1288
     39 H6          6.9083   -3.5146   -1.1882 H         1 <0>         0.1311
     40 H7          6.1986   -1.4090   -0.1332 H         1 <0>         0.1316
     41 H8          3.8322   -1.0216    0.3967 H         1 <0>         0.1387
     42 H9          1.2978   -3.4460    0.2631 H         1 <0>         0.4356
     43 H10        -1.5176    0.3227    0.3864 H         1 <0>         0.1803
     44 H11         3.1568    1.5676   -1.7332 H         1 <0>         0.4270
     45 H12         0.4867    2.8476    0.2269 H         1 <0>         0.1570
     46 H13        -0.3991    5.1392    0.0896 H         1 <0>         0.1320
     47 H14         2.0401    5.8832   -3.3424 H         1 <0>         0.1347
     48 H15         2.6676    4.7405   -4.9757 H         1 <0>         0.0573
     49 H16         3.9756    5.3111   -3.9119 H         1 <0>         0.0558
     50 H17         4.2701    3.9686   -5.0429 H         1 <0>         0.1013
     51 H18         1.8742    7.8697   -0.7193 H         1 <0>         0.0548
     52 H19         2.0419    7.7571   -2.4885 H         1 <0>         0.0905
     53 H20         0.2757    9.4451   -2.7894 H         1 <0>         0.0622
     54 H21         1.5520   10.0918   -1.7299 H         1 <0>         0.1032
     55 H22        -1.8227    8.6934   -1.7370 H         1 <0>         0.0621
     56 H23        -1.9622    8.8323    0.0324 H         1 <0>         0.1040
     57 H24        -1.5215    6.4806   -0.7015 H         1 <0>         0.0964
     58 H25        -0.2185    7.1201    0.3302 H         1 <0>         0.0581
@<TRIPOS>BOND
     1    1    2 1
     2    1   34 1
     3    1   35 1
     4    1   36 1
     5    2    3 am
     6    2   37 1
     7    3    4 2
     8    3    5 1
     9    5   10 ar
    10    5    6 ar
    11    6    7 ar
    12    6   38 1
    13    7    8 ar
    14    7   39 1
    15    8    9 ar
    16    8   40 1
    17    9   10 ar
    18    9   41 1
    19   10   11 1
    20   11   12 1
    21   11   42 1
    22   12   17 ar
    23   12   13 ar
    24   13   14 ar
    25   13   33 1
    26   14   15 ar
    27   14   43 1
    28   15   16 ar
    29   16   17 ar
    30   16   18 1
    31   18   19 1
    32   18   44 1
    33   19   24 ar
    34   19   20 ar
    35   20   21 ar
    36   20   45 1
    37   21   22 ar
    38   21   46 1
    39   22   23 ar
    40   22   27 1
    41   23   24 ar
    42   23   47 1
    43   24   25 1
    44   25   26 1
    45   26   48 1
    46   26   49 1
    47   26   50 1
    48   27   32 1
    49   27   28 1
    50   28   29 1
    51   28   51 1
    52   28   52 1
    53   29   30 1
    54   29   53 1
    55   29   54 1
    56   30   31 1
    57   31   32 1
    58   31   55 1
    59   31   56 1
    60   32   57 1
    61   32   58 1
@<TRIPOS>MOLECULE
ZINC02064362
   45    48     0     0     0
SMALL
USER_CHARGES

@<TRIPOS>ATOM
      1 C1         -0.0050    1.2556    1.2013 C.ar      1 <0>        -0.1135
      2 C2          1.1644    1.9682    1.4276 C.ar      1 <0>        -0.0914
      3 C3          2.3809    1.3155    1.3532 C.ar      1 <0>        -0.0693
      4 C4          2.4105   -0.0253    1.0571 C.ar      1 <0>        -0.1422
      5 C5          1.2364   -0.7790    0.8214 C.ar      1 <0>         0.0755
      6 C6          0.0132   -0.0718    0.9074 C.ar      1 <0>        -0.0571
      7 N1          1.4257   -2.0836    0.5426 N.2       1 <0>        -0.4791
      8 C7          2.6216   -2.6293    0.4909 C.2       1 <0>         0.2034
      9 S1          3.6884   -1.2436    0.8607 S.3       1 <0>         0.0045
     10 C8          2.9893   -4.0306    0.2016 C.ar      1 <0>        -0.0452
     11 C9          4.3300   -4.4171    0.1996 C.ar      1 <0>        -0.0268
     12 C10         4.6675   -5.7327   -0.0720 C.ar      1 <0>         0.1075
     13 C11         3.6736   -6.6665   -0.3423 C.ar      1 <0>        -0.0765
     14 C12         2.3451   -6.2898   -0.3416 C.ar      1 <0>        -0.1412
     15 C13         1.9935   -4.9778   -0.0658 C.ar      1 <0>         0.1730
     16 O1          0.6857   -4.6105   -0.0601 O.3       1 <0>        -0.4731
     17 N2          6.0129   -6.1230   -0.0746 N.pl3     1 <0>        -0.6175
     18 C14         6.8486   -5.6676    0.8798 C.2       1 <0>         0.5033
     19 S2          6.2386   -4.7282    2.1745 S.2       1 <0>        -0.4611
     20 N3          8.1645   -5.9517    0.8148 N.am      1 <0>        -0.6375
     21 C15         9.0001   -5.4963    1.7691 C.2       1 <0>         0.5323
     22 O2          8.5671   -4.8295    2.6882 O.2       1 <0>        -0.3823
     23 C16        10.4429   -5.8078    1.6979 C.ar      1 <0>        -0.0854
     24 C17        10.9445   -6.5687    0.6403 C.ar      1 <0>        -0.0906
     25 C18        12.2925   -6.8554    0.5796 C.ar      1 <0>        -0.0578
     26 C19        13.1468   -6.3907    1.5639 C.ar      1 <0>        -0.0229
     27 C20        12.6562   -5.6365    2.6151 C.ar      1 <0>        -0.0551
     28 C21        11.3113   -5.3376    2.6848 C.ar      1 <0>        -0.0518
     29 N4         14.5921   -6.7023    1.4923 N.pl3     1 <0>         0.0261
     30 O3         15.0236   -7.3615    0.5752 O.2       1 <0>        -0.1476
     31 O4         15.3410   -6.2977    2.3508 O.3       1 <0>        -0.1442
     32 H1         -0.9538    1.7675    1.2646 H         1 <0>         0.1351
     33 H2          1.1245    3.0224    1.6590 H         1 <0>         0.1398
     34 H3          3.3001    1.8554    1.5262 H         1 <0>         0.1345
     35 H4         -0.9172   -0.5932    0.7378 H         1 <0>         0.1340
     36 H5          5.1026   -3.6922    0.4088 H         1 <0>         0.1504
     37 H6          3.9418   -7.6910   -0.5542 H         1 <0>         0.1389
     38 H7          1.5779   -7.0200   -0.5528 H         1 <0>         0.1473
     39 H8          0.3569   -4.3134   -0.9196 H         1 <0>         0.3968
     40 H9          6.3431   -6.7210   -0.7633 H         1 <0>         0.4113
     41 H10         8.5101   -6.4839    0.0812 H         1 <0>         0.4110
     42 H11        10.2787   -6.9323   -0.1284 H         1 <0>         0.1470
     43 H12        12.6819   -7.4442   -0.2377 H         1 <0>         0.1638
     44 H13        13.3283   -5.2775    3.3804 H         1 <0>         0.1666
     45 H14        10.9303   -4.7451    3.5034 H         1 <0>         0.1667
@<TRIPOS>BOND
     1    1    6 ar
     2    1    2 ar
     3    1   32 1
     4    2    3 ar
     5    2   33 1
     6    3    4 ar
     7    3   34 1
     8    4    9 1
     9    4    5 ar
    10    5    6 ar
    11    5    7 1
    12    6   35 1
    13    7    8 2
    14    8    9 1
    15    8   10 1
    16   10   15 ar
    17   10   11 ar
    18   11   12 ar
    19   11   36 1
    20   12   13 ar
    21   12   17 1
    22   13   14 ar
    23   13   37 1
    24   14   15 ar
    25   14   38 1
    26   15   16 1
    27   16   39 1
    28   17   18 1
    29   17   40 1
    30   18   19 2
    31   18   20 1
    32   20   21 am
    33   20   41 1
    34   21   22 2
    35   21   23 1
    36   23   28 ar
    37   23   24 ar
    38   24   25 ar
    39   24   42 1
    40   25   26 ar
    41   25   43 1
    42   26   27 ar
    43   26   29 1
    44   27   28 ar
    45   27   44 1
    46   28   45 1
    47   29   30 2
    48   29   31 1
@<TRIPOS>MOLECULE
ZINC43202844
   69    73     0     0     0
SMALL
USER_CHARGES

@<TRIPOS>ATOM
      1 C1          0.0444    1.5338   -0.2143 C.3       1 <0>         0.0837
      2 N1          0.2311    0.0819   -0.1562 N.am      1 <0>        -0.7275
      3 C2          0.3054   -0.6341   -1.2956 C.2       1 <0>         0.5630
      4 O1          0.2176   -0.0749   -2.3720 O.2       1 <0>        -0.5155
      5 C3          0.4931   -2.0941   -1.2372 C.ar      1 <0>        -0.1988
      6 C4         -0.6202   -2.9489   -1.1967 C.ar      1 <0>         0.2153
      7 C5         -0.4304   -4.3228   -1.1418 C.ar      1 <0>        -0.1276
      8 C6          0.8476   -4.8461   -1.1270 C.ar      1 <0>        -0.0528
      9 C7          1.9492   -4.0089   -1.1662 C.ar      1 <0>        -0.1679
     10 C8          1.7820   -2.6388   -1.2274 C.ar      1 <0>         0.1531
     11 F1          2.8606   -1.8265   -1.2720 F         1 <0>        -0.1266
     12 N2         -1.9068   -2.4214   -1.2112 N.pl3     1 <0>        -0.6365
     13 C9         -2.9248   -3.0973   -1.8623 C.ar      1 <0>         0.5212
     14 C10        -4.2051   -2.5325   -1.9745 C.ar      1 <0>        -0.2893
     15 C11        -4.8245   -1.2809   -1.5407 C.2       1 <0>        -0.1501
     16 C12        -6.1020   -1.3166   -1.9522 C.2       1 <0>         0.0304
     17 N3         -6.3441   -2.4941   -2.6144 N.pl3     1 <0>        -0.5686
     18 H1         -7.1953   -2.7486   -3.0037 H         1 <0>         0.4169
     19 C13        -5.2084   -3.2559   -2.6447 C.ar      1 <0>         0.3860
     20 N4         -4.9053   -4.4516   -3.1480 N.ar      1 <0>        -0.5937
     21 C14        -3.6863   -4.9476   -3.0199 C.ar      1 <0>         0.6168
     22 N5         -2.7114   -4.2934   -2.4003 N.ar      1 <0>        -0.6100
     23 N6         -3.4145   -6.1953   -3.5583 N.pl3     1 <0>        -0.6216
     24 C15        -4.3817   -6.8504   -4.3305 C.ar      1 <0>         0.1714
     25 C16        -5.3531   -6.1176   -4.9899 C.ar      1 <0>        -0.0957
     26 C17        -6.3200   -6.7637   -5.7612 C.ar      1 <0>         0.0987
     27 C18        -6.2945   -8.1459   -5.8584 C.ar      1 <0>        -0.1043
     28 C19        -5.3245   -8.8804   -5.2008 C.ar      1 <0>        -0.1496
     29 C20        -4.3621   -8.2391   -4.4393 C.ar      1 <0>         0.0986
     30 O2         -3.4050   -8.9620   -3.7969 O.3       1 <0>        -0.3131
     31 C21        -3.4487  -10.3815   -3.9551 C.3       1 <0>         0.0267
     32 C22        -7.4385   -8.5874   -6.7438 C.3       1 <0>        -0.0870
     33 C23        -8.1386   -7.2816   -7.1532 C.3       1 <0>         0.0904
     34 N7         -7.3766   -6.2149   -6.4986 N.am      1 <0>        -0.5220
     35 C24        -7.6523   -4.8990   -6.5920 C.2       1 <0>         0.5014
     36 O3         -6.9594   -4.0913   -6.0099 O.2       1 <0>        -0.5079
     37 C25        -8.8214   -4.4309   -7.4197 C.3       1 <0>        -0.0275
     38 N8         -8.9081   -2.9657   -7.3603 N.4       1 <0>        -0.3725
     39 C26        -7.7214   -2.3788   -7.9970 C.3       1 <0>        -0.0606
     40 C27       -10.1153   -2.5175   -8.0673 C.3       1 <0>        -0.0472
     41 H2          0.8758    1.9856   -0.7554 H         1 <0>         0.0645
     42 H3         -0.8896    1.7598   -0.7287 H         1 <0>         0.0626
     43 H4          0.0082    1.9363    0.7981 H         1 <0>         0.0817
     44 H5          0.3011   -0.3641    0.7023 H         1 <0>         0.4054
     45 H6         -1.2838   -4.9839   -1.1102 H         1 <0>         0.1570
     46 H7          0.9884   -5.9160   -1.0841 H         1 <0>         0.1431
     47 H8          2.9441   -4.4289   -1.1538 H         1 <0>         0.1451
     48 H9         -2.0911   -1.5800   -0.7652 H         1 <0>         0.4238
     49 H10        -4.3464   -0.4815   -0.9941 H         1 <0>         0.1496
     50 H11        -6.8299   -0.5362   -1.7866 H         1 <0>         0.1805
     51 H12        -2.5543   -6.6148   -3.4002 H         1 <0>         0.4328
     52 H13        -5.3631   -5.0408   -4.9069 H         1 <0>         0.1823
     53 H14        -5.3157   -9.9571   -5.2842 H         1 <0>         0.1418
     54 H15        -3.3461  -10.6328   -5.0108 H         1 <0>         0.0589
     55 H16        -2.6325  -10.8350   -3.3927 H         1 <0>         0.1063
     56 H17        -4.4007  -10.7596   -3.5824 H         1 <0>         0.0585
     57 H18        -7.0593   -9.1074   -7.6235 H         1 <0>         0.1000
     58 H19        -8.1236   -9.2280   -6.1884 H         1 <0>         0.0996
     59 H20        -8.1069   -7.1590   -8.2359 H         1 <0>         0.0924
     60 H21        -9.1703   -7.2795   -6.8018 H         1 <0>         0.0924
     61 H22        -8.6830   -4.7451   -8.4543 H         1 <0>         0.1604
     62 H23        -9.7411   -4.8655   -7.0280 H         1 <0>         0.1607
     63 H24        -7.7858   -1.2916   -7.9529 H         1 <0>         0.1275
     64 H25        -6.8257   -2.7113   -7.4724 H         1 <0>         0.1396
     65 H26        -7.6724   -2.6979   -9.0381 H         1 <0>         0.1203
     66 H27       -10.9957   -2.9530   -7.5949 H         1 <0>         0.1255
     67 H28       -10.1796   -1.4303   -8.0232 H         1 <0>         0.1306
     68 H29       -10.0662   -2.8367   -9.1084 H         1 <0>         0.1251
     69 H30        -8.9535   -2.6703   -6.3966 H         1 <0>         0.4323
@<TRIPOS>BOND
     1    1    2 1
     2    1   41 1
     3    1   42 1
     4    1   43 1
     5    2    3 am
     6    2   44 1
     7    3    4 2
     8    3    5 1
     9    5   10 ar
    10    5    6 ar
    11    6    7 ar
    12    6   12 1
    13    7    8 ar
    14    7   45 1
    15    8    9 ar
    16    8   46 1
    17    9   10 ar
    18    9   47 1
    19   10   11 1
    20   12   13 1
    21   12   48 1
    22   13   22 ar
    23   13   14 ar
    24   14   19 ar
    25   14   15 1
    26   15   16 2
    27   15   49 1
    28   16   17 1
    29   16   50 1
    30   17   18 1
    31   17   19 1
    32   19   20 ar
    33   20   21 ar
    34   21   22 ar
    35   21   23 1
    36   23   24 1
    37   23   51 1
    38   24   29 ar
    39   24   25 ar
    40   25   26 ar
    41   25   52 1
    42   26   34 1
    43   26   27 ar
    44   27   28 ar
    45   27   32 1
    46   28   29 ar
    47   28   53 1
    48   29   30 1
    49   30   31 1
    50   31   54 1
    51   31   55 1
    52   31   56 1
    53   32   33 1
    54   32   57 1
    55   32   58 1
    56   33   34 1
    57   33   59 1
    58   33   60 1
    59   34   35 am
    60   35   36 2
    61   35   37 1
    62   37   38 1
    63   37   61 1
    64   37   62 1
    65   38   39 1
    66   38   40 1
    67   38   69 1
    68   39   63 1
    69   39   64 1
    70   39   65 1
    71   40   66 1
    72   40   67 1
    73   40   68 1
@<TRIPOS>MOLECULE
ZINC40423853
   72    77     0     0     0
SMALL
USER_CHARGES

@<TRIPOS>ATOM
      1 C1          2.2379    1.3842   -0.2342 C.3       1 <0>        -0.0473
      2 N1          2.0950   -0.0778   -0.2340 N.4       1 <0>        -0.3852
      3 C2          2.3510   -0.5928    1.1164 C.3       1 <0>        -0.0072
      4 C3          2.2832   -2.1215    1.1048 C.3       1 <0>        -0.1412
      5 C4          0.8905   -2.5617    0.6445 C.3       1 <0>        -0.0508
      6 C5          0.6045   -1.9576   -0.7334 C.3       1 <0>        -0.1411
      7 C6          0.7345   -0.4350   -0.6536 C.3       1 <0>        -0.0070
      8 C7          0.8410   -4.0652    0.5556 C.ar      1 <0>        -0.1132
      9 C8          1.7052   -4.7351   -0.2911 C.ar      1 <0>        -0.0936
     10 C9          1.6627   -6.1130   -0.3746 C.ar      1 <0>        -0.1063
     11 C10         0.7508   -6.8260    0.3931 C.ar      1 <0>         0.1731
     12 C11        -0.1158   -6.1500    1.2425 C.ar      1 <0>        -0.1391
     13 C12        -0.0645   -4.7724    1.3252 C.ar      1 <0>        -0.0851
     14 N2          0.7049   -8.2209    0.3106 N.pl3     1 <0>        -0.6282
     15 C13         1.8651   -8.9385    0.0937 C.ar      1 <0>         0.6099
     16 N3          3.0240   -8.2890    0.0752 N.ar      1 <0>        -0.5706
     17 C14         4.1613   -8.9305   -0.1280 C.ar      1 <0>         0.2834
     18 C15         4.1194  -10.3120   -0.3238 C.ar      1 <0>        -0.3313
     19 C16         5.3361  -11.1038   -0.5559 C.2       1 <0>         0.4546
     20 O1          6.4377  -10.5834   -0.5870 O.2       1 <0>        -0.4810
     21 C17         5.1647  -12.5548   -0.7488 C.2       1 <0>        -0.3113
     22 C18         3.8948  -13.0872   -0.7027 C.2       1 <0>         0.2582
     23 N4          2.8056  -12.3289   -0.4878 N.pl3     1 <0>        -0.4194
     24 C19         2.8738  -10.9709   -0.2983 C.ar      1 <0>         0.4674
     25 N5          1.7802  -10.2481   -0.0825 N.ar      1 <0>        -0.5809
     26 C20         1.5509  -12.9492   -0.4559 C.ar      1 <0>         0.0883
     27 C21         1.2863  -13.9382    0.4827 C.ar      1 <0>        -0.1031
     28 C22         0.0480  -14.5458    0.5100 C.ar      1 <0>        -0.0925
     29 C23        -0.9333  -14.1744   -0.3952 C.ar      1 <0>        -0.0738
     30 C24        -0.6729  -13.1902   -1.3310 C.ar      1 <0>        -0.0858
     31 C25         0.5659  -12.5741   -1.3581 C.ar      1 <0>        -0.0652
     32 C26        -1.8957  -12.9701   -2.1958 C.3       1 <0>        -0.0822
     33 C27        -2.7753  -14.2193   -1.9772 C.3       1 <0>        -0.1217
     34 C28        -2.3491  -14.6821   -0.5678 C.3       1 <0>        -0.0880
     35 C29         6.3305  -13.4204   -0.9871 C.2       1 <0>         0.5966
     36 O2          6.1706  -14.5976   -1.2487 O.2       1 <0>        -0.5314
     37 N6          7.5754  -12.9090   -0.9156 N.am      1 <0>        -0.5864
     38 O3          8.6911  -13.7114   -1.2572 O.3       1 <0>        -0.1461
     39 C30         9.9476  -13.0417   -1.1356 C.3       1 <0>         0.0006
     40 H1          1.5174    1.8198    0.4581 H         1 <0>         0.1214
     41 H2          3.2479    1.6506    0.0773 H         1 <0>         0.1237
     42 H3          2.0544    1.7671   -1.2381 H         1 <0>         0.1236
     43 H4          3.3412   -0.2760    1.4439 H         1 <0>         0.1315
     44 H5          1.5999   -0.2014    1.8025 H         1 <0>         0.1287
     45 H6          3.0341   -2.5139    0.4192 H         1 <0>         0.0906
     46 H7          2.4718   -2.5018    2.1087 H         1 <0>         0.1143
     47 H8          0.1437   -2.2128    1.3576 H         1 <0>         0.0951
     48 H9          1.3206   -2.3466   -1.4572 H         1 <0>         0.0901
     49 H10        -0.4068   -2.2207   -1.0433 H         1 <0>         0.1139
     50 H11         0.0179   -0.0470    0.0702 H         1 <0>         0.1288
     51 H12         0.5313   -0.0016   -1.6329 H         1 <0>         0.1312
     52 H13         2.4138   -4.1801   -0.8880 H         1 <0>         0.1216
     53 H14         2.3377   -6.6355   -1.0363 H         1 <0>         0.1388
     54 H15        -0.8262   -6.7014    1.8405 H         1 <0>         0.1306
     55 H16        -0.7352   -4.2465    1.9885 H         1 <0>         0.1285
     56 H17        -0.1417   -8.6848    0.4058 H         1 <0>         0.4293
     57 H18         5.1010   -8.3984   -0.1425 H         1 <0>         0.1942
     58 H19         3.7699  -14.1506   -0.8446 H         1 <0>         0.1944
     59 H20         2.0483  -14.2307    1.1900 H         1 <0>         0.1352
     60 H21        -0.1575  -15.3147    1.2400 H         1 <0>         0.1355
     61 H22         0.7678  -11.8022   -2.0860 H         1 <0>         0.1235
     62 H23        -2.4271  -12.0730   -1.8781 H         1 <0>         0.0831
     63 H24        -1.6080  -12.8888   -3.2440 H         1 <0>         0.0783
     64 H25        -3.8330  -13.9565   -1.9953 H         1 <0>         0.0815
     65 H26        -2.5524  -14.9850   -2.7203 H         1 <0>         0.0768
     66 H27        -2.3711  -15.7701   -0.5043 H         1 <0>         0.0826
     67 H28        -3.0023  -14.2451    0.1874 H         1 <0>         0.0863
     68 H29         7.7072  -11.9914   -0.6302 H         1 <0>         0.4186
     69 H30         9.9619  -12.1736   -1.7947 H         1 <0>         0.0568
     70 H31        10.0882  -12.7174   -0.1045 H         1 <0>         0.0563
     71 H32        10.7511  -13.7232   -1.4150 H         1 <0>         0.1145
     72 H33         2.7606   -0.4799   -0.8769 H         1 <0>         0.4244
@<TRIPOS>BOND
     1    1    2 1
     2    1   40 1
     3    1   41 1
     4    1   42 1
     5    2    7 1
     6    2    3 1
     7    2   72 1
     8    3    4 1
     9    3   43 1
    10    3   44 1
    11    4    5 1
    12    4   45 1
    13    4   46 1
    14    5    6 1
    15    5    8 1
    16    5   47 1
    17    6    7 1
    18    6   48 1
    19    6   49 1
    20    7   50 1
    21    7   51 1
    22    8   13 ar
    23    8    9 ar
    24    9   10 ar
    25    9   52 1
    26   10   11 ar
    27   10   53 1
    28   11   12 ar
    29   11   14 1
    30   12   13 ar
    31   12   54 1
    32   13   55 1
    33   14   15 1
    34   14   56 1
    35   15   25 ar
    36   15   16 ar
    37   16   17 ar
    38   17   18 ar
    39   17   57 1
    40   18   24 ar
    41   18   19 1
    42   19   20 2
    43   19   21 1
    44   21   22 2
    45   21   35 1
    46   22   23 1
    47   22   58 1
    48   23   24 1
    49   23   26 1
    50   24   25 ar
    51   26   31 ar
    52   26   27 ar
    53   27   28 ar
    54   27   59 1
    55   28   29 ar
    56   28   60 1
    57   29   34 1
    58   29   30 ar
    59   30   31 ar
    60   30   32 1
    61   31   61 1
    62   32   33 1
    63   32   62 1
    64   32   63 1
    65   33   34 1
    66   33   64 1
    67   33   65 1
    68   34   66 1
    69   34   67 1
    70   35   36 2
    71   35   37 am
    72   37   38 1
    73   37   68 1
    74   38   39 1
    75   39   69 1
    76   39   70 1
    77   39   71 1
@<TRIPOS>MOLECULE
ZINC55760827
   83    87     0     0     0
SMALL
USER_CHARGES

@<TRIPOS>ATOM
      1 C1          0.1308    1.2757   -1.5114 C.3       1 <0>        -0.1457
      2 C2          0.0489   -0.2316   -1.2617 C.3       1 <0>        -0.5666
      3 C3          1.2691   -0.6821   -0.4560 C.3       1 <0>        -0.1409
      4 S1         -1.4624   -0.6093   -0.3323 S.o2      1 <0>         2.4858
      5 O1         -1.4234    0.0188    0.9418 O.2       1 <0>        -0.9268
      6 O2         -2.6005   -0.4734   -1.1723 O.2       1 <0>        -0.9405
      7 C4         -1.3622   -2.3341    0.0135 C.ar      1 <0>        -0.6839
      8 C5         -1.2554   -2.7725    1.3190 C.ar      1 <0>        -0.0030
      9 C6         -1.1772   -4.1258    1.5912 C.ar      1 <0>        -0.1503
     10 C7         -1.2056   -5.0450    0.5581 C.ar      1 <0>        -0.0467
     11 C8         -1.3123   -4.6135   -0.7492 C.ar      1 <0>        -0.1331
     12 C9         -1.3964   -3.2546   -1.0259 C.ar      1 <0>         0.2443
     13 N1         -1.5099   -2.8147   -2.3478 N.pl3     1 <0>        -0.6616
     14 C10        -0.8607   -3.4990   -3.3646 C.ar      1 <0>         0.4830
     15 C11        -0.8842   -3.0123   -4.6745 C.ar      1 <0>        -0.2526
     16 C12        -0.2236   -3.7275   -5.6550 C.ar      1 <0>         0.2363
     17 N2          0.4082   -4.8455   -5.3272 N.ar      1 <0>        -0.5723
     18 C13         0.4137   -5.2832   -4.0770 C.ar      1 <0>         0.5997
     19 N3         -0.2026   -4.6244   -3.1067 N.ar      1 <0>        -0.5908
     20 N4          1.0856   -6.4561   -3.7754 N.pl3     1 <0>        -0.6151
     21 C14         1.8542   -7.0973   -4.7591 C.ar      1 <0>         0.0827
     22 C15         2.3739   -6.3680   -5.8182 C.ar      1 <0>        -0.0385
     23 C16         3.1307   -6.9985   -6.7873 C.ar      1 <0>        -0.2089
     24 C17         3.3726   -8.3634   -6.7029 C.ar      1 <0>         0.2363
     25 C18         2.8541   -9.0969   -5.6442 C.ar      1 <0>        -0.2647
     26 C19         2.1002   -8.4653   -4.6693 C.ar      1 <0>         0.1479
     27 O3          1.5961   -9.1808   -3.6285 O.3       1 <0>        -0.3171
     28 C20         1.8884  -10.5793   -3.6006 C.3       1 <0>         0.0308
     29 N5          4.1389   -8.9999   -7.6857 N.pl3     1 <0>        -0.6295
     30 C21         4.7972   -8.2205   -8.7431 C.3       1 <0>         0.1228
     31 C22         4.3883   -8.7923  -10.1042 C.3       1 <0>        -0.1329
     32 C23         4.7023  -10.2897  -10.1391 C.3       1 <0>         0.0908
     33 C24         3.8977  -11.0068   -9.0526 C.3       1 <0>        -0.1308
     34 C25         4.3056  -10.4596   -7.6763 C.3       1 <0>         0.1234
     35 N6          4.3421  -10.8347  -11.4549 N.3       1 <0>        -0.5357
     36 C26         5.0321  -10.1106  -12.5318 C.3       1 <0>         0.0201
     37 C27         4.5853  -10.6681  -13.8850 C.3       1 <0>        -0.0022
     38 N7          4.9025  -12.1007  -13.9534 N.4       1 <0>        -0.3883
     39 C28         4.1869  -12.8138  -12.8872 C.3       1 <0>        -0.0021
     40 C29         4.6303  -12.2741  -11.5256 C.3       1 <0>         0.0207
     41 C30         4.4898  -12.6315  -15.2595 C.3       1 <0>        -0.0459
     42 Cl1        -1.7246   -1.5432   -5.0610 Cl        1 <0>        -0.0377
     43 H1          1.0389    1.5027   -2.0698 H         1 <0>         0.0885
     44 H2         -0.7385    1.5967   -2.0853 H         1 <0>         0.0736
     45 H3          0.1503    1.8016   -0.5568 H         1 <0>         0.0788
     46 H4          0.0294   -0.7574   -2.2162 H         1 <0>         0.1318
     47 H5          2.1772   -0.4551   -1.0145 H         1 <0>         0.0814
     48 H6          1.2886   -0.1562    0.4985 H         1 <0>         0.0798
     49 H7          1.2107   -1.7559   -0.2782 H         1 <0>         0.0704
     50 H8         -1.2325   -2.0574    2.1279 H         1 <0>         0.1501
     51 H9         -1.0933   -4.4659    2.6128 H         1 <0>         0.1365
     52 H10        -1.1440   -6.1014    0.7741 H         1 <0>         0.1352
     53 H11        -1.3341   -5.3318   -1.5555 H         1 <0>         0.1523
     54 H12        -2.0426   -2.0307   -2.5540 H         1 <0>         0.4348
     55 H13        -0.2223   -3.3794   -6.6774 H         1 <0>         0.1828
     56 H14         1.0250   -6.8344   -2.8843 H         1 <0>         0.4275
     57 H15         2.1866   -5.3065   -5.8858 H         1 <0>         0.1583
     58 H16         3.5343   -6.4292   -7.6115 H         1 <0>         0.1269
     59 H17         3.0423  -10.1584   -5.5787 H         1 <0>         0.1320
     60 H18         1.4922  -11.0513   -4.4997 H         1 <0>         0.0544
     61 H19         2.9680  -10.7241   -3.5600 H         1 <0>         0.0558
     62 H20         1.4281  -11.0293   -2.7210 H         1 <0>         0.1025
     63 H21         4.4859   -7.1780   -8.6762 H         1 <0>         0.0942
     64 H22         5.8789   -8.2891   -8.6279 H         1 <0>         0.0623
     65 H23         3.3196   -8.6410  -10.2562 H         1 <0>         0.0830
     66 H24         4.9438   -8.2856  -10.8934 H         1 <0>         0.0745
     67 H25         5.7671  -10.4417   -9.9625 H         1 <0>         0.0537
     68 H26         2.8336  -10.8347   -9.2145 H         1 <0>         0.0823
     69 H27         4.1040  -12.0763   -9.0933 H         1 <0>         0.0730
     70 H28         5.3481  -10.7071   -7.4760 H         1 <0>         0.0623
     71 H29         3.6699  -10.8950   -6.9053 H         1 <0>         0.0877
     72 H30         4.7834   -9.0509  -12.4750 H         1 <0>         0.1272
     73 H31         6.1092  -10.2381  -12.4236 H         1 <0>         0.0603
     74 H32         3.5103  -10.5282  -13.9986 H         1 <0>         0.1375
     75 H33         5.1067  -10.1420  -14.6847 H         1 <0>         0.1357
     76 H34         3.1139  -12.6629  -13.0058 H         1 <0>         0.1374
     77 H35         4.4128  -13.8785  -12.9471 H         1 <0>         0.1354
     78 H36         5.7008  -12.4372  -11.4009 H         1 <0>         0.0602
     79 H37         4.0885  -12.7929  -10.7348 H         1 <0>         0.1256
     80 H38         5.0217  -12.1033  -16.0508 H         1 <0>         0.1244
     81 H39         4.7251  -13.6946  -15.3105 H         1 <0>         0.1242
     82 H40         3.4165  -12.4904  -15.3864 H         1 <0>         0.1232
     83 H41         5.8962  -12.2309  -13.8366 H         1 <0>         0.4222
@<TRIPOS>BOND
     1    1    2 1
     2    1   43 1
     3    1   44 1
     4    1   45 1
     5    2    3 1
     6    2    4 1
     7    2   46 1
     8    3   47 1
     9    3   48 1
    10    3   49 1
    11    4    5 2
    12    4    6 2
    13    4    7 1
    14    7   12 ar
    15    7    8 ar
    16    8    9 ar
    17    8   50 1
    18    9   10 ar
    19    9   51 1
    20   10   11 ar
    21   10   52 1
    22   11   12 ar
    23   11   53 1
    24   12   13 1
    25   13   14 1
    26   13   54 1
    27   14   19 ar
    28   14   15 ar
    29   15   16 ar
    30   15   42 1
    31   16   17 ar
    32   16   55 1
    33   17   18 ar
    34   18   19 ar
    35   18   20 1
    36   20   21 1
    37   20   56 1
    38   21   26 ar
    39   21   22 ar
    40   22   23 ar
    41   22   57 1
    42   23   24 ar
    43   23   58 1
    44   24   25 ar
    45   24   29 1
    46   25   26 ar
    47   25   59 1
    48   26   27 1
    49   27   28 1
    50   28   60 1
    51   28   61 1
    52   28   62 1
    53   29   34 1
    54   29   30 1
    55   30   31 1
    56   30   63 1
    57   30   64 1
    58   31   32 1
    59   31   65 1
    60   31   66 1
    61   32   33 1
    62   32   35 1
    63   32   67 1
    64   33   34 1
    65   33   68 1
    66   33   69 1
    67   34   70 1
    68   34   71 1
    69   35   40 1
    70   35   36 1
    71   36   37 1
    72   36   72 1
    73   36   73 1
    74   37   38 1
    75   37   74 1
    76   37   75 1
    77   38   39 1
    78   38   41 1
    79   38   83 1
    80   39   40 1
    81   39   76 1
    82   39   77 1
    83   40   78 1
    84   40   79 1
    85   41   80 1
    86   41   81 1
    87   41   82 1
@<TRIPOS>MOLECULE
ZINC03964325
   57    59     0     0     0
SMALL
USER_CHARGES

@<TRIPOS>ATOM
      1 C1          0.1489    2.0884    0.1150 C.3       1 <0>        -0.1876
      2 C2          0.1348    0.5603    0.1888 C.3       1 <0>        -0.0191
      3 N1         -1.2520    0.0881    0.2979 N.4       1 <0>        -0.3822
      4 C3         -1.9779    0.4111   -0.9377 C.3       1 <0>        -0.0142
      5 C4         -3.4549    0.0484   -0.7712 C.3       1 <0>        -0.1895
      6 C5         -1.2593   -1.3663    0.5041 C.3       1 <0>        -0.0265
      7 C6         -0.6131   -1.6936    1.8518 C.3       1 <0>         0.0952
      8 N2         -0.6203   -3.1440    2.0575 N.am      1 <0>        -0.7289
      9 C7         -0.0988   -3.6675    3.1846 C.2       1 <0>         0.6111
     10 O1          0.3779   -2.9358    4.0309 O.2       1 <0>        -0.5184
     11 C8         -0.1061   -5.1270    3.3915 C.2       1 <0>        -0.2420
     12 C9          0.9071   -6.0320    3.0089 C.2       1 <0>        -0.0577
     13 C10         0.4868   -7.2892    3.3960 C.2       1 <0>        -0.0075
     14 N3         -0.7476   -7.1595    3.9982 N.pl3     1 <0>        -0.4910
     15 H1         -1.2731   -7.8879    4.3645 H         1 <0>         0.4270
     16 C11        -1.1044   -5.8642    4.0022 C.2       1 <0>         0.1158
     17 C12        -2.3825   -5.3072    4.5743 C.3       1 <0>        -0.0999
     18 C13         1.1957   -8.4957    3.2079 C.2       1 <0>         0.0729
     19 C14         0.5100   -9.6674    2.9570 C.2       1 <0>        -0.1889
     20 C15         1.0648  -11.0377    2.8871 C.ar      1 <0>        -0.0736
     21 C16         2.3472  -11.5557    3.0375 C.ar      1 <0>        -0.1000
     22 C17         2.5553  -12.9162    2.9116 C.ar      1 <0>         0.0861
     23 C18         1.4888  -13.7593    2.6366 C.ar      1 <0>        -0.1139
     24 C19         0.2139  -13.2531    2.4856 C.ar      1 <0>        -0.1021
     25 C20        -0.0144  -11.8871    2.6092 C.ar      1 <0>         0.1282
     26 N4         -1.1765  -11.1301    2.5069 N.am      1 <0>        -0.6466
     27 C21        -0.9294   -9.8245    2.7079 C.2       1 <0>         0.5595
     28 O2         -1.7538   -8.9280    2.6842 O.2       1 <0>        -0.5156
     29 F1          3.7984  -13.4252    3.0561 F         1 <0>        -0.1318
     30 C22         2.1990   -5.6919    2.3116 C.3       1 <0>        -0.0931
     31 H2          1.1793    2.4435    0.1331 H         1 <0>         0.1076
     32 H3         -0.3308    2.4121   -0.8087 H         1 <0>         0.0811
     33 H4         -0.3916    2.4984    0.9682 H         1 <0>         0.0809
     34 H5          0.5888    0.1488   -0.7126 H         1 <0>         0.1317
     35 H6          0.6996    0.2334    1.0619 H         1 <0>         0.1337
     36 H7         -1.8867    1.4775   -1.1444 H         1 <0>         0.1351
     37 H8         -1.5554   -0.1571   -1.7664 H         1 <0>         0.1307
     38 H9         -3.5537   -1.0316   -0.6617 H         1 <0>         0.0802
     39 H10        -3.8523    0.5414    0.1160 H         1 <0>         0.0808
     40 H11        -4.0109    0.3769   -1.6492 H         1 <0>         0.1074
     41 H12        -2.2871   -1.7292    0.4963 H         1 <0>         0.1397
     42 H13        -0.6973   -1.8494   -0.2952 H         1 <0>         0.1376
     43 H14         0.4147   -1.3306    1.8596 H         1 <0>         0.0893
     44 H15        -1.1751   -1.2105    2.6511 H         1 <0>         0.0890
     45 H16        -1.0005   -3.7277    1.3824 H         1 <0>         0.4099
     46 H17        -3.1529   -5.3000    3.8032 H         1 <0>         0.0840
     47 H18        -2.7087   -5.9289    5.4080 H         1 <0>         0.0782
     48 H19        -2.2103   -4.2898    4.9254 H         1 <0>         0.0840
     49 H20         2.2744   -8.5020    3.2604 H         1 <0>         0.1589
     50 H21         3.1765  -10.8977    3.2512 H         1 <0>         0.1436
     51 H22         1.6578  -14.8215    2.5394 H         1 <0>         0.1485
     52 H23        -0.6084  -13.9196    2.2712 H         1 <0>         0.1415
     53 H24        -2.0541  -11.4980    2.3189 H         1 <0>         0.4217
     54 H25         2.9686   -5.4822    3.0545 H         1 <0>         0.0785
     55 H26         2.5107   -6.5337    1.6932 H         1 <0>         0.0726
     56 H27         2.0522   -4.8138    1.6827 H         1 <0>         0.0634
     57 H28        -1.7009    0.5410    1.0799 H         1 <0>         0.4247
@<TRIPOS>BOND
     1    1    2 1
     2    1   31 1
     3    1   32 1
     4    1   33 1
     5    2    3 1
     6    2   34 1
     7    2   35 1
     8    3    4 1
     9    3    6 1
    10    3   57 1
    11    4    5 1
    12    4   36 1
    13    4   37 1
    14    5   38 1
    15    5   39 1
    16    5   40 1
    17    6    7 1
    18    6   41 1
    19    6   42 1
    20    7    8 1
    21    7   43 1
    22    7   44 1
    23    8    9 am
    24    8   45 1
    25    9   10 2
    26    9   11 1
    27   11   16 2
    28   11   12 1
    29   12   13 2
    30   12   30 1
    31   13   14 1
    32   13   18 1
    33   14   15 1
    34   14   16 1
    35   16   17 1
    36   17   46 1
    37   17   47 1
    38   17   48 1
    39   18   19 2
    40   18   49 1
    41   19   27 1
    42   19   20 1
    43   20   25 ar
    44   20   21 ar
    45   21   22 ar
    46   21   50 1
    47   22   23 ar
    48   22   29 1
    49   23   24 ar
    50   23   51 1
    51   24   25 ar
    52   24   52 1
    53   25   26 1
    54   26   27 am
    55   26   53 1
    56   27   28 2
    57   30   54 1
    58   30   55 1
    59   30   56 1
@<TRIPOS>MOLECULE
ZINC03820040
   62    66     0     0     0
SMALL
USER_CHARGES
N-[4-[4-(4-methylpiperazin-1-yl)-6-[(5-methyl-2H-pyrazol-3-yl)amino]pyrimidin-2-yl]sulfanylphenyl]cyclopropanecarboxamide
@<TRIPOS>ATOM
      1 C1          1.8035   -7.6837    0.5070 C.3       1 <0>        -0.0779
      2 C2          2.3685   -6.3674    0.0389 C.2       1 <0>         0.0949
      3 C3          1.9325   -5.1020    0.4407 C.2       1 <0>        -0.2905
      4 C4          2.6904   -4.1743   -0.2066 C.2       1 <0>         0.3252
      5 N1          3.5799   -4.8447   -0.9836 N.pl3     1 <0>        -0.4853
      6 H1          4.2729   -4.4328   -1.5753 H         1 <0>         0.4473
      7 N2          3.3537   -6.2159   -0.8085 N.2       1 <0>        -0.2711
      8 N3          2.5778   -2.7905   -0.0888 N.pl3     1 <0>        -0.6296
      9 C5          1.3376   -2.2123    0.1391 C.ar      1 <0>         0.4706
     10 C6          0.1755   -2.9717    0.0343 C.ar      1 <0>        -0.2983
     11 C7         -1.0466   -2.3490    0.2714 C.ar      1 <0>         0.3791
     12 N4         -1.0643   -1.0564    0.5886 N.ar      1 <0>        -0.5664
     13 C8          0.0620   -0.3646    0.6795 C.ar      1 <0>         0.3511
     14 N5          1.2425   -0.9231    0.4557 N.ar      1 <0>        -0.5606
     15 S1         -0.0125    1.3444    1.1018 S.3       1 <0>         0.1303
     16 C9          1.7078    1.7032    1.2298 C.ar      1 <0>        -0.1638
     17 C10         2.3806    1.4637    2.4214 C.ar      1 <0>        -0.0284
     18 C11         3.7293    1.7409    2.5200 C.ar      1 <0>        -0.1315
     19 C12         4.4114    2.2681    1.4313 C.ar      1 <0>         0.1902
     20 C13         3.7379    2.5125    0.2417 C.ar      1 <0>        -0.1573
     21 C14         2.3903    2.2311    0.1410 C.ar      1 <0>        -0.0288
     22 N6          5.7793    2.5539    1.5333 N.am      1 <0>        -0.6744
     23 C15         6.5739    1.7808    2.2997 C.2       1 <0>         0.5466
     24 O1          6.1269    0.7811    2.8213 O.2       1 <0>        -0.5140
     25 C16         8.0178    2.1584    2.5086 C.3       1 <0>        -0.2022
     26 C17         9.0818    1.2604    1.8742 C.3       1 <0>        -0.1494
     27 C18         8.8679    1.2402    3.3890 C.3       1 <0>        -0.1425
     28 N7         -2.2296   -3.0657    0.1789 N.pl3     1 <0>        -0.4710
     29 C19        -2.3617   -3.6957   -1.1422 C.3       1 <0>         0.0277
     30 C20        -3.6379   -4.5399   -1.1765 C.3       1 <0>         0.0040
     31 C21        -4.6643   -3.0537    0.4349 C.3       1 <0>        -0.0004
     32 C22        -3.3881   -2.2095    0.4692 C.3       1 <0>         0.0347
     33 C23        -6.0501   -4.4431   -0.9842 C.3       1 <0>        -0.0407
     34 H2          2.3381   -8.0122    1.3982 H         1 <0>         0.0831
     35 H3          0.7460   -7.5623    0.7417 H         1 <0>         0.0784
     36 H4          1.9177   -8.4287   -0.2805 H         1 <0>         0.0774
     37 H5          1.1347   -4.8964    1.1389 H         1 <0>         0.1550
     38 H6          3.3667   -2.2314   -0.1662 H         1 <0>         0.4241
     39 H7          0.2211   -4.0192   -0.2246 H         1 <0>         0.1631
     40 H8          1.8494    1.0573    3.2693 H         1 <0>         0.1319
     41 H9          4.2533    1.5509    3.4451 H         1 <0>         0.1405
     42 H10         4.2686    2.9225   -0.6049 H         1 <0>         0.1339
     43 H11         1.8666    2.4209   -0.7843 H         1 <0>         0.1341
     44 H12         6.1543    3.3081    1.0523 H         1 <0>         0.4168
     45 H13         8.2224    3.2282    2.5520 H         1 <0>         0.1306
     46 H14         8.7374    0.3965    1.3057 H         1 <0>         0.0995
     47 H15         9.9866    1.7393    1.5000 H         1 <0>         0.1100
     48 H16         9.6320    1.7059    4.0114 H         1 <0>         0.1092
     49 H17         8.3827    0.3633    3.8175 H         1 <0>         0.1093
     50 H18        -2.4158   -2.9234   -1.9095 H         1 <0>         0.0737
     51 H19        -1.4982   -4.3342   -1.3286 H         1 <0>         0.1318
     52 H20        -3.5722   -5.3290   -0.4274 H         1 <0>         0.1439
     53 H21        -3.7533   -4.9852   -2.1646 H         1 <0>         0.1412
     54 H22        -4.6102   -3.8259    1.2022 H         1 <0>         0.1407
     55 H23        -5.5278   -2.4152    0.6217 H         1 <0>         0.1407
     56 H24        -3.2729   -1.7645    1.4575 H         1 <0>         0.1357
     57 H25        -3.4537   -1.4201   -0.2796 H         1 <0>         0.0793
     58 H26        -6.8948   -3.7714   -0.8313 H         1 <0>         0.1238
     59 H27        -6.1225   -4.8989   -1.9717 H         1 <0>         0.1230
     60 H28        -6.0632   -5.2226   -0.2224 H         1 <0>         0.1251
     61 N8         -4.7966   -3.6630   -0.9051 N.4       1 <0>        -0.4014
     62 H29        -4.8229   -2.9169   -1.6099 H         1 <0>         0.4281
@<TRIPOS>BOND
     1    1    2 1
     2    1   34 1
     3    1   35 1
     4    1   36 1
     5    2    7 2
     6    2    3 1
     7    3    4 2
     8    3   37 1
     9    4    5 1
    10    4    8 1
    11    5    6 1
    12    5    7 1
    13    8    9 1
    14    8   38 1
    15    9   14 ar
    16    9   10 ar
    17   10   11 ar
    18   10   39 1
    19   11   12 ar
    20   11   28 1
    21   12   13 ar
    22   13   14 ar
    23   13   15 1
    24   15   16 1
    25   16   21 ar
    26   16   17 ar
    27   17   18 ar
    28   17   40 1
    29   18   19 ar
    30   18   41 1
    31   19   20 ar
    32   19   22 1
    33   20   21 ar
    34   20   42 1
    35   21   43 1
    36   22   23 am
    37   22   44 1
    38   23   24 2
    39   23   25 1
    40   25   27 1
    41   25   26 1
    42   25   45 1
    43   26   27 1
    44   26   46 1
    45   26   47 1
    46   27   48 1
    47   27   49 1
    48   28   32 1
    49   28   29 1
    50   29   30 1
    51   29   50 1
    52   29   51 1
    53   30   52 1
    54   30   53 1
    55   30   61 1
    56   31   32 1
    57   31   54 1
    58   31   55 1
    59   31   61 1
    60   32   56 1
    61   32   57 1
    62   33   58 1
    63   33   59 1
    64   33   60 1
    65   33   61 1
    66   61   62 1
@<TRIPOS>MOLECULE
ZINC18825339
   59    62     0     0     0
SMALL
USER_CHARGES
5-[(Z)-(5-fluoro-2-oxo-indolin-3-ylidene)methyl]-N-[(2R)-2-hydroxy-3-morpholino-propyl]-2,4-dimethyl-1H-pyrrole-3-carboxamide
@<TRIPOS>ATOM
      1 C1          3.5607    0.7280    0.3667 C.3       1 <0>        -0.0956
      2 C2          2.0758    0.7165    0.1102 C.2       1 <0>        -0.0564
      3 C3          1.2591    1.8188   -0.0477 C.2       1 <0>        -0.0308
      4 N1         -0.0271    1.3691   -0.2640 N.pl3     1 <0>        -0.5068
      5 H1         -0.8436    2.0903   -0.4163 H         1 <0>         0.4494
      6 C4         -0.0354    0.0257   -0.2455 C.2       1 <0>         0.1277
      7 C5          1.2525   -0.4230   -0.0155 C.2       1 <0>        -0.2308
      8 C6          1.6847   -1.8291    0.0810 C.2       1 <0>         0.5980
      9 O1          2.0430   -2.4250   -0.9167 O.2       1 <0>        -0.5421
     10 N2          1.6827   -2.4542    1.2750 N.am      1 <0>        -0.7266
     11 C7          2.1121   -3.8516    1.3710 C.3       1 <0>         0.1299
     12 C8          2.0150   -4.3162    2.8255 C.3       1 <0>         0.1144
     13 H2          2.5334   -3.6206    3.5018 H         1 <0>         0.0568
     14 C9          2.5799   -5.7329    2.9471 C.3       1 <0>         0.0228
     15 N3          2.4867   -6.1790    4.3436 N.3       1 <0>        -0.5349
     16 C10         3.3671   -5.3829    5.2109 C.3       1 <0>         0.0083
     17 C11         3.1945   -5.8402    6.6618 C.3       1 <0>         0.0618
     18 O2          3.4694   -7.2408    6.7508 O.3       1 <0>        -0.3843
     19 C12         2.6296   -8.0463    5.9193 C.3       1 <0>         0.0614
     20 C13         2.7965   -7.6114    4.4609 C.3       1 <0>         0.0172
     21 O3          0.6463   -4.3123    3.2364 O.3       1 <0>        -0.5882
     22 C14        -1.2476   -0.8477   -0.4426 C.3       1 <0>        -0.0994
     23 C15         1.6686    3.1691    0.0027 C.2       1 <0>         0.0908
     24 C16         0.8216    4.1284    0.5209 C.2       1 <0>        -0.2125
     25 C17         1.0162    5.5955    0.5210 C.ar      1 <0>        -0.0684
     26 C18         2.0202    6.4240    0.0297 C.ar      1 <0>        -0.1043
     27 C19         1.9118    7.7937    0.1786 C.ar      1 <0>         0.0808
     28 C20         0.8031    8.3379    0.8097 C.ar      1 <0>        -0.1198
     29 C21        -0.2000    7.5233    1.2941 C.ar      1 <0>        -0.1061
     30 C22        -0.1080    6.1430    1.1533 C.ar      1 <0>         0.1250
     31 N4         -0.9593    5.1144    1.5420 N.am      1 <0>        -0.6604
     32 C23        -0.4649    3.9133    1.1971 C.2       1 <0>         0.5647
     33 O4         -0.9909    2.8351    1.4086 O.2       1 <0>        -0.5132
     34 F1          2.8866    8.6030   -0.2904 F         1 <0>        -0.1355
     35 H3          3.9167    1.7678    0.4131 H         1 <0>         0.0672
     36 H4          4.0776    0.1994   -0.4478 H         1 <0>         0.0746
     37 H5          3.7717    0.2252    1.3221 H         1 <0>         0.0710
     38 H6          1.3586   -1.9152    2.1775 H         1 <0>         0.4262
     39 H7          1.4633   -4.4786    0.7417 H         1 <0>         0.0750
     40 H8          3.1531   -3.9398    1.0266 H         1 <0>         0.0785
     41 H9          2.0023   -6.4143    2.3052 H         1 <0>         0.0900
     42 H10         3.6334   -5.7360    2.6307 H         1 <0>         0.0465
     43 H11         4.4130   -5.5254    4.9015 H         1 <0>         0.0459
     44 H12         3.1012   -4.3189    5.1257 H         1 <0>         0.0881
     45 H13         3.8925   -5.2859    7.3064 H         1 <0>         0.1001
     46 H14         2.1618   -5.6458    6.9871 H         1 <0>         0.0615
     47 H15         2.9156   -9.1033    6.0238 H         1 <0>         0.1009
     48 H16         1.5805   -7.9185    6.2243 H         1 <0>         0.0621
     49 H17         2.1104   -8.1883    3.8234 H         1 <0>         0.0898
     50 H18         3.8332   -7.7899    4.1393 H         1 <0>         0.0455
     51 H19         0.3780   -4.6185    4.2583 H         1 <0>         0.4136
     52 H20        -0.9523   -1.9052   -0.3757 H         1 <0>         0.0845
     53 H21        -1.6843   -0.6508   -1.4328 H         1 <0>         0.0777
     54 H22        -1.9909   -0.6245    0.3369 H         1 <0>         0.0809
     55 H23         2.6624    3.4568   -0.3709 H         1 <0>         0.1579
     56 H24         2.8828    5.9984   -0.4614 H         1 <0>         0.1409
     57 H25         0.7239    9.4091    0.9228 H         1 <0>         0.1443
     58 H26        -1.0583    7.9589    1.7840 H         1 <0>         0.1386
     59 H27        -1.9003    5.3463    2.0623 H         1 <0>         0.4455
@<TRIPOS>BOND
     1    1    2 1
     2    1   35 1
     3    1   36 1
     4    1   37 1
     5    2    7 1
     6    2    3 2
     7    3    4 1
     8    3   23 1
     9    4    5 1
    10    4    6 1
    11    6    7 2
    12    6   22 1
    13    7    8 1
    14    8    9 2
    15    8   10 am
    16   10   11 1
    17   10   38 1
    18   11   12 1
    19   11   39 1
    20   11   40 1
    21   12   13 1
    22   12   14 1
    23   12   21 1
    24   14   15 1
    25   14   41 1
    26   14   42 1
    27   15   20 1
    28   15   16 1
    29   16   17 1
    30   16   43 1
    31   16   44 1
    32   17   18 1
    33   17   45 1
    34   17   46 1
    35   18   19 1
    36   19   20 1
    37   19   47 1
    38   19   48 1
    39   20   49 1
    40   20   50 1
    41   21   51 1
    42   22   52 1
    43   22   53 1
    44   22   54 1
    45   23   24 2
    46   23   55 1
    47   24   32 1
    48   24   25 1
    49   25   30 ar
    50   25   26 ar
    51   26   27 ar
    52   26   56 1
    53   27   28 ar
    54   27   34 1
    55   28   29 ar
    56   28   57 1
    57   29   30 ar
    58   29   58 1
    59   30   31 1
    60   31   32 am
    61   31   59 1
    62   32   33 2
@<TRIPOS>MOLECULE
ZINC18825344
   59    62     0     0     0
SMALL
USER_CHARGES
5-[(Z)-(5-fluoro-2-oxo-indolin-3-ylidene)methyl]-N-[(2S)-2-hydroxy-3-morpholino-propyl]-2,4-dimethyl-1H-pyrrole-3-carboxamide
@<TRIPOS>ATOM
      1 C1          4.7056    0.6287    1.0117 C.3       1 <0>        -0.0968
      2 C2          3.2464    0.8378    0.6983 C.2       1 <0>        -0.0523
      3 C3          2.5980    2.0501    0.5678 C.2       1 <0>        -0.0327
      4 N1          1.2732    1.7961    0.2789 N.pl3     1 <0>        -0.5060
      5 H1          0.5720    2.6311    0.1339 H         1 <0>         0.4496
      6 C4          1.0783    0.4679    0.2258 C.2       1 <0>         0.1246
      7 C5          2.2801   -0.1676    0.4808 C.2       1 <0>        -0.2308
      8 C6          2.5088   -1.6234    0.5191 C.2       1 <0>         0.5976
      9 O1          2.8262   -2.2159   -0.4944 O.2       1 <0>        -0.5428
     10 N2          2.3662   -2.2977    1.6773 N.am      1 <0>        -0.7254
     11 C7          2.5935   -3.7444    1.7154 C.3       1 <0>         0.1298
     12 C8          2.3672   -4.2590    3.1384 C.3       1 <0>         0.1172
     13 H2          1.3599   -4.0040    3.4994 H         1 <0>         0.0560
     14 C9          2.6045   -5.7699    3.1781 C.3       1 <0>         0.0219
     15 N3          2.3382   -6.2720    4.5327 N.3       1 <0>        -0.5356
     16 C10         2.9762   -7.5793    4.7450 C.3       1 <0>         0.0168
     17 C11         2.7241   -8.0365    6.1842 C.3       1 <0>         0.0612
     18 O2          1.3152   -8.0759    6.4267 O.3       1 <0>        -0.3844
     19 C12         0.6618   -6.8191    6.2299 C.3       1 <0>         0.0617
     20 C13         0.8930   -6.3496    4.7911 C.3       1 <0>         0.0111
     21 O3          3.2765   -3.6103    4.0297 O.3       1 <0>        -0.5892
     22 C14        -0.2328   -0.2165   -0.0637 C.3       1 <0>        -0.0987
     23 C15         3.1876    3.3256    0.7056 C.2       1 <0>         0.0935
     24 C16         2.4515    4.3746    1.2192 C.2       1 <0>        -0.2157
     25 C17         2.8515    5.7966    1.3077 C.ar      1 <0>        -0.0669
     26 C18         3.9943    6.4912    0.9234 C.ar      1 <0>        -0.1048
     27 C19         4.0710    7.8545    1.1363 C.ar      1 <0>         0.0814
     28 C20         3.0098    8.5263    1.7247 C.ar      1 <0>        -0.1204
     29 C21         1.8704    7.8457    2.1029 C.ar      1 <0>        -0.1055
     30 C22         1.7753    6.4739    1.8965 C.ar      1 <0>         0.1237
     31 N4          0.7622    5.5637    2.1775 N.am      1 <0>        -0.6596
     32 C23         1.1039    4.3195    1.8021 C.2       1 <0>         0.5657
     33 O4          0.4171    3.3209    1.9242 O.2       1 <0>        -0.5153
     34 F1          5.1807    8.5334    0.7715 F         1 <0>        -0.1355
     35 H3          5.1994    1.6049    1.1269 H         1 <0>         0.0668
     36 H4          5.1808    0.0720    0.1906 H         1 <0>         0.0744
     37 H5          4.8016    0.0567    1.9464 H         1 <0>         0.0741
     38 H6          2.0791   -1.7617    2.5940 H         1 <0>         0.4273
     39 H7          1.8935   -4.2437    1.0293 H         1 <0>         0.0777
     40 H8          3.6268   -3.9615    1.4070 H         1 <0>         0.0736
     41 H9          1.9304   -6.2658    2.4641 H         1 <0>         0.0486
     42 H10         3.6486   -5.9844    2.9062 H         1 <0>         0.0884
     43 H11         2.5501   -8.3132    4.0451 H         1 <0>         0.0451
     44 H12         4.0587   -7.4917    4.5704 H         1 <0>         0.0900
     45 H13         3.1515   -9.0395    6.3305 H         1 <0>         0.1008
     46 H14         3.1986   -7.3305    6.8817 H         1 <0>         0.0620
     47 H15        -0.4170   -6.9344    6.4112 H         1 <0>         0.1000
     48 H16         1.0741   -6.0778    6.9303 H         1 <0>         0.0613
     49 H17         0.4415   -5.3564    4.6504 H         1 <0>         0.0873
     50 H18         0.4333   -7.0637    4.0920 H         1 <0>         0.0461
     51 H19         3.2627   -3.8533    5.1024 H         1 <0>         0.4141
     52 H20        -0.0899   -1.3070   -0.0417 H         1 <0>         0.0829
     53 H21        -0.5927    0.0862   -1.0581 H         1 <0>         0.0781
     54 H22        -0.9728    0.0718    0.6974 H         1 <0>         0.0803
     55 H23         4.2335    3.4835    0.4037 H         1 <0>         0.1584
     56 H24         4.8196    5.9664    0.4654 H         1 <0>         0.1411
     57 H25         3.0756    9.5918    1.8882 H         1 <0>         0.1443
     58 H26         1.0507    8.3797    2.5605 H         1 <0>         0.1385
     59 H27        -0.1701    5.9069    2.6497 H         1 <0>         0.4455
@<TRIPOS>BOND
     1    1    2 1
     2    1   35 1
     3    1   36 1
     4    1   37 1
     5    2    7 1
     6    2    3 2
     7    3    4 1
     8    3   23 1
     9    4    5 1
    10    4    6 1
    11    6    7 2
    12    6   22 1
    13    7    8 1
    14    8    9 2
    15    8   10 am
    16   10   11 1
    17   10   38 1
    18   11   12 1
    19   11   39 1
    20   11   40 1
    21   12   13 1
    22   12   14 1
    23   12   21 1
    24   14   15 1
    25   14   41 1
    26   14   42 1
    27   15   20 1
    28   15   16 1
    29   16   17 1
    30   16   43 1
    31   16   44 1
    32   17   18 1
    33   17   45 1
    34   17   46 1
    35   18   19 1
    36   19   20 1
    37   19   47 1
    38   19   48 1
    39   20   49 1
    40   20   50 1
    41   21   51 1
    42   22   52 1
    43   22   53 1
    44   22   54 1
    45   23   24 2
    46   23   55 1
    47   24   32 1
    48   24   25 1
    49   25   30 ar
    50   25   26 ar
    51   26   27 ar
    52   26   56 1
    53   27   28 ar
    54   27   34 1
    55   28   29 ar
    56   28   57 1
    57   29   30 ar
    58   29   58 1
    59   30   31 1
    60   31   32 am
    61   31   59 1
    62   32   33 2
@<TRIPOS>MOLECULE
ZINC35902489
   54    57     0     0     0
SMALL
USER_CHARGES

@<TRIPOS>ATOM
      1 C1         -0.2366    1.5009   -0.1002 C.3       1 <0>        -0.1868
      2 C2          0.0023   -0.0068    0.0032 C.3       1 <0>         0.1262
      3 H1         -0.9541   -0.5203    0.1009 H         1 <0>         0.1027
      4 C3          0.8549   -0.2986    1.2111 C.ar      1 <0>        -0.0648
      5 C4          2.2095   -0.0176    1.1860 C.ar      1 <0>        -0.0174
      6 C5          2.9928   -0.2851    2.2943 C.ar      1 <0>        -0.0698
      7 C6          2.4230   -0.8330    3.4283 C.ar      1 <0>        -0.1110
      8 C7          1.0682   -1.1142    3.4552 C.ar      1 <0>         0.1278
      9 C8          0.2825   -0.8418    2.3465 C.ar      1 <0>        -0.0562
     10 Cl1        -1.4183   -1.1878    2.3810 Cl        1 <0>        -0.0259
     11 F1          0.5110   -1.6502    4.5631 F         1 <0>        -0.1090
     12 Cl2         2.9265    0.6706   -0.2374 Cl        1 <0>        -0.0327
     13 O1          0.6709   -0.4649   -1.1737 O.3       1 <0>        -0.2750
     14 C9         -0.1076   -0.7749   -2.2450 C.ar      1 <0>         0.0922
     15 C10        -1.4721   -0.5389   -2.2126 C.ar      1 <0>        -0.0840
     16 C11        -2.2312   -0.8738   -3.3386 C.ar      1 <0>         0.0162
     17 C12        -1.5947   -1.4281   -4.4440 C.ar      1 <0>         0.0781
     18 N1         -0.2926   -1.6388   -4.4381 N.ar      1 <0>        -0.4651
     19 C13         0.4590   -1.3297   -3.3941 C.ar      1 <0>         0.4321
     20 N2          1.8309   -1.5659   -3.4397 N.pl3     1 <0>        -0.8070
     21 C14        -3.6979   -0.6410   -3.3535 C.2       1 <0>        -0.2043
     22 C15        -4.4627   -0.0847   -2.3100 C.2       1 <0>         0.0864
     23 N3         -5.7097   -0.0414   -2.6987 N.2       1 <0>        -0.2628
     24 N4         -5.7898   -0.5640   -3.9951 N.pl3     1 <0>        -0.3634
     25 C16        -4.5480   -0.9216   -4.3826 C.2       1 <0>         0.0838
     26 C17        -7.0103   -0.6949   -4.7948 C.3       1 <0>         0.1502
     27 C18        -6.9271   -1.9605   -5.6529 C.3       1 <0>        -0.1621
     28 C19        -8.1684   -2.0490   -6.5433 C.3       1 <0>        -0.0015
     29 N5         -8.2355   -0.8693   -7.4141 N.4       1 <0>        -0.5088
     30 C20        -8.3877    0.3426   -6.6000 C.3       1 <0>        -0.0035
     31 C21        -7.1548    0.5231   -5.7117 C.3       1 <0>        -0.1623
     32 H2          0.7199    2.0145   -0.1979 H         1 <0>         0.0878
     33 H3         -0.8533    1.7120   -0.9739 H         1 <0>         0.0744
     34 H4         -0.7466    1.8504    0.7975 H         1 <0>         0.0940
     35 H5          4.0502   -0.0661    2.2735 H         1 <0>         0.1611
     36 H6          3.0352   -1.0420    4.2932 H         1 <0>         0.1666
     37 H7         -1.9384   -0.1073   -1.3393 H         1 <0>         0.1754
     38 H8         -2.1735   -1.6895   -5.3175 H         1 <0>         0.2000
     39 H9          2.3867   -1.3451   -2.6760 H         1 <0>         0.4445
     40 H10         2.2306   -1.9511   -4.2352 H         1 <0>         0.4249
     41 H11        -4.0846    0.2477   -1.3545 H         1 <0>         0.1959
     42 H12        -4.2766   -1.3540   -5.3343 H         1 <0>         0.1825
     43 H13        -7.8744   -0.7577   -4.1333 H         1 <0>         0.1289
     44 H14        -6.0340   -1.9194   -6.2765 H         1 <0>         0.0978
     45 H15        -6.8801   -2.8365   -5.0059 H         1 <0>         0.1266
     46 H16        -8.1124   -2.9491   -7.1555 H         1 <0>         0.1473
     47 H17        -9.0608   -2.0903   -5.9188 H         1 <0>         0.1409
     48 H18        -7.3873   -0.8043   -7.9567 H         1 <0>         0.4290
     49 H19        -8.4936    1.2082   -7.2540 H         1 <0>         0.1462
     50 H20        -9.2754    0.2503   -5.9742 H         1 <0>         0.1402
     51 H21        -7.2705    1.4224   -5.1068 H         1 <0>         0.1256
     52 H22        -6.2665    0.6158   -6.3365 H         1 <0>         0.0962
     53 H23        -9.0248   -0.9564   -8.0365 H         1 <0>         0.4414
     54 H24         0.1260   -2.0273   -5.2222 H         1 <0>         0.4508
@<TRIPOS>BOND
     1    1    2 1
     2    1   32 1
     3    1   33 1
     4    1   34 1
     5    2    3 1
     6    2    4 1
     7    2   13 1
     8    4    9 ar
     9    4    5 ar
    10    5    6 ar
    11    5   12 1
    12    6    7 ar
    13    6   35 1
    14    7    8 ar
    15    7   36 1
    16    8    9 ar
    17    8   11 1
    18    9   10 1
    19   13   14 1
    20   14   19 ar
    21   14   15 ar
    22   15   16 ar
    23   15   37 1
    24   16   17 ar
    25   16   21 1
    26   17   18 ar
    27   17   38 1
    28   18   19 ar
    29   18   54 1
    30   19   20 1
    31   20   39 1
    32   20   40 1
    33   21   25 2
    34   21   22 1
    35   22   23 2
    36   22   41 1
    37   23   24 1
    38   24   25 1
    39   24   26 1
    40   25   42 1
    41   26   31 1
    42   26   27 1
    43   26   43 1
    44   27   28 1
    45   27   44 1
    46   27   45 1
    47   28   29 1
    48   28   46 1
    49   28   47 1
    50   29   30 1
    51   29   48 1
    52   29   53 1
    53   30   31 1
    54   30   49 1
    55   30   50 1
    56   31   51 1
    57   31   52 1
@<TRIPOS>MOLECULE
ZINC35902489
   53    56     0     0     0
SMALL
USER_CHARGES

@<TRIPOS>ATOM
      1 C1         -0.2366    1.5009   -0.1002 C.3       1 <0>        -0.1800
      2 C2          0.0023   -0.0068    0.0032 C.3       1 <0>         0.1238
      3 H1         -0.9541   -0.5203    0.1009 H         1 <0>         0.0939
      4 C3          0.8549   -0.2986    1.2111 C.ar      1 <0>        -0.0507
      5 C4          2.2095   -0.0176    1.1860 C.ar      1 <0>        -0.0168
      6 C5          2.9928   -0.2851    2.2943 C.ar      1 <0>        -0.0751
      7 C6          2.4230   -0.8330    3.4283 C.ar      1 <0>        -0.1208
      8 C7          1.0682   -1.1142    3.4552 C.ar      1 <0>         0.1197
      9 C8          0.2825   -0.8418    2.3465 C.ar      1 <0>        -0.0574
     10 Cl1        -1.4183   -1.1878    2.3810 Cl        1 <0>        -0.0303
     11 F1          0.5110   -1.6502    4.5631 F         1 <0>        -0.1157
     12 Cl2         2.9265    0.6706   -0.2374 Cl        1 <0>        -0.0266
     13 O1          0.6709   -0.4649   -1.1737 O.3       1 <0>        -0.2903
     14 C9         -0.1076   -0.7749   -2.2450 C.ar      1 <0>         0.0299
     15 C10        -1.4721   -0.5389   -2.2126 C.ar      1 <0>        -0.1219
     16 C11        -2.2312   -0.8738   -3.3386 C.ar      1 <0>        -0.0860
     17 C12        -1.5947   -1.4281   -4.4440 C.ar      1 <0>         0.1181
     18 N1         -0.2926   -1.6388   -4.4381 N.ar      1 <0>        -0.5097
     19 C13         0.4590   -1.3297   -3.3941 C.ar      1 <0>         0.3993
     20 N2          1.8309   -1.5659   -3.4397 N.pl3     1 <0>        -0.8414
     21 C14        -3.6979   -0.6410   -3.3535 C.2       1 <0>        -0.1558
     22 C15        -4.4627   -0.0847   -2.3100 C.2       1 <0>         0.0711
     23 N3         -5.7097   -0.0414   -2.6987 N.2       1 <0>        -0.2815
     24 N4         -5.7898   -0.5640   -3.9951 N.pl3     1 <0>        -0.3795
     25 C16        -4.5480   -0.9216   -4.3826 C.2       1 <0>         0.0495
     26 C17        -7.0103   -0.6949   -4.7948 C.3       1 <0>         0.1592
     27 C18        -6.9271   -1.9605   -5.6529 C.3       1 <0>        -0.1636
     28 C19        -8.1684   -2.0490   -6.5433 C.3       1 <0>         0.0000
     29 N5         -8.2355   -0.8693   -7.4141 N.4       1 <0>        -0.5082
     30 C20        -8.3877    0.3426   -6.6000 C.3       1 <0>        -0.0019
     31 C21        -7.1548    0.5231   -5.7117 C.3       1 <0>        -0.1640
     32 H2          0.7199    2.0145   -0.1979 H         1 <0>         0.0791
     33 H3         -0.8533    1.7120   -0.9739 H         1 <0>         0.0735
     34 H4         -0.7466    1.8504    0.7975 H         1 <0>         0.0781
     35 H5          4.0502   -0.0661    2.2735 H         1 <0>         0.1565
     36 H6          3.0352   -1.0420    4.2932 H         1 <0>         0.1608
     37 H7         -1.9384   -0.1073   -1.3393 H         1 <0>         0.1391
     38 H8         -2.1735   -1.6895   -5.3175 H         1 <0>         0.1503
     39 H9          2.3867   -1.3451   -2.6760 H         1 <0>         0.4140
     40 H10         2.2306   -1.9511   -4.2352 H         1 <0>         0.4065
     41 H11        -4.0846    0.2477   -1.3545 H         1 <0>         0.1874
     42 H12        -4.2766   -1.3540   -5.3343 H         1 <0>         0.1760
     43 H13        -7.8744   -0.7577   -4.1333 H         1 <0>         0.1197
     44 H14        -6.0340   -1.9194   -6.2765 H         1 <0>         0.0999
     45 H15        -6.8801   -2.8365   -5.0059 H         1 <0>         0.1250
     46 H16        -8.1124   -2.9491   -7.1555 H         1 <0>         0.1440
     47 H17        -9.0608   -2.0903   -5.9188 H         1 <0>         0.1374
     48 H18        -7.3873   -0.8043   -7.9567 H         1 <0>         0.4300
     49 H19        -8.4936    1.2082   -7.2540 H         1 <0>         0.1421
     50 H20        -9.2754    0.2503   -5.9742 H         1 <0>         0.1368
     51 H21        -7.2705    1.4224   -5.1068 H         1 <0>         0.1226
     52 H22        -6.2665    0.6158   -6.3365 H         1 <0>         0.0966
     53 H23        -9.0248   -0.9564   -8.0365 H         1 <0>         0.4369
@<TRIPOS>BOND
     1    1    2 1
     2    1   32 1
     3    1   33 1
     4    1   34 1
     5    2    3 1
     6    2    4 1
     7    2   13 1
     8    4    9 ar
     9    4    5 ar
    10    5    6 ar
    11    5   12 1
    12    6    7 ar
    13    6   35 1
    14    7    8 ar
    15    7   36 1
    16    8    9 ar
    17    8   11 1
    18    9   10 1
    19   13   14 1
    20   14   19 ar
    21   14   15 ar
    22   15   16 ar
    23   15   37 1
    24   16   17 ar
    25   16   21 1
    26   17   18 ar
    27   17   38 1
    28   18   19 ar
    29   19   20 1
    30   20   39 1
    31   20   40 1
    32   21   25 2
    33   21   22 1
    34   22   23 2
    35   22   41 1
    36   23   24 1
    37   24   25 1
    38   24   26 1
    39   25   42 1
    40   26   31 1
    41   26   27 1
    42   26   43 1
    43   27   28 1
    44   27   44 1
    45   27   45 1
    46   28   29 1
    47   28   46 1
    48   28   47 1
    49   29   30 1
    50   29   48 1
    51   29   53 1
    52   30   31 1
    53   30   49 1
    54   30   50 1
    55   31   51 1
    56   31   52 1
@<TRIPOS>MOLECULE
ZINC15659798
   31    33     0     0     0
SMALL
USER_CHARGES
5-[5-[(Z)-(2,4-dioxothiazolidin-5-ylidene)methyl]-2-furyl]-2-hydroxy-benzoic acid
@<TRIPOS>ATOM
      1 C1          6.2500    6.2710   -0.0234 C.ar      1 <0>        -0.0697
      2 C2          6.5169    7.6221   -0.0191 C.ar      1 <0>        -0.1681
      3 C3          5.4760    8.5409   -0.0052 C.ar      1 <0>         0.1631
      4 C4          4.1453    8.0942    0.0042 C.ar      1 <0>        -0.1446
      5 C5          3.8744    6.7268   -0.0050 C.ar      1 <0>        -0.0259
      6 C6          4.9271    5.8135   -0.0136 C.ar      1 <0>        -0.0846
      7 C7          4.6472    4.3650   -0.0187 C.2       1 <0>         0.1183
      8 C8          5.5923    3.3638   -0.0327 C.2       1 <0>        -0.2251
      9 C9          4.9013    2.1498   -0.0263 C.2       1 <0>        -0.1110
     10 C10         3.5522    2.4573   -0.0180 C.2       1 <0>        -0.0616
     11 O1          3.4258    3.8011   -0.0101 O.3       1 <0>        -0.1427
     12 C11         2.4920    1.5268   -0.0127 C.2       1 <0>         0.1185
     13 C12         1.1989    1.9652    0.0012 C.2       1 <0>        -0.2472
     14 C13        -0.0144    1.2138    0.0087 C.2       1 <0>         0.5659
     15 O2          0.0021   -0.0041    0.0020 O.2       1 <0>        -0.4900
     16 N1         -1.1566    1.8788    0.0176 N.am      1 <0>        -0.6887
     17 C14        -1.1745    3.2302    0.0297 C.2       1 <0>         0.5380
     18 O3         -2.1325    3.9799    0.0428 O.2       1 <0>        -0.4141
     19 S1          0.5650    3.6365    0.0155 S.3       1 <0>         0.0012
     20 C15         3.0381    9.0677    0.0190 C.2       1 <0>         0.4875
     21 O4          3.2767   10.2591    0.0231 O.co2     1 <0>        -0.6131
     22 O5          5.7449    9.8698   -0.0011 O.3       1 <0>        -0.4744
     23 H1          7.0644    5.5618   -0.0338 H         1 <0>         0.1284
     24 H2          7.5398    7.9683   -0.0263 H         1 <0>         0.1325
     25 H3          2.8528    6.3765   -0.0019 H         1 <0>         0.1437
     26 H4          6.6645    3.4927   -0.0422 H         1 <0>         0.1602
     27 H5          5.3364    1.1613   -0.0295 H         1 <0>         0.1632
     28 H6          2.7030    0.4676   -0.0197 H         1 <0>         0.1815
     29 H7         -1.9943    1.3898    0.0188 H         1 <0>         0.4172
     30 H8          5.8149   10.2596   -0.8832 H         1 <0>         0.3906
     31 O6          1.7616    8.6362    0.0280 O.co2     1 <0>        -0.7486
@<TRIPOS>BOND
     1    1    6 ar
     2    1    2 ar
     3    1   23 1
     4    2    3 ar
     5    2   24 1
     6    3    4 ar
     7    3   22 1
     8    4    5 ar
     9    4   20 1
    10    5    6 ar
    11    5   25 1
    12    6    7 1
    13    7   11 1
    14    7    8 2
    15    8    9 1
    16    8   26 1
    17    9   10 2
    18    9   27 1
    19   10   11 1
    20   10   12 1
    21   12   13 2
    22   12   28 1
    23   13   19 1
    24   13   14 1
    25   14   15 2
    26   14   16 am
    27   16   17 am
    28   16   29 1
    29   17   18 2
    30   17   19 1
    31   20   21 2
    32   20   31 1
    33   22   30 1
