@<TRIPOS>MOLECULE
ZINC03927570
   57    56     0     0     0
SMALL
USER_CHARGES

@<TRIPOS>ATOM
      1 C1         -0.2597    1.2718    0.4427 C.3       1 <0>        -0.1469
      2 C2         -0.2839   -0.2560    0.3637 C.3       1 <0>        -0.1434
      3 C3         -1.7287   -0.7359    0.2120 C.3       1 <0>         0.0132
      4 H1         -2.1848   -0.2489   -0.6499 H         1 <0>         0.1703
      5 C4         -1.7434   -2.2294    0.0111 C.2       1 <0>         0.4926
      6 O1         -1.9933   -2.9642    0.9430 O.2       1 <0>        -0.5262
      7 N1         -1.4789   -2.7485   -1.2043 N.am      1 <0>        -0.6690
      8 C5         -1.4932   -4.2004   -1.3996 C.3       1 <0>         0.0931
      9 C6         -1.1680   -4.5171   -2.8366 C.2       1 <0>         0.5186
     10 O2         -0.9462   -3.6186   -3.6204 O.2       1 <0>        -0.5609
     11 N2         -1.1237   -5.7989   -3.2507 N.am      1 <0>        -0.6568
     12 C7         -0.9138   -6.1039   -4.6682 C.3       1 <0>         0.1598
     13 H2         -0.1954   -5.4002   -5.0887 H         1 <0>         0.1117
     14 C8         -0.3744   -7.5287   -4.8088 C.3       1 <0>        -0.1925
     15 C9          0.9972   -7.6100   -4.1897 C.2       1 <0>         0.4972
     16 O3          1.5392   -6.6001   -3.7740 O.co2     1 <0>        -0.7009
     17 O4          1.5648   -8.6856   -4.1045 O.co2     1 <0>        -0.6939
     18 C10        -2.2224   -5.9871   -5.4063 C.2       1 <0>         0.5098
     19 O5         -3.2311   -5.6794   -4.8074 O.2       1 <0>        -0.5631
     20 N3         -2.2719   -6.2246   -6.7321 N.am      1 <0>        -0.6861
     21 C11        -3.5440   -6.1110   -7.4496 C.3       1 <0>         0.0722
     22 H3         -4.1353   -5.3047   -7.0156 H         1 <0>         0.0880
     23 C12        -3.2724   -5.8073   -8.9244 C.3       1 <0>         0.0903
     24 O6         -2.5985   -6.9163   -9.5228 O.3       1 <0>        -0.5565
     25 C13        -4.3028   -7.4080   -7.3353 C.2       1 <0>         0.5006
     26 O7         -3.8251   -8.3408   -6.7122 O.co2     1 <0>        -0.6742
     27 O8         -5.3943   -7.5246   -7.8660 O.co2     1 <0>        -0.7069
     28 N4         -2.4870   -0.3974    1.4238 N.4       1 <0>        -0.6215
     29 C14         1.1851    1.7518    0.5944 C.3       1 <0>         0.0920
     30 N5          1.2083    3.2147    0.6701 N.pl3     1 <0>        -0.7008
     31 C15         2.3990    3.8736    0.8084 C.cat     1 <0>         0.7451
     32 N6          2.4201    5.2036    0.8772 N.pl3     1 <0>        -0.7917
     33 N7          3.5374    3.1852    0.8742 N.pl3     1 <0>        -0.7893
     34 H4         -0.6875    1.6896   -0.4686 H         1 <0>         0.1036
     35 H5         -0.8439    1.6005    1.3022 H         1 <0>         0.0786
     36 H6          0.3003   -0.5846   -0.4958 H         1 <0>         0.1315
     37 H7          0.1439   -0.6737    1.2750 H         1 <0>         0.1088
     38 H8         -1.2790   -2.1608   -1.9496 H         1 <0>         0.4197
     39 H9         -0.7505   -4.6618   -0.7488 H         1 <0>         0.1129
     40 H10        -2.4817   -4.5900   -1.1563 H         1 <0>         0.1137
     41 H11        -1.2309   -6.5195   -2.6103 H         1 <0>         0.4047
     42 H12        -1.0440   -8.2226   -4.3007 H         1 <0>         0.0754
     43 H13        -0.3124   -7.7912   -5.8649 H         1 <0>         0.0875
     44 H14        -1.4651   -6.4707   -7.2111 H         1 <0>         0.3975
     45 H15        -4.2172   -5.6351   -9.4399 H         1 <0>         0.0591
     46 H16        -2.6481   -4.9173   -9.0031 H         1 <0>         0.0343
     47 H17        -2.3939   -6.7932  -10.4599 H         1 <0>         0.3669
     48 H18        -2.0648   -0.8483    2.2216 H         1 <0>         0.4428
     49 H19        -2.4771    0.6026    1.5583 H         1 <0>         0.4331
     50 H20         1.6130    1.3340    1.5058 H         1 <0>         0.0989
     51 H21         1.7693    1.4231   -0.2651 H         1 <0>         0.1045
     52 H22         0.3793    3.7160    0.6221 H         1 <0>         0.4354
     53 H23         1.5911    5.7049    0.8292 H         1 <0>         0.4414
     54 H24         3.5220    2.2166    0.8241 H         1 <0>         0.4412
     55 H25         4.3818    3.6524    0.9723 H         1 <0>         0.4436
     56 H26         3.2645    5.6708    0.9752 H         1 <0>         0.4436
     57 H27        -3.4398   -0.7139    1.3237 H         1 <0>         0.4473
@<TRIPOS>BOND
     1    1    2 1
     2    1   29 1
     3    1   34 1
     4    1   35 1
     5    2    3 1
     6    2   36 1
     7    2   37 1
     8    3    4 1
     9    3    5 1
    10    3   28 1
    11    5    6 2
    12    5    7 am
    13    7    8 1
    14    7   38 1
    15    8    9 1
    16    8   39 1
    17    8   40 1
    18    9   10 2
    19    9   11 am
    20   11   12 1
    21   11   41 1
    22   12   13 1
    23   12   14 1
    24   12   18 1
    25   14   15 1
    26   14   42 1
    27   14   43 1
    28   15   16 2
    29   15   17 1
    30   18   19 2
    31   18   20 am
    32   20   21 1
    33   20   44 1
    34   21   22 1
    35   21   23 1
    36   21   25 1
    37   23   24 1
    38   23   45 1
    39   23   46 1
    40   24   47 1
    41   25   26 2
    42   25   27 1
    43   28   48 1
    44   28   49 1
    45   28   57 1
    46   29   30 1
    47   29   50 1
    48   29   51 1
    49   30   31 1
    50   30   52 1
    51   31   32 2
    52   31   33 1
    53   32   53 1
    54   32   56 1
    55   33   54 1
    56   33   55 1
@<TRIPOS>MOLECULE
ZINC13532268
   46    45     0     0     0
SMALL
USER_CHARGES
(2S)-2-[[2-[[(2S)-2-amino-5-guanidino-pentanoyl]amino]acetyl]amino]butanedioic acid
@<TRIPOS>ATOM
      1 C1          7.1555    4.6800   -0.9335 C.3       1 <0>        -0.1544
      2 C2          5.9155    3.8449   -0.6078 C.3       1 <0>        -0.1467
      3 C3          5.7823    3.7000    0.9094 C.3       1 <0>         0.0175
      4 H1          5.7739    4.6881    1.3693 H         1 <0>         0.1682
      5 C4          4.4970    2.9835    1.2347 C.2       1 <0>         0.4921
      6 O1          4.5129    1.8002    1.5003 O.2       1 <0>        -0.5314
      7 N1          3.3300    3.6576    1.2304 N.am      1 <0>        -0.6646
      8 C5          2.0806    2.9611    1.5465 C.3       1 <0>         0.0937
      9 C6          0.9312    3.9329    1.4727 C.2       1 <0>         0.5095
     10 O2          1.1355    5.0931    1.1843 O.2       1 <0>        -0.5669
     11 N2         -0.3240    3.5127    1.7271 N.am      1 <0>        -0.6501
     12 C7         -1.4421    4.4561    1.6493 C.3       1 <0>         0.1242
     13 H2         -1.2543    5.1773    0.8539 H         1 <0>         0.0915
     14 C8         -2.7338    3.6924    1.3508 C.3       1 <0>        -0.1547
     15 C9         -2.6434    3.0678   -0.0176 C.2       1 <0>         0.4646
     16 O3         -1.6478    3.2181   -0.6857 O.co2     1 <0>        -0.6465
     17 C10        -1.5795    5.1815    2.9631 C.2       1 <0>         0.4625
     18 O4         -0.8213    4.9357    3.8712 O.co2     1 <0>        -0.6474
     19 C11         7.2888    4.8248   -2.4508 C.3       1 <0>         0.0983
     20 C12         9.5205    5.1946   -3.4243 C.cat     1 <0>         0.7404
     21 N3          9.5028    3.9439   -3.9949 N.pl3     1 <0>        -0.8063
     22 N4         10.6340    5.9913   -3.5487 N.pl3     1 <0>        -0.8101
     23 H3          7.0578    5.6669   -0.4815 H         1 <0>         0.1037
     24 H4          8.0416    4.1847   -0.5366 H         1 <0>         0.0723
     25 H5          6.0133    2.8579   -1.0599 H         1 <0>         0.1068
     26 H6          5.0295    4.3401   -1.0048 H         1 <0>         0.1331
     27 H7          3.3173    4.6040    1.0179 H         1 <0>         0.4198
     28 H8          2.1408    2.5454    2.5524 H         1 <0>         0.1086
     29 H9          1.9220    2.1557    0.8295 H         1 <0>         0.1098
     30 H10        -0.4874    2.5849    1.9577 H         1 <0>         0.3933
     31 H11        -2.8752    2.9116    2.0980 H         1 <0>         0.0635
     32 H12        -3.5782    4.3811    1.3808 H         1 <0>         0.0924
     33 H13         6.8881    2.8728    2.4363 H         1 <0>         0.4486
     34 H14         6.9484    2.0068    1.0177 H         1 <0>         0.4438
     35 H15         7.3864    3.8378   -2.9028 H         1 <0>         0.1066
     36 H16         6.4026    5.3200   -2.8478 H         1 <0>         0.1229
     37 H17         8.6752    3.4394   -4.0319 H         1 <0>         0.4374
     38 H18        10.3179    3.5661   -4.3605 H         1 <0>         0.4416
     39 H19        10.6465    6.8737   -3.1461 H         1 <0>         0.4395
     40 H20        11.4072    5.6710   -4.0392 H         1 <0>         0.4387
     41 O5         -3.6687    2.3446   -0.4944 O.co2     1 <0>        -0.7787
     42 O6         -2.5443    6.1007    3.1244 O.co2     1 <0>        -0.7621
     43 N5          6.9377    2.9421    1.4212 N.4       1 <0>        -0.6298
     44 H21         7.8032    3.4292    1.1606 H         1 <0>         0.4342
     45 N6          8.4817    5.6923   -2.7422 N.pl3     1 <0>        -0.6874
     46 H22         8.4996    6.6664   -2.4182 H         1 <0>         0.4578
@<TRIPOS>BOND
     1    1    2 1
     2    1   19 1
     3    1   23 1
     4    1   24 1
     5    2    3 1
     6    2   25 1
     7    2   26 1
     8    3    4 1
     9    3    5 1
    10    3   43 1
    11    5    6 2
    12    5    7 am
    13    7    8 1
    14    7   27 1
    15    8    9 1
    16    8   28 1
    17    8   29 1
    18    9   10 2
    19    9   11 am
    20   11   12 1
    21   11   30 1
    22   12   13 1
    23   12   14 1
    24   12   17 1
    25   14   15 1
    26   14   31 1
    27   14   32 1
    28   15   16 2
    29   15   41 1
    30   17   18 2
    31   17   42 1
    32   19   35 1
    33   19   36 1
    34   19   45 1
    35   20   21 1
    36   20   22 1
    37   20   45 2
    38   21   37 1
    39   21   38 1
    40   22   39 1
    41   22   40 1
    42   33   43 1
    43   34   43 1
    44   43   44 1
    45   45   46 1
