@<TRIPOS>MOLECULE
ZINC03815700
   43    46     0     0     0
SMALL
USER_CHARGES

@<TRIPOS>ATOM
      1 C1         -0.4417    2.5108    0.1274 C.3       1 <0>        -0.4980
      2 S1         -0.2285    0.7138    0.0013 S.o       1 <0>         1.3317
      3 O1          0.3381    0.2184    1.2066 O.2       1 <0>        -0.8500
      4 C2         -1.8753    0.0872    0.0153 C.ar      1 <0>        -0.4539
      5 C3         -2.4807   -0.2316    1.2179 C.ar      1 <0>        -0.0505
      6 C4         -3.7698   -0.7226    1.2359 C.ar      1 <0>        -0.0905
      7 C5         -4.4635   -0.8973    0.0374 C.ar      1 <0>         0.0183
      8 C6         -3.8471   -0.5733   -1.1722 C.ar      1 <0>        -0.1282
      9 C7         -2.5593   -0.0786   -1.1759 C.ar      1 <0>        -0.0372
     10 C8         -5.8450   -1.4235    0.0492 C.2       1 <0>         0.2539
     11 N1         -6.6187   -1.6414   -1.0552 N.pl3     1 <0>        -0.5494
     12 H1         -6.3641   -1.4808   -1.9773 H         1 <0>         0.4258
     13 C9         -7.8254   -2.1307   -0.6157 C.2       1 <0>         0.0559
     14 C10        -7.7421   -2.1946    0.7659 C.2       1 <0>         0.0600
     15 N2         -6.5217   -1.7612    1.1224 N.2       1 <0>        -0.4460
     16 C11        -8.8052   -2.6624    1.6841 C.ar      1 <0>         0.0397
     17 C12        -9.5683   -3.7960    1.3824 C.ar      1 <0>        -0.1547
     18 C13       -10.5481   -4.1969    2.2660 C.ar      1 <0>         0.1020
     19 N3        -10.7699   -3.5273    3.3814 N.ar      1 <0>        -0.4829
     20 C14       -10.0734   -2.4536    3.7038 C.ar      1 <0>         0.1009
     21 C15        -9.0708   -1.9865    2.8804 C.ar      1 <0>        -0.1469
     22 C16        -8.9814   -2.5126   -1.4503 C.ar      1 <0>        -0.0400
     23 C17       -10.2631   -2.0665   -1.1192 C.ar      1 <0>        -0.0563
     24 C18       -11.3392   -2.4265   -1.9026 C.ar      1 <0>        -0.1471
     25 C19       -11.1511   -3.2299   -3.0163 C.ar      1 <0>         0.1129
     26 C20        -9.8817   -3.6756   -3.3498 C.ar      1 <0>        -0.1491
     27 C21        -8.7972   -3.3169   -2.5775 C.ar      1 <0>        -0.0765
     28 F1        -12.2093   -3.5802   -3.7797 F         1 <0>        -0.1335
     29 H2          0.5355    2.9936    0.1264 H         1 <0>         0.1086
     30 H3         -1.0243    2.8681   -0.7218 H         1 <0>         0.1118
     31 H4         -0.9645    2.7506    1.0533 H         1 <0>         0.0820
     32 H5         -1.9427   -0.0960    2.1446 H         1 <0>         0.1340
     33 H6         -4.2409   -0.9717    2.1752 H         1 <0>         0.1409
     34 H7         -4.3783   -0.7065   -2.1030 H         1 <0>         0.1252
     35 H8         -2.0825    0.1760   -2.1109 H         1 <0>         0.1447
     36 H9         -9.3927   -4.3483    0.4711 H         1 <0>         0.1333
     37 H10       -11.1422   -5.0705    2.0420 H         1 <0>         0.1579
     38 H11       -10.2890   -1.9361    4.6268 H         1 <0>         0.1588
     39 H12        -8.5017   -1.1100    3.1527 H         1 <0>         0.1379
     40 H13       -10.4110   -1.4411   -0.2513 H         1 <0>         0.1357
     41 H14       -12.3306   -2.0822   -1.6477 H         1 <0>         0.1434
     42 H15        -9.7412   -4.3013   -4.2187 H         1 <0>         0.1424
     43 H16        -7.8079   -3.6609   -2.8410 H         1 <0>         0.1331
@<TRIPOS>BOND
     1    1    2 1
     2    1   29 1
     3    1   30 1
     4    1   31 1
     5    2    3 2
     6    2    4 1
     7    4    9 ar
     8    4    5 ar
     9    5    6 ar
    10    5   32 1
    11    6    7 ar
    12    6   33 1
    13    7    8 ar
    14    7   10 1
    15    8    9 ar
    16    8   34 1
    17    9   35 1
    18   10   15 2
    19   10   11 1
    20   11   12 1
    21   11   13 1
    22   13   14 2
    23   13   22 1
    24   14   15 1
    25   14   16 1
    26   16   21 ar
    27   16   17 ar
    28   17   18 ar
    29   17   36 1
    30   18   19 ar
    31   18   37 1
    32   19   20 ar
    33   20   21 ar
    34   20   38 1
    35   21   39 1
    36   22   27 ar
    37   22   23 ar
    38   23   24 ar
    39   23   40 1
    40   24   25 ar
    41   24   41 1
    42   25   26 ar
    43   25   28 1
    44   26   27 ar
    45   26   42 1
    46   27   43 1
@<TRIPOS>MOLECULE
ZINC18274812
   43    46     0     0     0
SMALL
USER_CHARGES

@<TRIPOS>ATOM
      1 C1          0.0458    2.4645   -0.3714 C.3       1 <0>        -0.4977
      2 S1          0.1034    0.6635   -0.1624 S.o       1 <0>         1.3328
      3 O1          0.9995    0.3374    0.8912 O.2       1 <0>        -0.8522
      4 C2          0.9248    0.0922   -1.6127 C.ar      1 <0>        -0.4531
      5 C3          0.1894   -0.2245   -2.7411 C.ar      1 <0>        -0.0385
      6 C4          0.8263   -0.6720   -3.8801 C.ar      1 <0>        -0.0921
      7 C5          2.2157   -0.8050   -3.8925 C.ar      1 <0>         0.0171
      8 C6          2.9515   -0.4838   -2.7508 C.ar      1 <0>        -0.1253
      9 C7          2.3027   -0.0324   -1.6200 C.ar      1 <0>        -0.0497
     10 C8          2.9049   -1.2844   -5.1094 C.2       1 <0>         0.2582
     11 N1          4.2515   -1.4590   -5.2384 N.pl3     1 <0>        -0.5486
     12 H1          4.9216   -1.2936   -4.5568 H         1 <0>         0.4252
     13 C9          4.4814   -1.9147   -6.5171 C.2       1 <0>         0.0337
     14 C10         3.2416   -2.0017   -7.1294 C.2       1 <0>         0.0807
     15 N2          2.3171   -1.6154   -6.2370 N.2       1 <0>        -0.4488
     16 C11         2.9826   -2.4473   -8.5186 C.ar      1 <0>        -0.0206
     17 C12         3.6496   -3.5590   -9.0325 C.ar      1 <0>        -0.0694
     18 C13         3.4051   -3.9700  -10.3265 C.ar      1 <0>        -0.1511
     19 C14         2.4988   -3.2799  -11.1154 C.ar      1 <0>         0.1060
     20 C15         1.8337   -2.1747  -10.6093 C.ar      1 <0>        -0.1526
     21 C16         2.0668   -1.7598   -9.3145 C.ar      1 <0>        -0.0599
     22 F1          2.2634   -3.6856  -12.3824 F         1 <0>        -0.1371
     23 C17         5.7881   -2.2443   -7.1163 C.ar      1 <0>         0.0226
     24 C18         6.1399   -1.7662   -8.3862 C.ar      1 <0>        -0.1423
     25 C19         7.3716   -2.0992   -8.9074 C.ar      1 <0>         0.1081
     26 N3          8.2131   -2.8565   -8.2286 N.ar      1 <0>        -0.4784
     27 C20         7.9224   -3.3278   -7.0303 C.ar      1 <0>         0.1071
     28 C21         6.7158   -3.0398   -6.4296 C.ar      1 <0>        -0.1652
     29 H2          1.0609    2.8540   -0.4489 H         1 <0>         0.0810
     30 H3         -0.5069    2.7075   -1.2790 H         1 <0>         0.1130
     31 H4         -0.4514    2.9143    0.4881 H         1 <0>         0.1088
     32 H5         -0.8856   -0.1215   -2.7301 H         1 <0>         0.1470
     33 H6          0.2512   -0.9192   -4.7602 H         1 <0>         0.1462
     34 H7          4.0268   -0.5845   -2.7539 H         1 <0>         0.1202
     35 H8          2.8713    0.2203   -0.7373 H         1 <0>         0.1322
     36 H9          4.3566   -4.0971   -8.4186 H         1 <0>         0.1287
     37 H10         3.9211   -4.8308  -10.7253 H         1 <0>         0.1387
     38 H11         1.1282   -1.6400  -11.2280 H         1 <0>         0.1401
     39 H12         1.5446   -0.9009   -8.9194 H         1 <0>         0.1377
     40 H13         5.4562   -1.1467   -8.9476 H         1 <0>         0.1400
     41 H14         7.6520   -1.7358   -9.8850 H         1 <0>         0.1626
     42 H15         8.6418   -3.9441   -6.5116 H         1 <0>         0.1610
     43 H16         6.4868   -3.4248   -5.4469 H         1 <0>         0.1340
@<TRIPOS>BOND
     1    1    2 1
     2    1   29 1
     3    1   30 1
     4    1   31 1
     5    2    3 2
     6    2    4 1
     7    4    9 ar
     8    4    5 ar
     9    5    6 ar
    10    5   32 1
    11    6    7 ar
    12    6   33 1
    13    7    8 ar
    14    7   10 1
    15    8    9 ar
    16    8   34 1
    17    9   35 1
    18   10   15 2
    19   10   11 1
    20   11   12 1
    21   11   13 1
    22   13   14 2
    23   13   23 1
    24   14   15 1
    25   14   16 1
    26   16   21 ar
    27   16   17 ar
    28   17   18 ar
    29   17   36 1
    30   18   19 ar
    31   18   37 1
    32   19   20 ar
    33   19   22 1
    34   20   21 ar
    35   20   38 1
    36   21   39 1
    37   23   28 ar
    38   23   24 ar
    39   24   25 ar
    40   24   40 1
    41   25   26 ar
    42   25   41 1
    43   26   27 ar
    44   27   28 ar
    45   27   42 1
    46   28   43 1
@<TRIPOS>MOLECULE
ZINC18274812
   43    46     0     0     0
SMALL
USER_CHARGES

@<TRIPOS>ATOM
      1 C1          0.0761    2.5207   -0.3946 C.3       1 <0>        -0.4977
      2 S1          0.1067    0.7194   -0.1829 S.o       1 <0>         1.3328
      3 O1          0.9925    0.3819    0.8757 O.2       1 <0>        -0.8523
      4 C2          0.9273    0.1342   -1.6283 C.ar      1 <0>        -0.4535
      5 C3          0.1933   -0.1734   -2.7600 C.ar      1 <0>        -0.0382
      6 C4          0.8295   -0.6320   -3.8950 C.ar      1 <0>        -0.0929
      7 C5          2.2169   -0.7850   -3.8999 C.ar      1 <0>         0.0183
      8 C6          2.9514   -0.4724   -2.7550 C.ar      1 <0>        -0.1257
      9 C7          2.3033   -0.0102   -1.6282 C.ar      1 <0>        -0.0496
     10 C8          2.9053   -1.2765   -5.1125 C.2       1 <0>         0.2536
     11 N1          4.2517   -1.4710   -5.2346 N.pl3     1 <0>        -0.5504
     12 H1          4.9205   -1.3136   -4.5499 H         1 <0>         0.4255
     13 C9          4.4817   -1.9314   -6.5089 C.2       1 <0>         0.0556
     14 C10         3.2446   -2.0022   -7.1288 C.2       1 <0>         0.0602
     15 N2          2.3192   -1.6008   -6.2417 N.2       1 <0>        -0.4443
     16 C11         2.9879   -2.4463   -8.5176 C.ar      1 <0>         0.0401
     17 C12         3.6482   -3.5593   -9.0502 C.ar      1 <0>        -0.1549
     18 C13         3.3789   -3.9386  -10.3482 C.ar      1 <0>         0.1021
     19 N3          2.5133   -3.2676  -11.0845 N.ar      1 <0>        -0.4831
     20 C14         1.8693   -2.2129  -10.6212 C.ar      1 <0>         0.1008
     21 C15         2.0741   -1.7682   -9.3321 C.ar      1 <0>        -0.1466
     22 C16         5.7882   -2.2812   -7.1001 C.ar      1 <0>        -0.0406
     23 C17         6.1350   -1.8042   -8.3665 C.ar      1 <0>        -0.0561
     24 C18         7.3568   -2.1344   -8.9137 C.ar      1 <0>        -0.1471
     25 C19         8.2399   -2.9383   -8.2101 C.ar      1 <0>         0.1131
     26 C20         7.9012   -3.4146   -6.9533 C.ar      1 <0>        -0.1492
     27 C21         6.6848   -3.0860   -6.3932 C.ar      1 <0>        -0.0767
     28 F1          9.4352   -3.2593   -8.7516 F         1 <0>        -0.1334
     29 H2          1.0971    2.8954   -0.4674 H         1 <0>         0.0810
     30 H3         -0.4683    2.7703   -1.3054 H         1 <0>         0.1130
     31 H4         -0.4189    2.9788    0.4616 H         1 <0>         0.1087
     32 H5         -0.8802   -0.0546   -2.7549 H         1 <0>         0.1468
     33 H6          0.2554   -0.8725   -4.7775 H         1 <0>         0.1457
     34 H7          4.0251   -0.5889   -2.7522 H         1 <0>         0.1204
     35 H8          2.8708    0.2356   -0.7429 H         1 <0>         0.1321
     36 H9          4.3583   -4.1127   -8.4536 H         1 <0>         0.1329
     37 H10         3.8834   -4.7962  -10.7681 H         1 <0>         0.1577
     38 H11         1.1696   -1.6933  -11.2591 H         1 <0>         0.1590
     39 H12         1.5402   -0.9072   -8.9580 H         1 <0>         0.1385
     40 H13         5.4474   -1.1783   -8.9159 H         1 <0>         0.1360
     41 H14         7.6261   -1.7662   -9.8926 H         1 <0>         0.1436
     42 H15         8.5933   -4.0406   -6.4097 H         1 <0>         0.1423
     43 H16         6.4240   -3.4537   -5.4118 H         1 <0>         0.1327
@<TRIPOS>BOND
     1    1    2 1
     2    1   29 1
     3    1   30 1
     4    1   31 1
     5    2    3 2
     6    2    4 1
     7    4    9 ar
     8    4    5 ar
     9    5    6 ar
    10    5   32 1
    11    6    7 ar
    12    6   33 1
    13    7    8 ar
    14    7   10 1
    15    8    9 ar
    16    8   34 1
    17    9   35 1
    18   10   15 2
    19   10   11 1
    20   11   12 1
    21   11   13 1
    22   13   14 2
    23   13   22 1
    24   14   15 1
    25   14   16 1
    26   16   21 ar
    27   16   17 ar
    28   17   18 ar
    29   17   36 1
    30   18   19 ar
    31   18   37 1
    32   19   20 ar
    33   20   21 ar
    34   20   38 1
    35   21   39 1
    36   22   27 ar
    37   22   23 ar
    38   23   24 ar
    39   23   40 1
    40   24   25 ar
    41   24   41 1
    42   25   26 ar
    43   25   28 1
    44   26   27 ar
    45   26   42 1
    46   27   43 1
@<TRIPOS>MOLECULE
ZINC13677843
   40    43     0     0     0
SMALL
USER_CHARGES

@<TRIPOS>ATOM
      1 C1         -0.4972    1.2152   -0.2273 C.3       1 <0>         0.0236
      2 O1          0.2492    0.0508    0.1321 O.3       1 <0>        -0.3016
      3 C2          1.0792   -0.4664   -0.8127 C.ar      1 <0>         0.1188
      4 C3          1.1765    0.1382   -2.0569 C.ar      1 <0>        -0.1587
      5 C4          2.0179   -0.3853   -3.0165 C.ar      1 <0>        -0.0646
      6 C5          2.7744   -1.5219   -2.7446 C.ar      1 <0>        -0.0211
      7 C6          2.6764   -2.1301   -1.4915 C.ar      1 <0>        -0.1369
      8 C7          1.8363   -1.6002   -0.5298 C.ar      1 <0>         0.0987
      9 O2          1.7453   -2.1901    0.6922 O.3       1 <0>        -0.3036
     10 C8          2.5502   -3.3498    0.9142 C.3       1 <0>         0.0239
     11 C9          3.5874   -1.8732   -3.9364 C.2       1 <0>         0.1308
     12 C10         3.3328   -0.9438   -4.9607 C.2       1 <0>        -0.3055
     13 C11         4.0858   -1.2858   -6.0373 C.2       1 <0>         0.3755
     14 N1          4.7955   -2.3970   -5.7063 N.pl3     1 <0>        -0.4880
     15 H1          5.4199   -2.8666   -6.2811 H         1 <0>         0.4434
     16 N2          4.4675   -2.7446   -4.3901 N.2       1 <0>        -0.2659
     17 N3          4.1239   -0.6194   -7.2594 N.pl3     1 <0>        -0.6554
     18 C12         4.8518   -1.1551   -8.3248 C.ar      1 <0>         0.1980
     19 C13         4.9430   -2.5328   -8.4827 C.ar      1 <0>        -0.1958
     20 C14         5.6626   -3.0602   -9.5366 C.ar      1 <0>        -0.0481
     21 C15         6.2933   -2.2197  -10.4353 C.ar      1 <0>        -0.1801
     22 C16         6.2052   -0.8460  -10.2819 C.ar      1 <0>         0.1402
     23 C17         5.4809   -0.3118   -9.2312 C.ar      1 <0>        -0.1933
     24 F1          6.8226   -0.0273  -11.1616 F         1 <0>        -0.1319
     25 C18         2.3257    0.0459   -4.4300 C.3       1 <0>         0.0158
     26 H2          0.1893    2.0210   -0.4870 H         1 <0>         0.0572
     27 H3         -1.1328    0.9893   -1.0835 H         1 <0>         0.0572
     28 H4         -1.1174    1.5233    0.6144 H         1 <0>         0.1025
     29 H5          0.5923    1.0200   -2.2751 H         1 <0>         0.1425
     30 H6          3.2595   -3.0123   -1.2723 H         1 <0>         0.1407
     31 H7          2.2797   -4.1229    0.1950 H         1 <0>         0.0564
     32 H8          3.6019   -3.0912    0.7915 H         1 <0>         0.0565
     33 H9          2.3827   -3.7200    1.9257 H         1 <0>         0.1025
     34 H10         3.6450    0.2167   -7.3711 H         1 <0>         0.4302
     35 H11         4.4515   -3.1906   -7.7812 H         1 <0>         0.1322
     36 H12         5.7332   -4.1310   -9.6589 H         1 <0>         0.1413
     37 H13         6.8560   -2.6351  -11.2582 H         1 <0>         0.1408
     38 H14         5.4082    0.7593   -9.1138 H         1 <0>         0.1425
     39 H15         1.4198    0.0201   -5.0355 H         1 <0>         0.0899
     40 H16         2.7500    1.0499   -4.4317 H         1 <0>         0.0894
@<TRIPOS>BOND
     1    1    2 1
     2    1   26 1
     3    1   27 1
     4    1   28 1
     5    2    3 1
     6    3    8 ar
     7    3    4 ar
     8    4    5 ar
     9    4   29 1
    10    5   25 1
    11    5    6 ar
    12    6    7 ar
    13    6   11 1
    14    7    8 ar
    15    7   30 1
    16    8    9 1
    17    9   10 1
    18   10   31 1
    19   10   32 1
    20   10   33 1
    21   11   16 2
    22   11   12 1
    23   12   13 2
    24   12   25 1
    25   13   14 1
    26   13   17 1
    27   14   15 1
    28   14   16 1
    29   17   18 1
    30   17   34 1
    31   18   23 ar
    32   18   19 ar
    33   19   20 ar
    34   19   35 1
    35   20   21 ar
    36   20   36 1
    37   21   22 ar
    38   21   37 1
    39   22   23 ar
    40   22   24 1
    41   23   38 1
    42   25   39 1
    43   25   40 1
@<TRIPOS>MOLECULE
ZINC01649340
   52    54     0     0     0
SMALL
USER_CHARGES

@<TRIPOS>ATOM
      1 C1         -0.0187    1.5258    0.0104 C.3       1 <0>        -0.1531
      2 C2          0.0021   -0.0041    0.0020 C.3       1 <0>        -0.1278
      3 C3         -1.4333   -0.5336    0.0129 C.3       1 <0>         0.1689
      4 H1         -1.9701   -0.1109    0.8621 H         1 <0>         0.1030
      5 C4         -1.4133   -2.0590    0.1302 C.3       1 <0>         0.0625
      6 O1         -0.6117   -2.6069   -0.9183 O.3       1 <0>        -0.5692
      7 N1         -2.1054   -0.1483   -1.2305 N.pl3     1 <0>        -0.6816
      8 C5         -3.4856   -0.0365   -1.2658 C.ar      1 <0>         0.6305
      9 N2         -4.1766   -0.2783   -0.1589 N.ar      1 <0>        -0.6256
     10 C6         -5.5013   -0.1844   -0.1423 C.ar      1 <0>         0.5407
     11 C7         -6.1646    0.1788   -1.3275 C.ar      1 <0>        -0.1560
     12 C8         -5.3921    0.4251   -2.4741 C.ar      1 <0>         0.3485
     13 N3         -4.0693    0.3129   -2.4004 N.ar      1 <0>        -0.6161
     14 N4         -6.2808    0.7538   -3.4662 N.pl3     1 <0>        -0.4704
     15 C9         -7.5330    0.7038   -2.9264 C.2       1 <0>         0.2320
     16 N5         -7.4624    0.3664   -1.6720 N.2       1 <0>        -0.4548
     17 C10        -5.9467    1.0964   -4.8508 C.3       1 <0>         0.1344
     18 C11        -6.6196    0.1019   -5.7989 C.3       1 <0>        -0.1626
     19 C12        -6.4419    2.5107   -5.1599 C.3       1 <0>        -0.1626
     20 N6         -6.2133   -0.4389    1.0165 N.pl3     1 <0>        -0.6899
     21 C13        -5.5062   -0.8166    2.2427 C.3       1 <0>         0.1717
     22 C14        -6.5039   -1.0364    3.3505 C.ar      1 <0>        -0.1135
     23 C15        -6.8801    0.0183    4.1611 C.ar      1 <0>        -0.0982
     24 C16        -7.7953   -0.1833    5.1773 C.ar      1 <0>        -0.1219
     25 C17        -8.3347   -1.4394    5.3826 C.ar      1 <0>        -0.1101
     26 C18        -7.9592   -2.4939    4.5714 C.ar      1 <0>        -0.1221
     27 C19        -7.0472   -2.2913    3.5524 C.ar      1 <0>        -0.0986
     28 H2          1.0039    1.9031    0.0027 H         1 <0>         0.0563
     29 H3         -0.5459    1.8868   -0.8726 H         1 <0>         0.0552
     30 H4         -0.5289    1.8773    0.9072 H         1 <0>         0.0537
     31 H5          0.5123   -0.3556   -0.8948 H         1 <0>         0.0768
     32 H6          0.5293   -0.3651    0.8851 H         1 <0>         0.0774
     33 H7         -0.9936   -2.3437    1.0951 H         1 <0>         0.0524
     34 H8         -2.4301   -2.4431    0.0488 H         1 <0>         0.0503
     35 H9         -0.5540   -3.5721   -0.9058 H         1 <0>         0.3776
     36 H10        -1.5839    0.0285   -2.0291 H         1 <0>         0.4145
     37 H11        -8.4474    0.9139   -3.4613 H         1 <0>         0.2138
     38 H12        -4.8660    1.0524   -4.9853 H         1 <0>         0.1061
     39 H13        -7.7004    0.1459   -5.6644 H         1 <0>         0.0654
     40 H14        -6.3710    0.3568   -6.8291 H         1 <0>         0.0793
     41 H15        -6.2668   -0.9057   -5.5787 H         1 <0>         0.0629
     42 H16        -5.9625    3.2193   -4.4845 H         1 <0>         0.0629
     43 H17        -6.1933    2.7656   -6.1901 H         1 <0>         0.0793
     44 H18        -7.5227    2.5547   -5.0254 H         1 <0>         0.0654
     45 H19        -7.1807   -0.3672    1.0169 H         1 <0>         0.4195
     46 H20        -4.9460   -1.7357    2.0706 H         1 <0>         0.0763
     47 H21        -4.8186   -0.0196    2.5258 H         1 <0>         0.0773
     48 H22        -6.4587    0.9996    4.0008 H         1 <0>         0.1237
     49 H23        -8.0886    0.6405    5.8111 H         1 <0>         0.1245
     50 H24        -9.0492   -1.5971    6.1770 H         1 <0>         0.1237
     51 H25        -8.3804   -3.4753    4.7320 H         1 <0>         0.1244
     52 H26        -6.7567   -3.1143    2.9163 H         1 <0>         0.1232
@<TRIPOS>BOND
     1    1    2 1
     2    1   28 1
     3    1   29 1
     4    1   30 1
     5    2    3 1
     6    2   31 1
     7    2   32 1
     8    3    4 1
     9    3    5 1
    10    3    7 1
    11    5    6 1
    12    5   33 1
    13    5   34 1
    14    6   35 1
    15    7    8 1
    16    7   36 1
    17    8   13 ar
    18    8    9 ar
    19    9   10 ar
    20   10   11 ar
    21   10   20 1
    22   11   16 1
    23   11   12 ar
    24   12   13 ar
    25   12   14 1
    26   14   15 1
    27   14   17 1
    28   15   16 2
    29   15   37 1
    30   17   18 1
    31   17   19 1
    32   17   38 1
    33   18   39 1
    34   18   40 1
    35   18   41 1
    36   19   42 1
    37   19   43 1
    38   19   44 1
    39   20   21 1
    40   20   45 1
    41   21   22 1
    42   21   46 1
    43   21   47 1
    44   22   27 ar
    45   22   23 ar
    46   23   24 ar
    47   23   48 1
    48   24   25 ar
    49   24   49 1
    50   25   26 ar
    51   25   50 1
    52   26   27 ar
    53   26   51 1
    54   27   52 1
@<TRIPOS>MOLECULE
ZINC03814434
   62    69     0     0     0
SMALL
USER_CHARGES

@<TRIPOS>ATOM
      1 C1         -0.1295    1.5952   -0.2973 C.3       1 <0>        -0.1687
      2 C2         -0.0862    0.0696   -0.1900 C.3       1 <0>         0.3342
      3 C3          0.5692   -0.4501   -1.4637 C.3       1 <0>         0.0405
      4 H1          1.4796    0.1159   -1.6612 H         1 <0>         0.1372
      5 C4          0.9167   -1.9328   -1.2889 C.3       1 <0>        -0.0061
      6 H2          1.3963   -2.3075   -2.1932 H         1 <0>         0.1555
      7 C5          1.8785   -2.0596   -0.1021 C.3       1 <0>        -0.1827
      8 C6          1.2061   -1.5198    1.1541 C.3       1 <0>         0.2999
      9 H3          1.9797   -1.4243    1.9161 H         1 <0>         0.1550
     10 O1          0.6555   -0.2442    0.9666 O.3       1 <0>        -0.3234
     11 N1          0.2189   -2.4746    1.6600 N.pl3     1 <0>        -0.5366
     12 C7          0.4705   -3.5508    2.4739 C.ar      1 <0>         0.1469
     13 C8          1.6649   -4.0152    3.0240 C.ar      1 <0>        -0.1522
     14 C9          1.5948   -5.1456    3.8201 C.ar      1 <0>        -0.0582
     15 C10         0.4006   -5.7997    4.0696 C.ar      1 <0>        -0.1457
     16 C11        -0.7984   -5.3597    3.5358 C.ar      1 <0>        -0.0280
     17 C12        -0.7487   -4.2198    2.7307 C.ar      1 <0>        -0.1131
     18 C13        -1.7893   -3.4830    2.0197 C.ar      1 <0>         0.0276
     19 C14        -1.1442   -2.4197    1.3841 C.ar      1 <0>         0.0376
     20 C15        -1.8806   -1.5095    0.6175 C.ar      1 <0>         0.0894
     21 N2         -1.4718   -0.3951   -0.1095 N.pl3     1 <0>        -0.5183
     22 C16        -2.5611    0.1913   -0.7090 C.ar      1 <0>         0.1618
     23 C17        -2.6521    1.3277   -1.5118 C.ar      1 <0>        -0.1305
     24 C18        -3.9109    1.6745   -1.9733 C.ar      1 <0>        -0.0737
     25 C19        -5.0393    0.9368   -1.6616 C.ar      1 <0>        -0.1358
     26 C20        -4.9745   -0.1955   -0.8662 C.ar      1 <0>        -0.0503
     27 C21        -3.7147   -0.5596   -0.3919 C.ar      1 <0>        -0.1042
     28 C22        -3.2693   -1.6660    0.4845 C.ar      1 <0>        -0.0360
     29 C23        -3.9084   -2.7313    1.1102 C.ar      1 <0>        -0.0288
     30 C24        -3.1873   -3.6421    1.8754 C.ar      1 <0>        -0.1255
     31 C25        -4.1221   -4.6480    2.4030 C.2       1 <0>         0.5632
     32 O2         -3.8062   -5.5851    3.1110 O.2       1 <0>        -0.5106
     33 N3         -5.3744   -4.3851    1.9926 N.am      1 <0>        -0.7162
     34 C26        -5.3495   -3.1771    1.1601 C.3       1 <0>         0.1358
     35 N4         -0.3067   -2.7008   -1.0216 N.4       1 <0>        -0.5252
     36 C27         0.0145   -4.1336   -0.9773 C.3       1 <0>        -0.0497
     37 O3         -0.3340   -0.2979   -2.5607 O.3       1 <0>        -0.3614
     38 C28         0.3101   -0.0933   -3.8198 C.3       1 <0>         0.0162
     39 H4          0.8261    2.0094    0.0240 H         1 <0>         0.0984
     40 H5         -0.3202    1.8814   -1.3317 H         1 <0>         0.1036
     41 H6         -0.9255    1.9818    0.3392 H         1 <0>         0.0921
     42 H7          2.1370   -3.1081    0.0458 H         1 <0>         0.1233
     43 H8          2.7835   -1.4869   -0.3048 H         1 <0>         0.1455
     44 H9          2.6036   -3.5149    2.8368 H         1 <0>         0.1365
     45 H10         2.5026   -5.5304    4.2610 H         1 <0>         0.1359
     46 H11         0.4045   -6.6780    4.6980 H         1 <0>         0.1352
     47 H12        -1.7278   -5.8736    3.7323 H         1 <0>         0.1600
     48 H13        -1.7792    1.9122   -1.7624 H         1 <0>         0.1440
     49 H14        -4.0153    2.5500   -2.5970 H         1 <0>         0.1336
     50 H15        -5.9967    1.2527   -2.0488 H         1 <0>         0.1332
     51 H16        -5.8575   -0.7687   -0.6249 H         1 <0>         0.1415
     52 H17        -6.1628   -4.9065    2.2103 H         1 <0>         0.4348
     53 H18        -5.9671   -2.3994    1.6094 H         1 <0>         0.1115
     54 H19        -5.7060   -3.4063    0.1559 H         1 <0>         0.1103
     55 H20        -0.6958   -2.4158   -0.1353 H         1 <0>         0.4186
     56 H21         0.4349   -4.4415   -1.9347 H         1 <0>         0.1256
     57 H22         0.7403   -4.3189   -0.1854 H         1 <0>         0.1191
     58 H23        -0.8932   -4.7035   -0.7789 H         1 <0>         0.1256
     59 H24         0.9168    0.8112   -3.7748 H         1 <0>         0.0633
     60 H25         0.9482   -0.9479   -4.0446 H         1 <0>         0.0514
     61 H26        -0.4433    0.0130   -4.6003 H         1 <0>         0.1100
     62 H27        -0.9785   -2.5293   -1.7546 H         1 <0>         0.4274
@<TRIPOS>BOND
     1    1    2 1
     2    1   39 1
     3    1   40 1
     4    1   41 1
     5    2   10 1
     6    2   21 1
     7    2    3 1
     8    3    4 1
     9    3    5 1
    10    3   37 1
    11    5    6 1
    12    5    7 1
    13    5   35 1
    14    7    8 1
    15    7   42 1
    16    7   43 1
    17    8    9 1
    18    8   10 1
    19    8   11 1
    20   11   19 1
    21   11   12 1
    22   12   17 ar
    23   12   13 ar
    24   13   14 ar
    25   13   44 1
    26   14   15 ar
    27   14   45 1
    28   15   16 ar
    29   15   46 1
    30   16   17 ar
    31   16   47 1
    32   17   18 1
    33   18   30 ar
    34   18   19 ar
    35   19   20 ar
    36   20   28 ar
    37   20   21 1
    38   21   22 1
    39   22   27 ar
    40   22   23 ar
    41   23   24 ar
    42   23   48 1
    43   24   25 ar
    44   24   49 1
    45   25   26 ar
    46   25   50 1
    47   26   27 ar
    48   26   51 1
    49   27   28 1
    50   28   29 ar
    51   29   34 1
    52   29   30 ar
    53   30   31 1
    54   31   32 2
    55   31   33 am
    56   33   34 1
    57   33   52 1
    58   34   53 1
    59   34   54 1
    60   35   36 1
    61   35   55 1
    62   35   62 1
    63   36   56 1
    64   36   57 1
    65   36   58 1
    66   37   38 1
    67   38   59 1
    68   38   60 1
    69   38   61 1
@<TRIPOS>MOLECULE
ZINC12355112
   41    43     0     0     0
SMALL
USER_CHARGES

@<TRIPOS>ATOM
      1 C1         -0.1028    1.0961   -0.3671 C.ar      1 <0>        -0.0514
      2 C2          0.1939    0.2453    0.6818 C.ar      1 <0>        -0.1484
      3 C3          1.4264   -0.3800    0.7402 C.ar      1 <0>         0.1639
      4 C4          2.3673   -0.1521   -0.2572 C.ar      1 <0>         0.0453
      5 C5          2.0653    0.7038   -1.3099 C.ar      1 <0>         0.1303
      6 C6          0.8305    1.3253   -1.3612 C.ar      1 <0>        -0.1508
      7 F1          2.9766    0.9287   -2.2816 F         1 <0>        -0.1242
      8 N1          3.6170   -0.7832   -0.2014 N.pl3     1 <0>        -0.5829
      9 C7          3.7027   -2.0774    0.1649 C.2       1 <0>         0.5287
     10 S1          2.2783   -2.9758    0.4732 S.2       1 <0>        -0.4610
     11 N2          4.9096   -2.6643    0.2886 N.pl3     1 <0>        -0.3704
     12 C8          5.1565   -3.9777    0.5555 C.2       1 <0>         0.6130
     13 N3          6.4609   -4.1414    0.5939 N.2       1 <0>        -0.5881
     14 C9          7.0702   -2.9726    0.3596 C.2       1 <0>         0.5344
     15 N4          6.1641   -2.0459    0.1621 N.2       1 <0>        -0.3900
     16 N5          8.4494   -2.7737    0.3248 N.pl3     1 <0>        -0.6253
     17 C10         9.3156   -3.8654    0.4276 C.ar      1 <0>         0.2308
     18 C11         8.9430   -5.1006   -0.0877 C.ar      1 <0>        -0.1475
     19 C12         9.8015   -6.1774    0.0157 C.ar      1 <0>         0.0049
     20 C13        11.0306   -6.0273    0.6313 C.ar      1 <0>        -0.6997
     21 C14        11.4044   -4.7993    1.1458 C.ar      1 <0>         0.0107
     22 C15        10.5534   -3.7167    1.0403 C.ar      1 <0>        -0.1718
     23 S2         12.1228   -7.4039    0.7609 S.o2      1 <0>         2.7036
     24 O1         12.9813   -7.1389    1.8619 O.2       1 <0>        -0.9640
     25 O2         11.3155   -8.5710    0.6881 O.2       1 <0>        -0.9611
     26 N6         13.0757   -7.4022   -0.5934 N.pl3     1 <0>        -1.2489
     27 N7          4.2074   -4.9604    0.7511 N.pl3     1 <0>        -0.7789
     28 F2          1.7155   -1.2107    1.7657 F         1 <0>        -0.0889
     29 H1         -1.0676    1.5793   -0.4122 H         1 <0>         0.1524
     30 H2         -0.5376    0.0691    1.4566 H         1 <0>         0.1538
     31 H3          0.5950    1.9905   -2.1789 H         1 <0>         0.1534
     32 H4          4.4206   -0.2887   -0.4264 H         1 <0>         0.4283
     33 H5          8.8079   -1.8774    0.2293 H         1 <0>         0.4322
     34 H6          7.9831   -5.2186   -0.5683 H         1 <0>         0.1467
     35 H7          9.5123   -7.1380   -0.3844 H         1 <0>         0.1464
     36 H8         12.3649   -4.6855    1.6262 H         1 <0>         0.1476
     37 H9         10.8481   -2.7567    1.4378 H         1 <0>         0.1386
     38 H10        13.9781   -7.7554   -0.5519 H         1 <0>         0.4215
     39 H11        12.7314   -7.0480   -1.4282 H         1 <0>         0.4170
     40 H12         3.2665   -4.7264    0.7830 H         1 <0>         0.4323
     41 H13         4.4811   -5.8849    0.8567 H         1 <0>         0.4174
@<TRIPOS>BOND
     1    1    6 ar
     2    1    2 ar
     3    1   29 1
     4    2    3 ar
     5    2   30 1
     6    3    4 ar
     7    3   28 1
     8    4    5 ar
     9    4    8 1
    10    5    6 ar
    11    5    7 1
    12    6   31 1
    13    8    9 1
    14    8   32 1
    15    9   10 2
    16    9   11 1
    17   11   15 1
    18   11   12 1
    19   12   13 2
    20   12   27 1
    21   13   14 1
    22   14   15 2
    23   14   16 1
    24   16   17 1
    25   16   33 1
    26   17   22 ar
    27   17   18 ar
    28   18   19 ar
    29   18   34 1
    30   19   20 ar
    31   19   35 1
    32   20   21 ar
    33   20   23 1
    34   21   22 ar
    35   21   36 1
    36   22   37 1
    37   23   24 2
    38   23   25 2
    39   23   26 1
    40   26   38 1
    41   26   39 1
    42   27   40 1
    43   27   41 1
@<TRIPOS>MOLECULE
ZINC02576349
   43    46     0     0     0
SMALL
USER_CHARGES
7-(1-naphthyl)-9-tert-butyl-2,4,8,9-tetrazabicyclo[4.3.0]nona-1,3,5,7-tetraen-5-amine
@<TRIPOS>ATOM
      1 C1         -2.2648    1.4156   -1.1798 C.3       1 <0>        -0.1444
      2 C2         -1.0921    2.2875   -0.7266 C.3       1 <0>         0.1895
      3 C3         -1.4339    2.9467    0.6111 C.3       1 <0>        -0.1619
      4 C4         -0.8260    3.3695   -1.7751 C.3       1 <0>        -0.1623
      5 N1          0.1032    1.4552   -0.5696 N.pl3     1 <0>        -0.3674
      6 C5          1.3308    1.9052   -0.1828 C.ar      1 <0>         0.3804
      7 C6          2.1889    0.7898   -0.1661 C.ar      1 <0>        -0.3265
      8 C7          1.3808   -0.3606   -0.5722 C.2       1 <0>         0.1648
      9 N2          0.1635    0.0765   -0.7990 N.2       1 <0>        -0.2277
     10 C8          1.8488   -1.7584   -0.7026 C.ar      1 <0>        -0.0125
     11 C9          2.9319   -2.0612   -1.5103 C.ar      1 <0>        -0.0976
     12 C10         3.3811   -3.3708   -1.6324 C.ar      1 <0>        -0.1175
     13 C11         2.7643   -4.3918   -0.9743 C.ar      1 <0>        -0.0881
     14 C12         1.6574   -4.1307   -0.1487 C.ar      1 <0>        -0.0497
     15 C13         1.1904   -2.8012   -0.0075 C.ar      1 <0>        -0.0279
     16 C14         0.0864   -2.5419    0.8173 C.ar      1 <0>        -0.1006
     17 C15        -0.5230   -3.5696    1.4714 C.ar      1 <0>        -0.1104
     18 C16        -0.0653   -4.8782    1.3334 C.ar      1 <0>        -0.1109
     19 C17         1.0037   -5.1664    0.5416 C.ar      1 <0>        -0.1058
     20 C18         3.5302    0.9803    0.2031 C.ar      1 <0>         0.5194
     21 N3          3.9291    2.2083    0.5206 N.ar      1 <0>        -0.6077
     22 C19         3.0891    3.2274    0.4913 C.ar      1 <0>         0.3852
     23 N4          1.8252    3.0965    0.1525 N.ar      1 <0>        -0.5722
     24 N5          4.4132   -0.0817    0.2360 N.pl3     1 <0>        -0.8244
     25 H1         -2.4544    0.6447   -0.4329 H         1 <0>         0.0672
     26 H2         -3.1541    2.0348   -1.2967 H         1 <0>         0.0758
     27 H3         -2.0213    0.9459   -2.1329 H         1 <0>         0.0677
     28 H4         -0.5984    3.5679    0.9340 H         1 <0>         0.0772
     29 H5         -2.3232    3.5660    0.4943 H         1 <0>         0.0800
     30 H6         -1.6235    2.1759    1.3581 H         1 <0>         0.0594
     31 H7         -0.5825    2.8999   -2.7281 H         1 <0>         0.0596
     32 H8         -1.7154    3.9888   -1.8919 H         1 <0>         0.0799
     33 H9          0.0094    3.9907   -1.4522 H         1 <0>         0.0773
     34 H10         3.4359   -1.2709   -2.0469 H         1 <0>         0.1296
     35 H11         4.2309   -3.5835   -2.2641 H         1 <0>         0.1329
     36 H12         3.1262   -5.4030   -1.0874 H         1 <0>         0.1333
     37 H13        -0.2792   -1.5323    0.9330 H         1 <0>         0.1262
     38 H14        -1.3729   -3.3671    2.1063 H         1 <0>         0.1247
     39 H15        -0.5658   -5.6756    1.8626 H         1 <0>         0.1263
     40 H16         1.3482   -6.1854    0.4444 H         1 <0>         0.1313
     41 H17         3.4552    4.2081    0.7568 H         1 <0>         0.2041
     42 H18         4.0875   -0.9872    0.1138 H         1 <0>         0.4127
     43 H19         5.3589    0.0781    0.3813 H         1 <0>         0.4111
@<TRIPOS>BOND
     1    1    2 1
     2    1   25 1
     3    1   26 1
     4    1   27 1
     5    2    3 1
     6    2    4 1
     7    2    5 1
     8    3   28 1
     9    3   29 1
    10    3   30 1
    11    4   31 1
    12    4   32 1
    13    4   33 1
    14    5    9 1
    15    5    6 1
    16    6   23 ar
    17    6    7 ar
    18    7    8 1
    19    7   20 ar
    20    8    9 2
    21    8   10 1
    22   10   15 ar
    23   10   11 ar
    24   11   12 ar
    25   11   34 1
    26   12   13 ar
    27   12   35 1
    28   13   14 ar
    29   13   36 1
    30   14   19 ar
    31   14   15 ar
    32   15   16 ar
    33   16   17 ar
    34   16   37 1
    35   17   18 ar
    36   17   38 1
    37   18   19 ar
    38   18   39 1
    39   19   40 1
    40   20   21 ar
    41   20   24 1
    42   21   22 ar
    43   22   23 ar
    44   22   41 1
    45   24   42 1
    46   24   43 1
@<TRIPOS>MOLECULE
ZINC18847046
   29    31     0     0     0
SMALL
USER_CHARGES

@<TRIPOS>ATOM
      1 C1         -0.0184    1.5028    0.0103 C.3       1 <0>        -0.1424
      2 C2          0.0021   -0.0041    0.0020 C.ar      1 <0>         0.1556
      3 C3          0.0057   -0.6865   -1.2084 C.ar      1 <0>         0.1146
      4 C4          0.0254   -2.0919   -1.1857 C.ar      1 <0>         0.0189
      5 C5          0.0408   -2.7431    0.0474 C.ar      1 <0>        -0.0789
      6 C6          0.0361   -1.9836    1.1979 C.ar      1 <0>         0.0838
      7 N1          0.0219   -0.6634    1.1422 N.ar      1 <0>        -0.4304
      8 C7          0.0239   -2.5347   -2.5884 C.ar      1 <0>        -0.1673
      9 C8          0.0375   -3.7874   -3.2002 C.ar      1 <0>         0.0049
     10 C9          0.0309   -3.8808   -4.5734 C.ar      1 <0>        -0.2172
     11 C10         0.0111   -2.7283   -5.3537 C.ar      1 <0>         0.2058
     12 C11        -0.0026   -1.4801   -4.7588 C.ar      1 <0>        -0.1848
     13 C12         0.0034   -1.3698   -3.3723 C.ar      1 <0>         0.2065
     14 N2         -0.0072   -0.2742   -2.5278 N.pl3     1 <0>        -0.5835
     15 H1         -0.0219    0.6508   -2.8196 H         1 <0>         0.4355
     16 O1          0.0057   -2.8305   -6.7086 O.3       1 <0>        -0.3026
     17 C13         0.0210   -4.1488   -7.2598 C.3       1 <0>         0.0197
     18 H2          1.0042    1.8801    0.0026 H         1 <0>         0.1154
     19 H3         -0.5455    1.8639   -0.8728 H         1 <0>         0.1057
     20 H4         -0.5286    1.8543    0.9071 H         1 <0>         0.1048
     21 H5          0.0557   -3.8217    0.1000 H         1 <0>         0.1843
     22 H6          0.0478   -2.4751    2.1595 H         1 <0>         0.2108
     23 H7          0.0536   -4.6834   -2.5974 H         1 <0>         0.1456
     24 H8          0.0415   -4.8513   -5.0470 H         1 <0>         0.1504
     25 H9         -0.0176   -0.5905   -5.3710 H         1 <0>         0.1490
     26 H10         0.9199   -4.6699   -6.9305 H         1 <0>         0.0657
     27 H11        -0.8598   -4.6944   -6.9214 H         1 <0>         0.0657
     28 H12         0.0146   -4.0877   -8.3481 H         1 <0>         0.1130
     29 H13         0.0229   -0.1610    1.9720 H         1 <0>         0.4514
@<TRIPOS>BOND
     1    1    2 1
     2    1   18 1
     3    1   19 1
     4    1   20 1
     5    2    7 ar
     6    2    3 ar
     7    3   14 1
     8    3    4 ar
     9    4    5 ar
    10    4    8 1
    11    5    6 ar
    12    5   21 1
    13    6    7 ar
    14    6   22 1
    15    7   29 1
    16    8   13 ar
    17    8    9 ar
    18    9   10 ar
    19    9   23 1
    20   10   11 ar
    21   10   24 1
    22   11   12 ar
    23   11   16 1
    24   12   13 ar
    25   12   25 1
    26   13   14 1
    27   14   15 1
    28   16   17 1
    29   17   26 1
    30   17   27 1
    31   17   28 1
@<TRIPOS>MOLECULE
ZINC14951176
   39    42     0     0     0
SMALL
USER_CHARGES

@<TRIPOS>ATOM
      1 C1          0.2405    1.0255    0.8302 C.ar      1 <0>        -0.0645
      2 C2          1.4224    1.7334    0.7710 C.ar      1 <0>        -0.1488
      3 C3          2.3671    1.4303   -0.1967 C.ar      1 <0>         0.1270
      4 C4          2.1300    0.4154   -1.1103 C.ar      1 <0>        -0.1484
      5 C5          0.9516   -0.2992   -1.0607 C.ar      1 <0>        -0.0503
      6 C6         -0.0037    0.0016   -0.0874 C.ar      1 <0>        -0.0633
      7 C7         -1.2678   -0.7602   -0.0291 C.2       1 <0>         0.1046
      8 C8         -1.3961   -2.1162   -0.0863 C.2       1 <0>         0.0796
      9 N1         -2.7456   -2.4073    0.0017 N.pl3     1 <0>        -0.5519
     10 C9         -3.4195   -1.2472    0.1100 C.2       1 <0>         0.4661
     11 C10        -4.8730   -1.1131    0.2269 C.2       1 <0>        -0.2712
     12 C11        -5.4545    0.1603    0.3285 C.2       1 <0>        -0.0131
     13 C12        -6.8063    0.2847    0.4372 C.2       1 <0>        -0.2432
     14 C13        -7.6177   -0.8599    0.4477 C.2       1 <0>         0.3274
     15 O1         -8.9418   -0.7377    0.5542 O.2       1 <0>        -0.6199
     16 C14        -7.0368   -2.1329    0.3456 C.2       1 <0>        -0.2432
     17 C15        -5.6854   -2.2577    0.2315 C.2       1 <0>        -0.0132
     18 N2         -2.5363   -0.2302    0.0993 N.pl3     1 <0>        -0.5537
     19 C16        -0.2980   -3.0933   -0.2185 C.ar      1 <0>         0.0029
     20 C17         0.8460   -3.0046    0.5859 C.ar      1 <0>        -0.1375
     21 C18         1.8471   -3.9391    0.4288 C.ar      1 <0>         0.1110
     22 N3          1.7384   -4.9058   -0.4634 N.ar      1 <0>        -0.4697
     23 C19         0.6787   -5.0262   -1.2411 C.ar      1 <0>         0.1111
     24 C20        -0.3725   -4.1394   -1.1479 C.ar      1 <0>        -0.1541
     25 F1          3.5233    2.1271   -0.2501 F         1 <0>        -0.1285
     26 H1         -0.4930    1.2596    1.5875 H         1 <0>         0.1388
     27 H2          1.6122    2.5258    1.4800 H         1 <0>         0.1474
     28 H3          2.8693    0.1839   -1.8628 H         1 <0>         0.1469
     29 H4          0.7677   -1.0896   -1.7733 H         1 <0>         0.1375
     30 H5         -3.1383   -3.2941   -0.0126 H         1 <0>         0.4530
     31 H6         -4.8300    1.0414    0.3209 H         1 <0>         0.1049
     32 H7         -7.2538    1.2645    0.5158 H         1 <0>         0.1221
     33 H8         -7.6616   -3.0138    0.3533 H         1 <0>         0.1221
     34 H9         -5.2386   -3.2374    0.1489 H         1 <0>         0.1046
     35 H10        -2.7542    0.7126    0.1673 H         1 <0>         0.4532
     36 H11         0.9421   -2.2159    1.3174 H         1 <0>         0.1420
     37 H12         2.7328   -3.8793    1.0439 H         1 <0>         0.1658
     38 H13         0.6328   -5.8333   -1.9573 H         1 <0>         0.1659
     39 H14        -1.2383   -4.2467   -1.7845 H         1 <0>         0.1405
@<TRIPOS>BOND
     1    1    6 ar
     2    1    2 ar
     3    1   26 1
     4    2    3 ar
     5    2   27 1
     6    3    4 ar
     7    3   25 1
     8    4    5 ar
     9    4   28 1
    10    5    6 ar
    11    5   29 1
    12    6    7 1
    13    7   18 1
    14    7    8 2
    15    8    9 1
    16    8   19 1
    17    9   10 1
    18    9   30 1
    19   10   11 2
    20   10   18 1
    21   11   17 1
    22   11   12 1
    23   12   13 2
    24   12   31 1
    25   13   14 1
    26   13   32 1
    27   14   15 2
    28   14   16 1
    29   16   17 2
    30   16   33 1
    31   17   34 1
    32   18   35 1
    33   19   24 ar
    34   19   20 ar
    35   20   21 ar
    36   20   36 1
    37   21   22 ar
    38   21   37 1
    39   22   23 ar
    40   23   24 ar
    41   23   38 1
    42   24   39 1
@<TRIPOS>MOLECULE
ZINC14951176
   40    43     0     0     0
SMALL
USER_CHARGES

@<TRIPOS>ATOM
      1 C1          0.2405    1.0255    0.8302 C.ar      1 <0>        -0.0528
      2 C2          1.4224    1.7334    0.7710 C.ar      1 <0>        -0.1439
      3 C3          2.3671    1.4303   -0.1967 C.ar      1 <0>         0.1411
      4 C4          2.1300    0.4154   -1.1103 C.ar      1 <0>        -0.1508
      5 C5          0.9516   -0.2992   -1.0607 C.ar      1 <0>        -0.0597
      6 C6         -0.0037    0.0016   -0.0874 C.ar      1 <0>        -0.0905
      7 C7         -1.2678   -0.7602   -0.0291 C.2       1 <0>         0.1717
      8 C8         -1.3961   -2.1162   -0.0863 C.2       1 <0>         0.0049
      9 N1         -2.7456   -2.4073    0.0017 N.pl3     1 <0>        -0.5619
     10 C9         -3.4195   -1.2472    0.1100 C.2       1 <0>         0.4672
     11 C10        -4.8730   -1.1131    0.2269 C.2       1 <0>        -0.2599
     12 C11        -5.6849   -2.2580    0.2378 C.2       1 <0>        -0.0193
     13 C12        -7.0367   -2.1330    0.3465 C.2       1 <0>        -0.2271
     14 C13        -7.6177   -0.8599    0.4475 C.2       1 <0>         0.3291
     15 O1         -8.9418   -0.7377    0.5539 O.2       1 <0>        -0.5899
     16 C14        -6.8064    0.2847    0.4370 C.2       1 <0>        -0.2265
     17 C15        -5.4541    0.1600    0.3338 C.2       1 <0>        -0.0193
     18 N2         -2.5363   -0.2302    0.0993 N.pl3     1 <0>        -0.5609
     19 C16        -0.2980   -3.0933   -0.2185 C.ar      1 <0>         0.1131
     20 C17         0.8460   -3.0046    0.5859 C.ar      1 <0>        -0.1113
     21 C18         1.8471   -3.9391    0.4288 C.ar      1 <0>         0.1475
     22 N3          1.7384   -4.9058   -0.4634 N.ar      1 <0>        -0.4453
     23 C19         0.6789   -5.0260   -1.2413 C.ar      1 <0>         0.1502
     24 C20        -0.3725   -4.1394   -1.1479 C.ar      1 <0>        -0.1247
     25 F1          3.5233    2.1271   -0.2501 F         1 <0>        -0.1206
     26 H1         -0.4930    1.2596    1.5875 H         1 <0>         0.1448
     27 H2          1.6122    2.5258    1.4800 H         1 <0>         0.1545
     28 H3          2.8693    0.1839   -1.8628 H         1 <0>         0.1503
     29 H4          0.7677   -1.0896   -1.7733 H         1 <0>         0.1343
     30 H5         -3.1383   -3.2941   -0.0126 H         1 <0>         0.4541
     31 H6         -5.2377   -3.2379    0.1597 H         1 <0>         0.1066
     32 H7         -7.6615   -3.0138    0.3545 H         1 <0>         0.1278
     33 H8         -7.2539    1.2645    0.5152 H         1 <0>         0.1286
     34 H9         -4.8293    1.0409    0.3299 H         1 <0>         0.1087
     35 H10        -2.7542    0.7126    0.1673 H         1 <0>         0.4588
     36 H11         0.9421   -2.2159    1.3174 H         1 <0>         0.1893
     37 H12         2.7328   -3.8793    1.0439 H         1 <0>         0.2181
     38 H13         0.6331   -5.8328   -1.9578 H         1 <0>         0.2182
     39 H14        -1.2383   -4.2467   -1.7845 H         1 <0>         0.1884
     40 H15         2.4602   -5.5480   -0.5503 H         1 <0>         0.4572
@<TRIPOS>BOND
     1    1    6 ar
     2    1    2 ar
     3    1   26 1
     4    2    3 ar
     5    2   27 1
     6    3    4 ar
     7    3   25 1
     8    4    5 ar
     9    4   28 1
    10    5    6 ar
    11    5   29 1
    12    6    7 1
    13    7   18 1
    14    7    8 2
    15    8    9 1
    16    8   19 1
    17    9   10 1
    18    9   30 1
    19   10   11 2
    20   10   18 1
    21   11   17 1
    22   11   12 1
    23   12   13 2
    24   12   31 1
    25   13   14 1
    26   13   32 1
    27   14   15 2
    28   14   16 1
    29   16   17 2
    30   16   33 1
    31   17   34 1
    32   18   35 1
    33   19   24 ar
    34   19   20 ar
    35   20   21 ar
    36   20   36 1
    37   21   22 ar
    38   21   37 1
    39   22   23 ar
    40   22   40 1
    41   23   24 ar
    42   23   38 1
    43   24   39 1
@<TRIPOS>MOLECULE
ZINC14951176
   39    42     0     0     0
SMALL
USER_CHARGES

@<TRIPOS>ATOM
      1 C1         -0.0169    1.3921    0.0097 C.ar      1 <0>        -0.0566
      2 C2          1.1683    2.0955    0.0022 C.ar      1 <0>        -0.1420
      3 C3          2.3804    1.4175   -0.0135 C.ar      1 <0>         0.1205
      4 C4          2.4035    0.0288   -0.0217 C.ar      1 <0>        -0.1413
      5 C5          1.2227   -0.6820   -0.0137 C.ar      1 <0>        -0.0915
      6 C6          0.0021   -0.0041    0.0020 C.ar      1 <0>        -0.0305
      7 C7         -1.2663   -0.7622    0.0101 C.2       1 <0>         0.2668
      8 N1         -2.4688   -0.2344    0.0239 N.2       1 <0>        -0.4516
      9 H1         -0.6429   -2.7598   -0.0166 H         1 <0>         0.4248
     10 C8         -3.3891   -1.2133    0.0276 C.2       1 <0>         0.0607
     11 C9         -2.7170   -2.4244    0.0153 C.2       1 <0>         0.0509
     12 N2         -1.3752   -2.1239   -0.0017 N.pl3     1 <0>        -0.5528
     13 C10        -3.3214   -3.7709    0.0147 C.ar      1 <0>        -0.0389
     14 C11        -4.3834   -4.0632    0.8738 C.ar      1 <0>        -0.0572
     15 C12        -4.9440   -5.3230    0.8688 C.ar      1 <0>        -0.1473
     16 C13        -4.4555   -6.2985    0.0139 C.ar      1 <0>         0.1118
     17 C14        -3.4017   -6.0145   -0.8405 C.ar      1 <0>        -0.1493
     18 C15        -2.8374   -4.7564   -0.8492 C.ar      1 <0>        -0.0780
     19 F1         -5.0084   -7.5311    0.0136 F         1 <0>        -0.1337
     20 C16        -4.8582   -1.0303    0.0430 C.ar      1 <0>         0.0400
     21 C17        -5.7004   -1.9173   -0.6371 C.ar      1 <0>        -0.1586
     22 C18        -7.0629   -1.7095   -0.5964 C.ar      1 <0>         0.1014
     23 N3         -7.5737   -0.6921    0.0713 N.ar      1 <0>        -0.4840
     24 C19        -6.8154    0.1672    0.7258 C.ar      1 <0>         0.1006
     25 C20        -5.4433    0.0310    0.7427 C.ar      1 <0>        -0.1465
     26 O1          3.5463    2.1144   -0.0214 O.3       1 <0>        -0.4977
     27 H2         -0.9589    1.9200    0.0260 H         1 <0>         0.1437
     28 H3          1.1545    3.1754    0.0081 H         1 <0>         0.1381
     29 H4          3.3480   -0.4948   -0.0346 H         1 <0>         0.1359
     30 H5          1.2415   -1.7618   -0.0204 H         1 <0>         0.1230
     31 H6         -4.7644   -3.3041    1.5409 H         1 <0>         0.1365
     32 H7         -5.7651   -5.5501    1.5325 H         1 <0>         0.1435
     33 H8         -3.0248   -6.7788   -1.5040 H         1 <0>         0.1419
     34 H9         -2.0195   -4.5348   -1.5187 H         1 <0>         0.1326
     35 H10        -5.2894   -2.7518   -1.1857 H         1 <0>         0.1340
     36 H11        -7.7211   -2.3883   -1.1184 H         1 <0>         0.1574
     37 H12        -7.2760    0.9856    1.2591 H         1 <0>         0.1586
     38 H13        -4.8292    0.7351    1.2845 H         1 <0>         0.1395
     39 H14         3.8927    2.3115    0.8597 H         1 <0>         0.3954
@<TRIPOS>BOND
     1    1    6 ar
     2    1    2 ar
     3    1   27 1
     4    2    3 ar
     5    2   28 1
     6    3    4 ar
     7    3   26 1
     8    4    5 ar
     9    4   29 1
    10    5    6 ar
    11    5   30 1
    12    6    7 1
    13    7    8 2
    14    7   12 1
    15    8   10 1
    16    9   12 1
    17   10   20 1
    18   10   11 2
    19   11   13 1
    20   11   12 1
    21   13   18 ar
    22   13   14 ar
    23   14   15 ar
    24   14   31 1
    25   15   16 ar
    26   15   32 1
    27   16   17 ar
    28   16   19 1
    29   17   18 ar
    30   17   33 1
    31   18   34 1
    32   20   25 ar
    33   20   21 ar
    34   21   22 ar
    35   21   35 1
    36   22   23 ar
    37   22   36 1
    38   23   24 ar
    39   24   25 ar
    40   24   37 1
    41   25   38 1
    42   26   39 1
@<TRIPOS>MOLECULE
ZINC14951176
   40    43     0     0     0
SMALL
USER_CHARGES

@<TRIPOS>ATOM
      1 C1         -0.0079    1.3560    0.4128 C.ar      1 <0>        -0.0502
      2 C2          1.1789    2.0446    0.5411 C.ar      1 <0>        -0.1379
      3 C3          2.3872    1.3600    0.5181 C.ar      1 <0>         0.1743
      4 C4          2.4048   -0.0205    0.3656 C.ar      1 <0>        -0.1372
      5 C5          1.2223   -0.7164    0.2363 C.ar      1 <0>        -0.0529
      6 C6          0.0054   -0.0319    0.2597 C.ar      1 <0>        -0.1114
      7 C7         -1.2648   -0.7743    0.1224 C.cat     1 <0>         0.3974
      8 N1         -2.5103   -0.2175    0.1240 N.pl3     1 <0>        -0.5055
      9 H1         -2.7195    0.7253    0.2141 H         1 <0>         0.4639
     10 C8         -3.4150   -1.2456   -0.0267 C.2       1 <0>         0.1188
     11 C9         -2.6710   -2.4104   -0.1160 C.2       1 <0>         0.1124
     12 N2         -1.3744   -2.0755   -0.0265 N.pl3     1 <0>        -0.4709
     13 C10        -3.2098   -3.7802   -0.2862 C.ar      1 <0>        -0.0876
     14 C11        -4.1834   -4.0340   -1.2519 C.ar      1 <0>        -0.0424
     15 C12        -4.6816   -5.3110   -1.4069 C.ar      1 <0>        -0.1470
     16 C13        -4.2164   -6.3406   -0.6047 C.ar      1 <0>         0.1433
     17 C14        -3.2491   -6.0935    0.3562 C.ar      1 <0>        -0.1478
     18 C15        -2.7406   -4.8209    0.5148 C.ar      1 <0>        -0.0599
     19 F1         -4.7080   -7.5895   -0.7596 F         1 <0>        -0.1208
     20 C16        -4.8840   -1.1288   -0.0821 C.ar      1 <0>        -0.0205
     21 C17        -5.7034   -1.9735    0.6798 C.ar      1 <0>        -0.1289
     22 C18        -7.0715   -1.8287    0.5974 C.ar      1 <0>         0.1171
     23 N3         -7.6107   -0.9116   -0.1841 N.ar      1 <0>        -0.4578
     24 C19        -6.8767   -0.0959   -0.9180 C.ar      1 <0>         0.1165
     25 C20        -5.5005   -0.1662   -0.8936 C.ar      1 <0>        -0.1481
     26 O1          3.5548    2.0423    0.6448 O.3       1 <0>        -0.4899
     27 H2         -0.9472    1.8885    0.4352 H         1 <0>         0.1371
     28 H3          1.1694    3.1181    0.6592 H         1 <0>         0.1540
     29 H4          3.3464   -0.5492    0.3479 H         1 <0>         0.1543
     30 H5          1.2369   -1.7897    0.1170 H         1 <0>         0.1372
     31 H6         -4.5471   -3.2320   -1.8771 H         1 <0>         0.1402
     32 H7         -5.4356   -5.5085   -2.1544 H         1 <0>         0.1527
     33 H8         -2.8897   -6.8992    0.9791 H         1 <0>         0.1527
     34 H9         -1.9838   -4.6301    1.2612 H         1 <0>         0.1391
     35 H10        -5.2693   -2.7263    1.3211 H         1 <0>         0.1460
     36 H11        -7.7114   -2.4748    1.1801 H         1 <0>         0.1719
     37 H12        -7.3614    0.6395   -1.5430 H         1 <0>         0.1713
     38 H13        -4.9063    0.5074   -1.4932 H         1 <0>         0.1422
     39 H14         3.8545    2.1428    1.5587 H         1 <0>         0.4115
     40 H15        -0.6320   -2.6987   -0.0633 H         1 <0>         0.4629
@<TRIPOS>BOND
     1    1    6 ar
     2    1    2 ar
     3    1   27 1
     4    2    3 ar
     5    2   28 1
     6    3    4 ar
     7    3   26 1
     8    4    5 ar
     9    4   29 1
    10    5    6 ar
    11    5   30 1
    12    6    7 1
    13    7   12 2
    14    7    8 1
    15    8    9 1
    16    8   10 1
    17   10   11 2
    18   10   20 1
    19   11   12 1
    20   11   13 1
    21   12   40 1
    22   13   18 ar
    23   13   14 ar
    24   14   15 ar
    25   14   31 1
    26   15   16 ar
    27   15   32 1
    28   16   17 ar
    29   16   19 1
    30   17   18 ar
    31   17   33 1
    32   18   34 1
    33   20   25 ar
    34   20   21 ar
    35   21   22 ar
    36   21   35 1
    37   22   23 ar
    38   22   36 1
    39   23   24 ar
    40   24   25 ar
    41   24   37 1
    42   25   38 1
    43   26   39 1
@<TRIPOS>MOLECULE
ZINC14951176
   40    43     0     0     0
SMALL
USER_CHARGES

@<TRIPOS>ATOM
      1 C1         -0.0268    1.3873   -0.2487 C.ar      1 <0>        -0.0533
      2 C2          1.1507    2.0881   -0.3954 C.ar      1 <0>        -0.1372
      3 C3          2.3508    1.4075   -0.5560 C.ar      1 <0>         0.1741
      4 C4          2.3694    0.0187   -0.5693 C.ar      1 <0>        -0.1379
      5 C5          1.1963   -0.6894   -0.4227 C.ar      1 <0>        -0.0501
      6 C6         -0.0123   -0.0089   -0.2611 C.ar      1 <0>        -0.1113
      7 C7         -1.2726   -0.7643   -0.1040 C.cat     1 <0>         0.3964
      8 N1         -1.3739   -2.1224    0.0021 N.pl3     1 <0>        -0.5087
      9 H1         -0.6406   -2.7573   -0.0113 H         1 <0>         0.4641
     10 C8         -2.7098   -2.4213    0.1324 C.2       1 <0>         0.1445
     11 C9         -3.3862   -1.2129    0.1003 C.2       1 <0>         0.0865
     12 N2         -2.4734   -0.2367   -0.0386 N.pl3     1 <0>        -0.4668
     13 C10        -4.8514   -1.0295    0.2063 C.ar      1 <0>        -0.0181
     14 C11        -5.5878   -1.6830    1.2008 C.ar      1 <0>        -0.1314
     15 C12        -6.9507   -1.4834    1.2636 C.ar      1 <0>         0.1177
     16 N3         -7.5598   -0.6900    0.4025 N.ar      1 <0>        -0.4587
     17 C13        -6.9031   -0.0552   -0.5501 C.ar      1 <0>         0.1173
     18 C14        -5.5375   -0.1932   -0.6817 C.ar      1 <0>        -0.1516
     19 C15        -3.3053   -3.7640    0.2776 C.ar      1 <0>        -0.0905
     20 C16        -4.4063   -4.1307   -0.5000 C.ar      1 <0>        -0.0398
     21 C17        -4.9583   -5.3865   -0.3599 C.ar      1 <0>        -0.1481
     22 C18        -4.4232   -6.2840    0.5507 C.ar      1 <0>         0.1454
     23 C19        -3.3311   -5.9257    1.3253 C.ar      1 <0>        -0.1491
     24 C20        -2.7664   -4.6752    1.1893 C.ar      1 <0>        -0.0562
     25 F1         -4.9685   -7.5129    0.6840 F         1 <0>        -0.1204
     26 O1          3.5092    2.1019   -0.7007 O.3       1 <0>        -0.4899
     27 H2         -0.9590    1.9172   -0.1198 H         1 <0>         0.1369
     28 H3          1.1404    3.1680   -0.3860 H         1 <0>         0.1542
     29 H4          3.3045   -0.5068   -0.6950 H         1 <0>         0.1540
     30 H5          1.2115   -1.7693   -0.4335 H         1 <0>         0.1375
     31 H6         -5.0961   -2.3342    1.9084 H         1 <0>         0.1454
     32 H7         -7.5277   -1.9833    2.0275 H         1 <0>         0.1715
     33 H8         -7.4422    0.5842   -1.2336 H         1 <0>         0.1711
     34 H9         -5.0059    0.3326   -1.4610 H         1 <0>         0.1417
     35 H10        -4.8245   -3.4319   -1.2094 H         1 <0>         0.1408
     36 H11        -5.8095   -5.6711   -0.9606 H         1 <0>         0.1531
     37 H12        -2.9189   -6.6290    2.0337 H         1 <0>         0.1530
     38 H13        -1.9125   -4.3987    1.7900 H         1 <0>         0.1398
     39 H14         3.9581    2.2964    0.1334 H         1 <0>         0.4114
     40 H15        -2.6712    0.7118   -0.0857 H         1 <0>         0.4627
@<TRIPOS>BOND
     1    1    6 ar
     2    1    2 ar
     3    1   27 1
     4    2    3 ar
     5    2   28 1
     6    3    4 ar
     7    3   26 1
     8    4    5 ar
     9    4   29 1
    10    5    6 ar
    11    5   30 1
    12    6    7 1
    13    7   12 2
    14    7    8 1
    15    8    9 1
    16    8   10 1
    17   10   11 2
    18   10   19 1
    19   11   12 1
    20   11   13 1
    21   12   40 1
    22   13   18 ar
    23   13   14 ar
    24   14   15 ar
    25   14   31 1
    26   15   16 ar
    27   15   32 1
    28   16   17 ar
    29   17   18 ar
    30   17   33 1
    31   18   34 1
    32   19   24 ar
    33   19   20 ar
    34   20   21 ar
    35   20   35 1
    36   21   22 ar
    37   21   36 1
    38   22   23 ar
    39   22   25 1
    40   23   24 ar
    41   23   37 1
    42   24   38 1
    43   26   39 1
@<TRIPOS>MOLECULE
ZINC03816409
   50    52     0     0     0
SMALL
USER_CHARGES
N-[5-[(5-tert-butyloxazol-2-yl)methylsulfanyl]thiazol-2-yl]piperidine-4-carboxamide
@<TRIPOS>ATOM
      1 C1         -0.0127    1.0858    0.0080 C.3       1 <0>        -0.1425
      2 C2         -0.7288    1.5792    1.2668 C.3       1 <0>         0.0153
      3 C3          0.0111    1.0724    2.5063 C.3       1 <0>        -0.1429
      4 C4         -0.7496    3.1091    1.2752 C.3       1 <0>        -0.1470
      5 C5         -2.1426    1.0576    1.2775 C.2       1 <0>        -0.0059
      6 C6         -2.5173   -0.2324    1.2742 C.2       1 <0>        -0.0384
      7 N1         -3.8616   -0.2670    1.2868 N.2       1 <0>        -0.4461
      8 C7         -4.3108    0.9556    1.2976 C.2       1 <0>         0.1754
      9 O1         -3.2687    1.7975    1.2981 O.3       1 <0>        -0.1872
     10 C8         -5.7633    1.3568    1.3132 C.3       1 <0>        -0.0274
     11 S1         -6.3302    1.5091    3.0296 S.3       1 <0>         0.0531
     12 C9         -8.0223    1.9770    2.8797 C.2       1 <0>        -0.2079
     13 C10        -8.9445    2.2293    3.8504 C.2       1 <0>         0.0730
     14 N2        -10.1733    2.5704    3.5096 N.2       1 <0>        -0.4781
     15 C11       -10.5307    2.6731    2.2430 C.2       1 <0>         0.3098
     16 S2         -9.0031    2.2599    1.4114 S.3       1 <0>         0.0397
     17 N3        -11.7659    3.0158    1.7000 N.am      1 <0>        -0.6146
     18 C12       -12.8034    3.3002    2.5119 C.2       1 <0>         0.5107
     19 O2        -12.6609    3.2576    3.7157 O.2       1 <0>        -0.4551
     20 C13       -14.1405    3.6713    1.9241 C.3       1 <0>        -0.1149
     21 C14       -13.9915    4.9332    1.0698 C.3       1 <0>        -0.1461
     22 C15       -15.3628    5.3397    0.5255 C.3       1 <0>         0.0009
     23 C16       -16.4761    4.3789    2.4515 C.3       1 <0>        -0.0009
     24 C17       -15.1380    3.9438    3.0534 C.3       1 <0>        -0.1323
     25 H1          0.0021   -0.0041    0.0020 H         1 <0>         0.0648
     26 H2          1.0099    1.4631    0.0003 H         1 <0>         0.0750
     27 H3         -0.5399    1.4469   -0.8751 H         1 <0>         0.0608
     28 H4          1.0337    1.4497    2.4986 H         1 <0>         0.0751
     29 H5         -0.4990    1.4239    3.4031 H         1 <0>         0.0616
     30 H6          0.0259   -0.0175    2.5003 H         1 <0>         0.0649
     31 H7         -1.2768    3.4701    0.3922 H         1 <0>         0.0605
     32 H8         -1.2598    3.4606    2.1720 H         1 <0>         0.0616
     33 H9          0.2730    3.4864    1.2675 H         1 <0>         0.0706
     34 H10        -1.8578   -1.0876    1.2633 H         1 <0>         0.1891
     35 H11        -5.8813    2.3140    0.8053 H         1 <0>         0.1204
     36 H12        -6.3553    0.5983    0.8010 H         1 <0>         0.1329
     37 H13        -8.6718    2.1504    4.8925 H         1 <0>         0.1794
     38 H14       -11.8799    3.0499    0.7373 H         1 <0>         0.4267
     39 H15       -14.5061    2.8521    1.3049 H         1 <0>         0.1234
     40 H16       -13.5885    5.7409    1.6809 H         1 <0>         0.0995
     41 H17       -13.3151    4.7324    0.2390 H         1 <0>         0.1172
     42 H18       -15.7590    4.5372   -0.0967 H         1 <0>         0.1349
     43 H19       -15.2623    6.2461   -0.0715 H         1 <0>         0.1387
     44 H20       -16.8671    3.5809    1.8204 H         1 <0>         0.1334
     45 H21       -17.1842    4.5877    3.2534 H         1 <0>         0.1392
     46 H22       -15.2808    3.0361    3.6398 H         1 <0>         0.1229
     47 H23       -14.7528    4.7354    3.6961 H         1 <0>         0.1008
     48 N4        -16.2857    5.6006    1.6466 N.4       1 <0>        -0.5187
     49 H24       -17.1928    5.9050    1.2741 H         1 <0>         0.4395
     50 H25       -15.8944    6.3401    2.2417 H         1 <0>         0.4347
@<TRIPOS>BOND
     1    1    2 1
     2    1   25 1
     3    1   26 1
     4    1   27 1
     5    2    3 1
     6    2    4 1
     7    2    5 1
     8    3   28 1
     9    3   29 1
    10    3   30 1
    11    4   31 1
    12    4   32 1
    13    4   33 1
    14    5    9 1
    15    5    6 2
    16    6    7 1
    17    6   34 1
    18    7    8 2
    19    8    9 1
    20    8   10 1
    21   10   11 1
    22   10   35 1
    23   10   36 1
    24   11   12 1
    25   12   16 1
    26   12   13 2
    27   13   14 1
    28   13   37 1
    29   14   15 2
    30   15   16 1
    31   15   17 1
    32   17   18 am
    33   17   38 1
    34   18   19 2
    35   18   20 1
    36   20   24 1
    37   20   21 1
    38   20   39 1
    39   21   22 1
    40   21   40 1
    41   21   41 1
    42   22   42 1
    43   22   43 1
    44   22   48 1
    45   23   24 1
    46   23   44 1
    47   23   45 1
    48   23   48 1
    49   24   46 1
    50   24   47 1
    51   48   49 1
    52   48   50 1
@<TRIPOS>MOLECULE
ZINC02047275
   40    42     0     0     0
SMALL
USER_CHARGES

@<TRIPOS>ATOM
      1 C1          0.7504    1.4813   -0.5243 C.3       1 <0>        -0.1202
      2 C2          0.6799   -0.0230   -0.4691 C.ar      1 <0>        -0.0709
      3 C3         -0.5065   -0.6686   -0.7679 C.ar      1 <0>        -0.1163
      4 C4         -0.5769   -2.0460   -0.7194 C.ar      1 <0>        -0.0803
      5 C5          0.5506   -2.7869   -0.3684 C.ar      1 <0>        -0.0302
      6 C6          1.7435   -2.1308   -0.0684 C.ar      1 <0>        -0.1049
      7 C7          1.8034   -0.7533   -0.1253 C.ar      1 <0>        -0.1170
      8 C8          0.4813   -4.2668   -0.3141 C.2       1 <0>         0.1646
      9 C9          1.0233   -5.1212    0.7421 C.ar      1 <0>        -0.3256
     10 C10         1.7203   -4.8974    1.9412 C.ar      1 <0>         0.5179
     11 N1          2.0660   -5.9499    2.6758 N.ar      1 <0>        -0.6060
     12 C11         1.7644   -7.1781    2.2929 C.ar      1 <0>         0.3830
     13 N2          1.1143   -7.4354    1.1795 N.ar      1 <0>        -0.5706
     14 C12         0.7242   -6.4464    0.3753 C.ar      1 <0>         0.3781
     15 N3          0.0542   -6.3875   -0.8104 N.pl3     1 <0>        -0.3674
     16 N4         -0.0827   -5.0514   -1.2016 N.2       1 <0>        -0.2318
     17 C13        -0.4483   -7.5436   -1.5568 C.3       1 <0>         0.1893
     18 C14        -1.4481   -8.3137   -0.6918 C.3       1 <0>        -0.1621
     19 C15        -1.1417   -7.0641   -2.8336 C.3       1 <0>        -0.1441
     20 C16         0.7202   -8.4603   -1.9245 C.3       1 <0>        -0.1621
     21 N5          2.0388   -3.6157    2.3464 N.pl3     1 <0>        -0.8296
     22 H1          1.0385    1.7949   -1.5277 H         1 <0>         0.0748
     23 H2         -0.2256    1.9000   -0.2789 H         1 <0>         0.0696
     24 H3          1.4893    1.8370    0.1937 H         1 <0>         0.0697
     25 H4         -1.3795   -0.0936   -1.0393 H         1 <0>         0.1298
     26 H5         -1.5038   -2.5489   -0.9525 H         1 <0>         0.1288
     27 H6          2.6201   -2.6997    0.2042 H         1 <0>         0.1308
     28 H7          2.7281   -0.2441    0.1030 H         1 <0>         0.1308
     29 H8          2.0645   -8.0045    2.9201 H         1 <0>         0.2039
     30 H9         -2.2806   -7.6606   -0.4299 H         1 <0>         0.0595
     31 H10        -1.8220   -9.1739   -1.2472 H         1 <0>         0.0799
     32 H11        -0.9541   -8.6553    0.2178 H         1 <0>         0.0770
     33 H12        -0.4294   -6.5155   -3.4498 H         1 <0>         0.0676
     34 H13        -1.5156   -7.9243   -3.3889 H         1 <0>         0.0757
     35 H14        -1.9742   -6.4110   -2.5716 H         1 <0>         0.0673
     36 H15         1.2142   -8.8019   -1.0149 H         1 <0>         0.0770
     37 H16         0.3463   -9.3205   -2.4798 H         1 <0>         0.0799
     38 H17         1.4325   -7.9117   -2.5407 H         1 <0>         0.0596
     39 H18         1.5920   -2.8546    1.9438 H         1 <0>         0.4138
     40 H19         2.7091   -3.4768    3.0336 H         1 <0>         0.4102
@<TRIPOS>BOND
     1    1    2 1
     2    1   22 1
     3    1   23 1
     4    1   24 1
     5    2    7 ar
     6    2    3 ar
     7    3    4 ar
     8    3   25 1
     9    4    5 ar
    10    4   26 1
    11    5    6 ar
    12    5    8 1
    13    6    7 ar
    14    6   27 1
    15    7   28 1
    16    8   16 2
    17    8    9 1
    18    9   14 ar
    19    9   10 ar
    20   10   11 ar
    21   10   21 1
    22   11   12 ar
    23   12   13 ar
    24   12   29 1
    25   13   14 ar
    26   14   15 1
    27   15   16 1
    28   15   17 1
    29   17   18 1
    30   17   19 1
    31   17   20 1
    32   18   30 1
    33   18   31 1
    34   18   32 1
    35   19   33 1
    36   19   34 1
    37   19   35 1
    38   20   36 1
    39   20   37 1
    40   20   38 1
    41   21   39 1
    42   21   40 1
@<TRIPOS>MOLECULE
ZINC13580862
   34    37     0     0     0
SMALL
USER_CHARGES

@<TRIPOS>ATOM
      1 C1         -0.0164    1.3616    0.0095 C.ar      1 <0>        -0.1568
      2 C2          1.1701    2.0826    0.0021 C.ar      1 <0>        -0.0943
      3 C3          2.3839    1.4335   -0.0114 C.ar      1 <0>        -0.1397
      4 C4          2.4279    0.0416   -0.0160 C.ar      1 <0>         0.1068
      5 C5          1.2201   -0.6857   -0.0118 C.ar      1 <0>        -0.0636
      6 C6          0.0021   -0.0041    0.0020 C.ar      1 <0>        -0.0311
      7 C7          1.5998   -2.0957   -0.0246 C.2       1 <0>        -0.0103
      8 C8          2.9976   -2.1314    0.0009 C.2       1 <0>        -0.0027
      9 N1          3.4750   -0.8572   -0.0263 N.pl3     1 <0>        -0.5583
     10 H1          4.4143   -0.6161   -0.0496 H         1 <0>         0.4147
     11 C9          3.7166   -3.4155    0.1011 C.2       1 <0>         0.6050
     12 O1          4.6730   -3.5468    0.8418 O.2       1 <0>        -0.5339
     13 N2          3.2717   -4.4452   -0.6632 N.am      1 <0>        -0.7165
     14 C10         2.3631   -4.2092   -1.7752 C.3       1 <0>         0.1179
     15 C11         0.8937   -4.1436   -1.3483 C.3       1 <0>        -0.0809
     16 C12         0.7762   -3.3011   -0.0939 C.2       1 <0>        -0.1249
     17 C13        -0.0591   -3.6520    0.9234 C.2       1 <0>         0.1038
     18 C14        -0.2770   -2.9332    2.1846 C.2       1 <0>         0.4611
     19 O2          0.3200   -1.7809    2.5644 O.3       1 <0>        -0.6166
     20 N3         -1.1620   -3.6190    2.8767 N.2       1 <0>        -0.6256
     21 C15        -1.5457   -4.7115    2.1993 C.2       1 <0>         0.5794
     22 N4         -0.8952   -4.7692    0.9859 N.pl3     1 <0>        -0.7326
     23 N5         -2.4175   -5.5935    2.6273 N.2       1 <0>        -0.7934
     24 H2         -0.9612    1.8845    0.0259 H         1 <0>         0.1183
     25 H3          1.1404    3.1622    0.0065 H         1 <0>         0.1205
     26 H4          3.3013    2.0033   -0.0188 H         1 <0>         0.1156
     27 H5         -0.9258   -0.5566    0.0071 H         1 <0>         0.1160
     28 H6          3.5626   -5.3493   -0.4656 H         1 <0>         0.4040
     29 H7          2.6315   -3.2670   -2.2531 H         1 <0>         0.0751
     30 H8          2.4814   -5.0136   -2.5012 H         1 <0>         0.0826
     31 H9          0.3026   -3.6934   -2.1458 H         1 <0>         0.0832
     32 H10         0.5278   -5.1503   -1.1465 H         1 <0>         0.0637
     33 H11        -0.9968   -5.4546    0.3070 H         1 <0>         0.3993
     34 H12        -2.6425   -6.3597    2.0767 H         1 <0>         0.3141
@<TRIPOS>BOND
     1    1    6 ar
     2    1    2 ar
     3    1   24 1
     4    2    3 ar
     5    2   25 1
     6    3    4 ar
     7    3   26 1
     8    4    9 1
     9    4    5 ar
    10    5    6 ar
    11    5    7 1
    12    6   27 1
    13    7   16 1
    14    7    8 2
    15    8    9 1
    16    8   11 1
    17    9   10 1
    18   11   12 2
    19   11   13 am
    20   13   14 1
    21   13   28 1
    22   14   15 1
    23   14   29 1
    24   14   30 1
    25   15   16 1
    26   15   31 1
    27   15   32 1
    28   16   17 2
    29   17   22 1
    30   17   18 1
    31   18   19 1
    32   18   20 2
    33   20   21 1
    34   21   22 1
    35   21   23 2
    36   22   33 1
    37   23   34 1
@<TRIPOS>MOLECULE
ZINC13580862
   35    38     0     0     0
SMALL
USER_CHARGES

@<TRIPOS>ATOM
      1 C1         -0.0164    1.3616    0.0095 C.ar      1 <0>        -0.1343
      2 C2          1.1701    2.0828    0.0021 C.ar      1 <0>        -0.0896
      3 C3          2.3839    1.4337   -0.0123 C.ar      1 <0>        -0.1230
      4 C4          2.4280    0.0419   -0.0181 C.ar      1 <0>         0.1037
      5 C5          1.2200   -0.6856   -0.0124 C.ar      1 <0>        -0.0867
      6 C6          0.0021   -0.0041    0.0020 C.ar      1 <0>        -0.0711
      7 C7          1.6004   -2.0952   -0.0247 C.2       1 <0>        -0.1173
      8 C8          2.9975   -2.1301   -0.0021 C.2       1 <0>         0.0496
      9 N1          3.4746   -0.8574   -0.0312 N.pl3     1 <0>        -0.5456
     10 H1          4.4138   -0.6165   -0.0576 H         1 <0>         0.4254
     11 C9          3.7172   -3.4156    0.0981 C.2       1 <0>         0.5915
     12 O1          4.6750   -3.5459    0.8367 O.2       1 <0>        -0.5186
     13 N2          3.2708   -4.4465   -0.6635 N.am      1 <0>        -0.7114
     14 C10         2.3605   -4.2128   -1.7747 C.3       1 <0>         0.1119
     15 C11         0.8920   -4.1471   -1.3455 C.3       1 <0>        -0.1049
     16 C12         0.7767   -3.3024   -0.0905 C.2       1 <0>         0.0208
     17 C13        -0.0540   -3.6515    0.9268 C.2       1 <0>        -0.0037
     18 C14        -0.9343   -4.8342    1.0059 C.2       1 <0>         0.5400
     19 O2         -1.0659   -5.7065    0.1629 O.2       1 <0>        -0.4699
     20 N3         -1.5593   -4.7585    2.1891 N.2       1 <0>        -0.6424
     21 C15        -1.1761   -3.6839    2.8438 C.2       1 <0>         0.6564
     22 N4         -0.2590   -2.9736    2.1312 N.pl3     1 <0>        -0.6643
     23 N5         -1.6360   -3.3285    4.0823 N.pl3     1 <0>        -0.8045
     24 H2         -0.9612    1.8845    0.0259 H         1 <0>         0.1279
     25 H3          1.1404    3.1624    0.0072 H         1 <0>         0.1316
     26 H4          3.3013    2.0035   -0.0195 H         1 <0>         0.1265
     27 H5         -0.9258   -0.5567    0.0073 H         1 <0>         0.1227
     28 H6          3.5624   -5.3500   -0.4649 H         1 <0>         0.4132
     29 H7          2.6277   -3.2713   -2.2546 H         1 <0>         0.0772
     30 H8          2.4781   -5.0184   -2.4994 H         1 <0>         0.0992
     31 H9          0.2993   -3.6983   -2.1426 H         1 <0>         0.1051
     32 H10         0.5268   -5.1537   -1.1417 H         1 <0>         0.1090
     33 H11         0.1708   -2.1491    2.4074 H         1 <0>         0.4254
     34 H12        -2.2886   -3.8851    4.5354 H         1 <0>         0.4332
     35 H13        -1.3094   -2.5201    4.5073 H         1 <0>         0.4168
@<TRIPOS>BOND
     1    1    6 ar
     2    1    2 ar
     3    1   24 1
     4    2    3 ar
     5    2   25 1
     6    3    4 ar
     7    3   26 1
     8    4    9 1
     9    4    5 ar
    10    5    6 ar
    11    5    7 1
    12    6   27 1
    13    7   16 1
    14    7    8 2
    15    8    9 1
    16    8   11 1
    17    9   10 1
    18   11   12 2
    19   11   13 am
    20   13   14 1
    21   13   28 1
    22   14   15 1
    23   14   29 1
    24   14   30 1
    25   15   16 1
    26   15   31 1
    27   15   32 1
    28   16   17 2
    29   17   22 1
    30   17   18 1
    31   18   19 2
    32   18   20 1
    33   20   21 2
    34   21   22 1
    35   21   23 1
    36   22   33 1
    37   23   34 1
    38   23   35 1
@<TRIPOS>MOLECULE
ZINC13580862
   34    37     0     0     0
SMALL
USER_CHARGES

@<TRIPOS>ATOM
      1 C1         -0.0164    1.3616    0.0095 C.ar      1 <0>        -0.1495
      2 C2          1.1701    2.0828    0.0021 C.ar      1 <0>        -0.0925
      3 C3          2.3839    1.4337   -0.0123 C.ar      1 <0>        -0.1344
      4 C4          2.4280    0.0419   -0.0181 C.ar      1 <0>         0.1053
      5 C5          1.2200   -0.6856   -0.0124 C.ar      1 <0>        -0.0962
      6 C6          0.0021   -0.0041    0.0020 C.ar      1 <0>        -0.0532
      7 C7          1.6004   -2.0952   -0.0247 C.2       1 <0>        -0.0481
      8 C8          2.9975   -2.1301   -0.0021 C.2       1 <0>         0.0087
      9 N1          3.4746   -0.8574   -0.0312 N.pl3     1 <0>        -0.5549
     10 H1          4.4138   -0.6165   -0.0576 H         1 <0>         0.4175
     11 C9          3.7172   -3.4156    0.0981 C.2       1 <0>         0.6012
     12 O1          4.6750   -3.5459    0.8367 O.2       1 <0>        -0.5370
     13 N2          3.2708   -4.4465   -0.6635 N.am      1 <0>        -0.7082
     14 C10         2.3605   -4.2128   -1.7747 C.3       1 <0>         0.1160
     15 C11         0.8920   -4.1471   -1.3455 C.3       1 <0>        -0.0808
     16 C12         0.7767   -3.3024   -0.0905 C.2       1 <0>        -0.1251
     17 C13        -0.0540   -3.6515    0.9268 C.2       1 <0>         0.0825
     18 C14        -0.9343   -4.8342    1.0059 C.2       1 <0>         0.5128
     19 O2         -1.0659   -5.7065    0.1629 O.2       1 <0>        -0.5579
     20 N3         -1.5593   -4.7585    2.1891 N.2       1 <0>        -0.7159
     21 C15        -1.1761   -3.6839    2.8438 C.2       1 <0>         0.5690
     22 N4         -0.2590   -2.9736    2.1312 N.pl3     1 <0>        -0.6693
     23 N5         -1.6360   -3.3285    4.0823 N.2       1 <0>        -0.8523
     24 H2         -0.9612    1.8845    0.0259 H         1 <0>         0.1227
     25 H3          1.1404    3.1624    0.0072 H         1 <0>         0.1245
     26 H4          3.3013    2.0035   -0.0195 H         1 <0>         0.1193
     27 H5         -0.9258   -0.5567    0.0073 H         1 <0>         0.1234
     28 H6          3.5624   -5.3500   -0.4649 H         1 <0>         0.4073
     29 H7          2.6277   -3.2713   -2.2546 H         1 <0>         0.0683
     30 H8          2.4781   -5.0184   -2.4994 H         1 <0>         0.0854
     31 H9          0.2993   -3.6983   -2.1426 H         1 <0>         0.0798
     32 H10         0.5268   -5.1537   -1.1417 H         1 <0>         0.1019
     33 H11         0.1708   -2.1491    2.4074 H         1 <0>         0.4080
     34 H12        -2.2886   -3.8851    4.5354 H         1 <0>         0.3215
@<TRIPOS>BOND
     1    1    6 ar
     2    1    2 ar
     3    1   24 1
     4    2    3 ar
     5    2   25 1
     6    3    4 ar
     7    3   26 1
     8    4    9 1
     9    4    5 ar
    10    5    6 ar
    11    5    7 1
    12    6   27 1
    13    7   16 1
    14    7    8 2
    15    8    9 1
    16    8   11 1
    17    9   10 1
    18   11   12 2
    19   11   13 am
    20   13   14 1
    21   13   28 1
    22   14   15 1
    23   14   29 1
    24   14   30 1
    25   15   16 1
    26   15   31 1
    27   15   32 1
    28   16   17 2
    29   17   22 1
    30   17   18 1
    31   18   19 2
    32   18   20 1
    33   20   21 2
    34   21   22 1
    35   21   23 1
    36   22   33 1
    37   23   34 1
@<TRIPOS>MOLECULE
ZINC13580862
   34    37     0     0     0
SMALL
USER_CHARGES

@<TRIPOS>ATOM
      1 C1         -0.0164    1.3616    0.0095 C.ar      1 <0>        -0.1551
      2 C2          1.1701    2.0828    0.0021 C.ar      1 <0>        -0.0941
      3 C3          2.3839    1.4337   -0.0123 C.ar      1 <0>        -0.1381
      4 C4          2.4280    0.0419   -0.0181 C.ar      1 <0>         0.1061
      5 C5          1.2200   -0.6856   -0.0124 C.ar      1 <0>        -0.0710
      6 C6          0.0021   -0.0041    0.0020 C.ar      1 <0>        -0.0369
      7 C7          1.6004   -2.0952   -0.0247 C.2       1 <0>        -0.0149
      8 C8          2.9975   -2.1301   -0.0021 C.2       1 <0>        -0.0003
      9 N1          3.4746   -0.8574   -0.0312 N.pl3     1 <0>        -0.5571
     10 H1          4.4138   -0.6165   -0.0576 H         1 <0>         0.4154
     11 C9          3.7172   -3.4156    0.0981 C.2       1 <0>         0.6044
     12 O1          4.6750   -3.5459    0.8367 O.2       1 <0>        -0.5344
     13 N2          3.2708   -4.4465   -0.6635 N.am      1 <0>        -0.7147
     14 C10         2.3605   -4.2128   -1.7747 C.3       1 <0>         0.1176
     15 C11         0.8920   -4.1471   -1.3455 C.3       1 <0>        -0.0808
     16 C12         0.7767   -3.3024   -0.0905 C.2       1 <0>        -0.1328
     17 C13        -0.0540   -3.6515    0.9268 C.2       1 <0>         0.0841
     18 C14        -0.2754   -2.9318    2.1968 C.2       1 <0>         0.5077
     19 O2          0.2554   -1.8917    2.5509 O.2       1 <0>        -0.5381
     20 N3         -1.1765   -3.6488    2.8826 N.2       1 <0>        -0.7200
     21 C15        -1.5350   -4.7131    2.1976 C.2       1 <0>         0.5694
     22 N4         -0.8916   -4.7675    0.9991 N.pl3     1 <0>        -0.6726
     23 N5         -2.4406   -5.6422    2.6314 N.2       1 <0>        -0.8579
     24 H2         -0.9612    1.8845    0.0259 H         1 <0>         0.1192
     25 H3          1.1404    3.1624    0.0072 H         1 <0>         0.1216
     26 H4          3.3013    2.0035   -0.0195 H         1 <0>         0.1166
     27 H5         -0.9258   -0.5567    0.0073 H         1 <0>         0.1172
     28 H6          3.5624   -5.3500   -0.4649 H         1 <0>         0.4049
     29 H7          2.6277   -3.2713   -2.2546 H         1 <0>         0.0741
     30 H8          2.4781   -5.0184   -2.4994 H         1 <0>         0.0833
     31 H9          0.2993   -3.6983   -2.1426 H         1 <0>         0.0830
     32 H10         0.5268   -5.1537   -1.1417 H         1 <0>         0.0664
     33 H11        -0.9940   -5.4545    0.3220 H         1 <0>         0.4063
     34 H12        -2.8651   -5.5383    3.4973 H         1 <0>         0.3213
@<TRIPOS>BOND
     1    1    6 ar
     2    1    2 ar
     3    1   24 1
     4    2    3 ar
     5    2   25 1
     6    3    4 ar
     7    3   26 1
     8    4    9 1
     9    4    5 ar
    10    5    6 ar
    11    5    7 1
    12    6   27 1
    13    7   16 1
    14    7    8 2
    15    8    9 1
    16    8   11 1
    17    9   10 1
    18   11   12 2
    19   11   13 am
    20   13   14 1
    21   13   28 1
    22   14   15 1
    23   14   29 1
    24   14   30 1
    25   15   16 1
    26   15   31 1
    27   15   32 1
    28   16   17 2
    29   17   22 1
    30   17   18 1
    31   18   19 2
    32   18   20 1
    33   20   21 2
    34   21   22 1
    35   21   23 1
    36   22   33 1
    37   23   34 1
@<TRIPOS>MOLECULE
ZINC13580862
   35    38     0     0     0
SMALL
USER_CHARGES

@<TRIPOS>ATOM
      1 C1         -0.0164    1.3616    0.0095 C.ar      1 <0>        -0.1383
      2 C2          1.1701    2.0828    0.0021 C.ar      1 <0>        -0.0901
      3 C3          2.3839    1.4337   -0.0123 C.ar      1 <0>        -0.1266
      4 C4          2.4280    0.0419   -0.0181 C.ar      1 <0>         0.1046
      5 C5          1.2200   -0.6856   -0.0124 C.ar      1 <0>        -0.0646
      6 C6          0.0021   -0.0041    0.0020 C.ar      1 <0>        -0.0552
      7 C7          1.6004   -2.0952   -0.0247 C.2       1 <0>        -0.0884
      8 C8          2.9975   -2.1301   -0.0021 C.2       1 <0>         0.0410
      9 N1          3.4746   -0.8574   -0.0312 N.pl3     1 <0>        -0.5469
     10 H1          4.4138   -0.6165   -0.0576 H         1 <0>         0.4234
     11 C9          3.7172   -3.4156    0.0981 C.2       1 <0>         0.5951
     12 O1          4.6750   -3.5459    0.8367 O.2       1 <0>        -0.5149
     13 N2          3.2708   -4.4465   -0.6635 N.am      1 <0>        -0.7182
     14 C10         2.3605   -4.2128   -1.7747 C.3       1 <0>         0.1131
     15 C11         0.8920   -4.1471   -1.3455 C.3       1 <0>        -0.1026
     16 C12         0.7767   -3.3024   -0.0905 C.2       1 <0>         0.0118
     17 C13        -0.0540   -3.6515    0.9268 C.2       1 <0>        -0.0010
     18 C14        -0.2754   -2.9318    2.1968 C.2       1 <0>         0.5312
     19 O2          0.2554   -1.8917    2.5509 O.2       1 <0>        -0.4476
     20 N3         -1.1765   -3.6488    2.8826 N.2       1 <0>        -0.6417
     21 C15        -1.5350   -4.7131    2.1976 C.2       1 <0>         0.6536
     22 N4         -0.8916   -4.7675    0.9991 N.pl3     1 <0>        -0.6693
     23 N5         -2.4406   -5.6422    2.6314 N.pl3     1 <0>        -0.8057
     24 H2         -0.9612    1.8845    0.0259 H         1 <0>         0.1253
     25 H3          1.1404    3.1624    0.0072 H         1 <0>         0.1293
     26 H4          3.3013    2.0035   -0.0195 H         1 <0>         0.1242
     27 H5         -0.9258   -0.5567    0.0073 H         1 <0>         0.1167
     28 H6          3.5624   -5.3500   -0.4649 H         1 <0>         0.4100
     29 H7          2.6277   -3.2713   -2.2546 H         1 <0>         0.0824
     30 H8          2.4781   -5.0184   -2.4994 H         1 <0>         0.0958
     31 H9          0.2993   -3.6983   -2.1426 H         1 <0>         0.1056
     32 H10         0.5268   -5.1537   -1.1417 H         1 <0>         0.0754
     33 H11        -0.9940   -5.4545    0.3220 H         1 <0>         0.4235
     34 H12        -2.8651   -5.5383    3.4973 H         1 <0>         0.4331
     35 H13        -2.6582   -6.4049    2.0729 H         1 <0>         0.4161
@<TRIPOS>BOND
     1    1    6 ar
     2    1    2 ar
     3    1   24 1
     4    2    3 ar
     5    2   25 1
     6    3    4 ar
     7    3   26 1
     8    4    9 1
     9    4    5 ar
    10    5    6 ar
    11    5    7 1
    12    6   27 1
    13    7   16 1
    14    7    8 2
    15    8    9 1
    16    8   11 1
    17    9   10 1
    18   11   12 2
    19   11   13 am
    20   13   14 1
    21   13   28 1
    22   14   15 1
    23   14   29 1
    24   14   30 1
    25   15   16 1
    26   15   31 1
    27   15   32 1
    28   16   17 2
    29   17   22 1
    30   17   18 1
    31   18   19 2
    32   18   20 1
    33   20   21 2
    34   21   22 1
    35   21   23 1
    36   22   33 1
    37   23   34 1
    38   23   35 1
@<TRIPOS>MOLECULE
ZINC17175232
   28    30     0     0     0
SMALL
USER_CHARGES

@<TRIPOS>ATOM
      1 C1         -0.0163    1.3518    0.0095 C.2       1 <0>        -0.1320
      2 C2          1.3148    1.7902   -0.0009 C.2       1 <0>        -0.0473
      3 C3          2.1177    0.6382   -0.0541 C.2       1 <0>        -0.0284
      4 N1          1.2938   -0.4402   -0.0184 N.pl3     1 <0>        -0.4947
      5 H1          1.5772   -1.3679   -0.0093 H         1 <0>         0.4228
      6 C4          0.0021   -0.0041    0.0020 C.2       1 <0>         0.0135
      7 Br1        -1.5265   -1.1172    0.0181 Br        1 <0>         0.0029
      8 C5          3.5766    0.7389   -0.1870 C.2       1 <0>         0.6051
      9 O1          4.1929    0.0169   -0.9490 O.2       1 <0>        -0.5408
     10 N2          4.2121    1.6686    0.5723 N.am      1 <0>        -0.7065
     11 C6          3.5429    2.2863    1.7070 C.3       1 <0>         0.1163
     12 C7          2.6757    3.4872    1.3174 C.3       1 <0>        -0.0871
     13 C8          1.8765    3.1423    0.0746 C.2       1 <0>        -0.1143
     14 C9          1.6898    4.0463   -0.9242 C.2       1 <0>         0.1008
     15 C10         2.1957    5.4237   -0.9853 C.2       1 <0>         0.4669
     16 O2          2.9467    6.0446   -0.0478 O.3       1 <0>        -0.6390
     17 N3          1.7827    5.9409   -2.1226 N.2       1 <0>        -0.6194
     18 C11         1.0592    5.0459   -2.8124 C.2       1 <0>         0.5785
     19 N4          0.9806    3.8605   -2.1141 N.pl3     1 <0>        -0.7302
     20 N5          0.5113    5.2654   -3.9838 N.2       1 <0>        -0.7896
     21 H2         -0.8955    1.9789    0.0252 H         1 <0>         0.1528
     22 H3          5.1227    1.9234    0.3559 H         1 <0>         0.4078
     23 H4          2.9112    1.5403    2.1892 H         1 <0>         0.0663
     24 H5          4.2974    2.6164    2.4210 H         1 <0>         0.0851
     25 H6          1.9946    3.7249    2.1345 H         1 <0>         0.0799
     26 H7          3.3144    4.3465    1.1128 H         1 <0>         0.1130
     27 H8          0.5205    3.0537   -2.3935 H         1 <0>         0.4017
     28 H9          0.0011    4.5649   -4.4195 H         1 <0>         0.3159
@<TRIPOS>BOND
     1    1    6 2
     2    1    2 1
     3    1   21 1
     4    2   13 1
     5    2    3 2
     6    3    4 1
     7    3    8 1
     8    4    5 1
     9    4    6 1
    10    6    7 1
    11    8    9 2
    12    8   10 am
    13   10   11 1
    14   10   22 1
    15   11   12 1
    16   11   23 1
    17   11   24 1
    18   12   13 1
    19   12   25 1
    20   12   26 1
    21   13   14 2
    22   14   19 1
    23   14   15 1
    24   15   16 1
    25   15   17 2
    26   17   18 1
    27   18   19 1
    28   18   20 2
    29   19   27 1
    30   20   28 1
@<TRIPOS>MOLECULE
ZINC17175232
   28    30     0     0     0
SMALL
USER_CHARGES

@<TRIPOS>ATOM
      1 C1         -0.0163    1.3518    0.0095 C.2       1 <0>        -0.1303
      2 C2          1.3148    1.7902   -0.0009 C.2       1 <0>        -0.0482
      3 C3          2.1177    0.6382   -0.0541 C.2       1 <0>        -0.0280
      4 N1          1.2938   -0.4402   -0.0184 N.pl3     1 <0>        -0.4947
      5 H1          1.5772   -1.3679   -0.0093 H         1 <0>         0.4228
      6 C4          0.0021   -0.0041    0.0020 C.2       1 <0>         0.0141
      7 Br1        -1.5265   -1.1172    0.0181 Br        1 <0>         0.0028
      8 C5          3.5766    0.7389   -0.1870 C.2       1 <0>         0.6054
      9 O1          4.1929    0.0169   -0.9490 O.2       1 <0>        -0.5403
     10 N2          4.2121    1.6686    0.5723 N.am      1 <0>        -0.7071
     11 C6          3.5429    2.2863    1.7070 C.3       1 <0>         0.1165
     12 C7          2.6757    3.4872    1.3174 C.3       1 <0>        -0.0863
     13 C8          1.8765    3.1423    0.0746 C.2       1 <0>        -0.1135
     14 C9          1.6898    4.0463   -0.9242 C.2       1 <0>         0.1071
     15 C10         2.1957    5.4237   -0.9853 C.2       1 <0>         0.4664
     16 O2          2.9467    6.0446   -0.0478 O.3       1 <0>        -0.6433
     17 N3          1.7827    5.9409   -2.1226 N.2       1 <0>        -0.6748
     18 C11         1.0592    5.0459   -2.8124 C.2       1 <0>         0.5688
     19 N4          0.9806    3.8605   -2.1141 N.pl3     1 <0>        -0.6803
     20 N5          0.5113    5.2654   -3.9838 N.2       1 <0>        -0.8118
     21 H2         -0.8955    1.9789    0.0252 H         1 <0>         0.1537
     22 H3          5.1227    1.9234    0.3559 H         1 <0>         0.4075
     23 H4          2.9112    1.5403    2.1892 H         1 <0>         0.0668
     24 H5          4.2974    2.6164    2.4210 H         1 <0>         0.0848
     25 H6          1.9946    3.7249    2.1345 H         1 <0>         0.0802
     26 H7          3.3144    4.3465    1.1128 H         1 <0>         0.1125
     27 H8          0.6165    6.1282   -4.4144 H         1 <0>         0.3376
     28 H9          0.5205    3.0537   -2.3935 H         1 <0>         0.4116
@<TRIPOS>BOND
     1    1    6 2
     2    1    2 1
     3    1   21 1
     4    2   13 1
     5    2    3 2
     6    3    4 1
     7    3    8 1
     8    4    5 1
     9    4    6 1
    10    6    7 1
    11    8    9 2
    12    8   10 am
    13   10   11 1
    14   10   22 1
    15   11   12 1
    16   11   23 1
    17   11   24 1
    18   12   13 1
    19   12   25 1
    20   12   26 1
    21   13   14 2
    22   14   19 1
    23   14   15 1
    24   15   16 1
    25   15   17 2
    26   17   18 1
    27   18   19 1
    28   18   20 2
    29   19   28 1
    30   20   27 1
@<TRIPOS>MOLECULE
ZINC17175232
   28    30     0     0     0
SMALL
USER_CHARGES

@<TRIPOS>ATOM
      1 C1         -0.0163    1.3522    0.0095 C.2       1 <0>        -0.1304
      2 C2          1.3145    1.7899   -0.0009 C.2       1 <0>        -0.0459
      3 C3          2.1168    0.6384   -0.0541 C.2       1 <0>        -0.0300
      4 N1          1.2937   -0.4395   -0.0184 N.pl3     1 <0>        -0.4944
      5 H1          1.5775   -1.3670   -0.0089 H         1 <0>         0.4225
      6 C4          0.0021   -0.0041    0.0020 C.2       1 <0>         0.0140
      7 Br1        -1.5262   -1.1176    0.0181 Br        1 <0>         0.0029
      8 C5          3.5767    0.7391   -0.1874 C.2       1 <0>         0.6062
      9 O1          4.1928    0.0172   -0.9493 O.2       1 <0>        -0.5393
     10 N2          4.2125    1.6688    0.5718 N.am      1 <0>        -0.7083
     11 C6          3.5436    2.2865    1.7066 C.3       1 <0>         0.1168
     12 C7          2.6766    3.4877    1.3173 C.3       1 <0>        -0.0808
     13 C8          1.8770    3.1431    0.0747 C.2       1 <0>        -0.1250
     14 C9          1.6904    4.0451   -0.9215 C.2       1 <0>         0.0817
     15 C10         2.1965    5.4312   -0.9893 C.2       1 <0>         0.5130
     16 O2          2.8748    6.0047   -0.1528 O.2       1 <0>        -0.5579
     17 N3          1.7619    5.9328   -2.1536 N.2       1 <0>        -0.7162
     18 C11         1.0563    5.0350   -2.8068 C.2       1 <0>         0.5692
     19 N4          0.9819    3.8661   -2.1131 N.pl3     1 <0>        -0.6705
     20 N5          0.4771    5.2468   -4.0277 N.2       1 <0>        -0.8527
     21 H2         -0.8954    1.9794    0.0253 H         1 <0>         0.1535
     22 H3          5.1230    1.9236    0.3550 H         1 <0>         0.4071
     23 H4          2.9118    1.5406    2.1889 H         1 <0>         0.0681
     24 H5          4.2983    2.6165    2.4205 H         1 <0>         0.0845
     25 H6          1.9957    3.7255    2.1345 H         1 <0>         0.0803
     26 H7          3.3154    4.3469    1.1126 H         1 <0>         0.1016
     27 H8          0.5214    3.0596   -2.3928 H         1 <0>         0.4083
     28 H9          0.5746    6.1055   -4.4684 H         1 <0>         0.3216
@<TRIPOS>BOND
     1    1    6 2
     2    1    2 1
     3    1   21 1
     4    2   13 1
     5    2    3 2
     6    3    4 1
     7    3    8 1
     8    4    5 1
     9    4    6 1
    10    6    7 1
    11    8    9 2
    12    8   10 am
    13   10   11 1
    14   10   22 1
    15   11   12 1
    16   11   23 1
    17   11   24 1
    18   12   13 1
    19   12   25 1
    20   12   26 1
    21   13   14 2
    22   14   19 1
    23   14   15 1
    24   15   16 2
    25   15   17 1
    26   17   18 2
    27   18   19 1
    28   18   20 1
    29   19   27 1
    30   20   28 1
@<TRIPOS>MOLECULE
ZINC17175232
   29    31     0     0     0
SMALL
USER_CHARGES

@<TRIPOS>ATOM
      1 C1         -0.0163    1.3522    0.0095 C.2       1 <0>        -0.1233
      2 C2          1.3145    1.7899   -0.0009 C.2       1 <0>        -0.1048
      3 C3          2.1168    0.6384   -0.0541 C.2       1 <0>        -0.0013
      4 N1          1.2937   -0.4395   -0.0184 N.pl3     1 <0>        -0.4850
      5 H1          1.5775   -1.3670   -0.0089 H         1 <0>         0.4308
      6 C4          0.0021   -0.0041    0.0020 C.2       1 <0>         0.0189
      7 Br1        -1.5262   -1.1176    0.0181 Br        1 <0>         0.0227
      8 C5          3.5767    0.7391   -0.1874 C.2       1 <0>         0.5973
      9 O1          4.1928    0.0172   -0.9493 O.2       1 <0>        -0.5214
     10 N2          4.2125    1.6688    0.5718 N.am      1 <0>        -0.7121
     11 C6          3.5436    2.2865    1.7066 C.3       1 <0>         0.1126
     12 C7          2.6766    3.4877    1.3173 C.3       1 <0>        -0.1046
     13 C8          1.8770    3.1431    0.0747 C.2       1 <0>         0.0171
     14 C9          1.6904    4.0451   -0.9215 C.2       1 <0>        -0.0013
     15 C10         2.1965    5.4312   -0.9893 C.2       1 <0>         0.5402
     16 O2          2.8748    6.0047   -0.1528 O.2       1 <0>        -0.4687
     17 N3          1.7619    5.9328   -2.1536 N.2       1 <0>        -0.6424
     18 C11         1.0563    5.0350   -2.8068 C.2       1 <0>         0.6571
     19 N4          0.9819    3.8661   -2.1131 N.pl3     1 <0>        -0.6656
     20 N5          0.4771    5.2468   -4.0277 N.pl3     1 <0>        -0.8040
     21 H2         -0.8954    1.9794    0.0253 H         1 <0>         0.1589
     22 H3          5.1230    1.9236    0.3550 H         1 <0>         0.4127
     23 H4          2.9118    1.5406    2.1889 H         1 <0>         0.0771
     24 H5          4.2983    2.6165    2.4205 H         1 <0>         0.0983
     25 H6          1.9957    3.7255    2.1345 H         1 <0>         0.1057
     26 H7          3.3154    4.3469    1.1126 H         1 <0>         0.1089
     27 H8          0.5214    3.0596   -2.3928 H         1 <0>         0.4258
     28 H9          0.5746    6.1055   -4.4684 H         1 <0>         0.4334
     29 H10        -0.0311    4.5384   -4.4529 H         1 <0>         0.4171
@<TRIPOS>BOND
     1    1    6 2
     2    1    2 1
     3    1   21 1
     4    2   13 1
     5    2    3 2
     6    3    4 1
     7    3    8 1
     8    4    5 1
     9    4    6 1
    10    6    7 1
    11    8    9 2
    12    8   10 am
    13   10   11 1
    14   10   22 1
    15   11   12 1
    16   11   23 1
    17   11   24 1
    18   12   13 1
    19   12   25 1
    20   12   26 1
    21   13   14 2
    22   14   19 1
    23   14   15 1
    24   15   16 2
    25   15   17 1
    26   17   18 2
    27   18   19 1
    28   18   20 1
    29   19   27 1
    30   20   28 1
    31   20   29 1
@<TRIPOS>MOLECULE
ZINC17175232
   29    31     0     0     0
SMALL
USER_CHARGES

@<TRIPOS>ATOM
      1 C1         -0.0163    1.3522    0.0095 C.2       1 <0>        -0.0939
      2 C2          1.3145    1.7899   -0.0009 C.2       1 <0>        -0.0817
      3 C3          2.1168    0.6384   -0.0541 C.2       1 <0>        -0.0085
      4 N1          1.2937   -0.4395   -0.0184 N.pl3     1 <0>        -0.4867
      5 H1          1.5775   -1.3670   -0.0089 H         1 <0>         0.4287
      6 C4          0.0021   -0.0041    0.0020 C.2       1 <0>         0.0190
      7 Br1        -1.5262   -1.1176    0.0181 Br        1 <0>         0.0181
      8 C5          3.5767    0.7391   -0.1874 C.2       1 <0>         0.6011
      9 O1          4.1928    0.0172   -0.9493 O.2       1 <0>        -0.5178
     10 N2          4.2125    1.6688    0.5718 N.am      1 <0>        -0.7188
     11 C6          3.5436    2.2865    1.7066 C.3       1 <0>         0.1140
     12 C7          2.6766    3.4877    1.3173 C.3       1 <0>        -0.1023
     13 C8          1.8770    3.1431    0.0747 C.2       1 <0>         0.0104
     14 C9          1.6904    4.0451   -0.9215 C.2       1 <0>         0.0011
     15 C10         0.9363    3.8581   -2.1778 C.2       1 <0>         0.5331
     16 O2          0.3478    2.8508   -2.5352 O.2       1 <0>        -0.4515
     17 N3          1.0276    5.0160   -2.8462 N.2       1 <0>        -0.6417
     18 C11         1.7387    5.8869   -2.1633 C.2       1 <0>         0.6550
     19 N4          2.1642    5.3588   -0.9829 N.pl3     1 <0>        -0.6695
     20 N5          2.0107    7.1602   -2.5824 N.pl3     1 <0>        -0.8051
     21 H2         -0.8954    1.9794    0.0253 H         1 <0>         0.1559
     22 H3          5.1230    1.9236    0.3550 H         1 <0>         0.4096
     23 H4          2.9118    1.5406    2.1889 H         1 <0>         0.0822
     24 H5          4.2983    2.6165    2.4205 H         1 <0>         0.0947
     25 H6          1.9957    3.7255    2.1345 H         1 <0>         0.1060
     26 H7          3.3154    4.3469    1.1126 H         1 <0>         0.0753
     27 H8          2.6983    5.8097   -0.3104 H         1 <0>         0.4239
     28 H9          1.6708    7.4730   -3.4354 H         1 <0>         0.4333
     29 H10         2.5433    7.7504   -2.0267 H         1 <0>         0.4164
@<TRIPOS>BOND
     1    1    6 2
     2    1    2 1
     3    1   21 1
     4    2   13 1
     5    2    3 2
     6    3    4 1
     7    3    8 1
     8    4    5 1
     9    4    6 1
    10    6    7 1
    11    8    9 2
    12    8   10 am
    13   10   11 1
    14   10   22 1
    15   11   12 1
    16   11   23 1
    17   11   24 1
    18   12   13 1
    19   12   25 1
    20   12   26 1
    21   13   14 2
    22   14   19 1
    23   14   15 1
    24   15   16 2
    25   15   17 1
    26   17   18 2
    27   18   19 1
    28   18   20 1
    29   19   27 1
    30   20   28 1
    31   20   29 1
@<TRIPOS>MOLECULE
ZINC17175232
   28    30     0     0     0
SMALL
USER_CHARGES

@<TRIPOS>ATOM
      1 C1         -0.0163    1.3522    0.0095 C.2       1 <0>        -0.0983
      2 C2          1.3145    1.7899   -0.0009 C.2       1 <0>        -0.0189
      3 C3          2.1168    0.6384   -0.0541 C.2       1 <0>        -0.0368
      4 N1          1.2937   -0.4395   -0.0184 N.pl3     1 <0>        -0.4973
      5 H1          1.5775   -1.3670   -0.0089 H         1 <0>         0.4202
      6 C4          0.0021   -0.0041    0.0020 C.2       1 <0>         0.0129
      7 Br1        -1.5262   -1.1176    0.0181 Br        1 <0>        -0.0030
      8 C5          3.5767    0.7391   -0.1874 C.2       1 <0>         0.6096
      9 O1          4.1928    0.0172   -0.9493 O.2       1 <0>        -0.5369
     10 N2          4.2125    1.6688    0.5718 N.am      1 <0>        -0.7148
     11 C6          3.5436    2.2865    1.7066 C.3       1 <0>         0.1186
     12 C7          2.6766    3.4877    1.3173 C.3       1 <0>        -0.0808
     13 C8          1.8770    3.1431    0.0747 C.2       1 <0>        -0.1306
     14 C9          1.6904    4.0451   -0.9215 C.2       1 <0>         0.0830
     15 C10         0.9363    3.8581   -2.1778 C.2       1 <0>         0.5087
     16 O2          0.3478    2.8508   -2.5352 O.2       1 <0>        -0.5423
     17 N3          1.0276    5.0160   -2.8462 N.2       1 <0>        -0.7196
     18 C11         1.7387    5.8869   -2.1633 C.2       1 <0>         0.5696
     19 N4          2.1642    5.3588   -0.9829 N.pl3     1 <0>        -0.6730
     20 N5          2.0107    7.1602   -2.5824 N.2       1 <0>        -0.8577
     21 H2         -0.8954    1.9794    0.0253 H         1 <0>         0.1497
     22 H3          5.1230    1.9236    0.3550 H         1 <0>         0.4047
     23 H4          2.9118    1.5406    2.1889 H         1 <0>         0.0739
     24 H5          4.2983    2.6165    2.4205 H         1 <0>         0.0821
     25 H6          1.9957    3.7255    2.1345 H         1 <0>         0.0832
     26 H7          3.3154    4.3469    1.1126 H         1 <0>         0.0659
     27 H8          2.6983    5.8097   -0.3104 H         1 <0>         0.4064
     28 H9          1.6708    7.4730   -3.4354 H         1 <0>         0.3214
@<TRIPOS>BOND
     1    1    6 2
     2    1    2 1
     3    1   21 1
     4    2   13 1
     5    2    3 2
     6    3    4 1
     7    3    8 1
     8    4    5 1
     9    4    6 1
    10    6    7 1
    11    8    9 2
    12    8   10 am
    13   10   11 1
    14   10   22 1
    15   11   12 1
    16   11   23 1
    17   11   24 1
    18   12   13 1
    19   12   25 1
    20   12   26 1
    21   13   14 2
    22   14   19 1
    23   14   15 1
    24   15   16 2
    25   15   17 1
    26   17   18 2
    27   18   19 1
    28   18   20 1
    29   19   27 1
    30   20   28 1
@<TRIPOS>MOLECULE
ZINC12339629
   40    42     0     0     0
SMALL
USER_CHARGES

@<TRIPOS>ATOM
      1 C1         -0.0173    1.4248    0.0099 C.3       1 <0>         0.0247
      2 O1          0.0021   -0.0041    0.0020 O.3       1 <0>        -0.3090
      3 C2          0.6049   -0.6062   -1.0542 C.ar      1 <0>         0.2258
      4 C3          1.1712    0.1685   -2.0593 C.ar      1 <0>        -0.3452
      5 C4          1.7877   -0.4348   -3.1386 C.ar      1 <0>         0.2313
      6 C5          1.8410   -1.8401   -3.2179 C.ar      1 <0>        -0.2005
      7 C6          1.2640   -2.6162   -2.1939 C.ar      1 <0>         0.2712
      8 C7          0.6568   -1.9933   -1.1203 C.ar      1 <0>        -0.2844
      9 O2          1.3085   -3.9705   -2.2590 O.3       1 <0>        -0.2915
     10 C8          0.7026   -4.6919   -1.1846 C.3       1 <0>         0.0291
     11 C9          2.4704   -2.4688   -4.3206 C.2       1 <0>         0.0658
     12 C10         3.4071   -3.4577   -4.1078 C.2       1 <0>        -0.1707
     13 C11         4.1652   -4.2150   -5.1293 C.ar      1 <0>        -0.0993
     14 C12         4.1833   -4.1854   -6.5198 C.ar      1 <0>        -0.0655
     15 C13         5.0202   -5.0374   -7.2116 C.ar      1 <0>        -0.1428
     16 C14         5.8382   -5.9179   -6.5231 C.ar      1 <0>        -0.0858
     17 C15         5.8273   -5.9553   -5.1437 C.ar      1 <0>        -0.1407
     18 C16         4.9912   -5.1042   -4.4291 C.ar      1 <0>         0.1450
     19 N1          4.7869   -4.9387   -3.0647 N.am      1 <0>        -0.6595
     20 C17         3.8740   -3.9839   -2.8180 C.2       1 <0>         0.5669
     21 O3          3.4977   -3.6203   -1.7180 O.2       1 <0>        -0.4938
     22 O4          2.3393    0.3236   -4.1188 O.3       1 <0>        -0.3042
     23 C18         2.2467    1.7420   -3.9713 C.3       1 <0>         0.0253
     24 H1          1.0053    1.8021    0.0021 H         1 <0>         0.0584
     25 H2         -0.5445    1.7859   -0.8732 H         1 <0>         0.0586
     26 H3         -0.5275    1.7763    0.9067 H         1 <0>         0.1044
     27 H4          1.1289    1.2459   -1.9967 H         1 <0>         0.1392
     28 H5          0.2177   -2.5865   -0.3319 H         1 <0>         0.1403
     29 H6          1.1926   -4.4275   -0.2475 H         1 <0>         0.0628
     30 H7         -0.3554   -4.4361   -1.1262 H         1 <0>         0.0575
     31 H8          0.8084   -5.7624   -1.3605 H         1 <0>         0.0985
     32 H9          2.2163   -2.1733   -5.3279 H         1 <0>         0.1383
     33 H10         3.5449   -3.4988   -7.0559 H         1 <0>         0.1274
     34 H11         5.0370   -5.0178   -8.2913 H         1 <0>         0.1286
     35 H12         6.4905   -6.5817   -7.0710 H         1 <0>         0.1297
     36 H13         6.4692   -6.6468   -4.6181 H         1 <0>         0.1256
     37 H14         5.2474   -5.4454   -2.3776 H         1 <0>         0.4140
     38 H15         1.1977    2.0352   -3.9295 H         1 <0>         0.0594
     39 H16         2.7456    2.0449   -3.0508 H         1 <0>         0.0586
     40 H17         2.7261    2.2277   -4.8212 H         1 <0>         0.1061
@<TRIPOS>BOND
     1    1    2 1
     2    1   24 1
     3    1   25 1
     4    1   26 1
     5    2    3 1
     6    3    8 ar
     7    3    4 ar
     8    4    5 ar
     9    4   27 1
    10    5    6 ar
    11    5   22 1
    12    6    7 ar
    13    6   11 1
    14    7    8 ar
    15    7    9 1
    16    8   28 1
    17    9   10 1
    18   10   29 1
    19   10   30 1
    20   10   31 1
    21   11   12 2
    22   11   32 1
    23   12   20 1
    24   12   13 1
    25   13   18 ar
    26   13   14 ar
    27   14   15 ar
    28   14   33 1
    29   15   16 ar
    30   15   34 1
    31   16   17 ar
    32   16   35 1
    33   17   18 ar
    34   17   36 1
    35   18   19 1
    36   19   20 am
    37   19   37 1
    38   20   21 2
    39   22   23 1
    40   23   38 1
    41   23   39 1
    42   23   40 1
@<TRIPOS>MOLECULE
ZINC01383151
   37    39     0     0     0
SMALL
USER_CHARGES

@<TRIPOS>ATOM
      1 C1         -1.1455    1.2885   -0.6608 C.3       1 <0>        -0.1446
      2 C2         -0.6741   -0.1436   -0.4002 C.3       1 <0>         0.1889
      3 C3          0.0885   -0.1963    0.9251 C.3       1 <0>        -0.1620
      4 C4         -1.8863   -1.0744   -0.3285 C.3       1 <0>        -0.1626
      5 N1          0.2077   -0.5730   -1.4885 N.pl3     1 <0>        -0.3657
      6 C5          0.8042   -1.7951   -1.5829 C.ar      1 <0>         0.3794
      7 C6          1.5592   -1.7908   -2.7708 C.ar      1 <0>        -0.3246
      8 C7          1.3681   -0.4739   -3.3780 C.2       1 <0>         0.1589
      9 N2          0.5635    0.2052   -2.5951 N.2       1 <0>        -0.2267
     10 C8          1.9678    0.0032   -4.6470 C.ar      1 <0>        -0.0171
     11 C9          1.9680   -0.8188   -5.7730 C.ar      1 <0>        -0.0978
     12 C10         2.5276   -0.3699   -6.9517 C.ar      1 <0>        -0.1054
     13 C11         3.0885    0.8941   -7.0172 C.ar      1 <0>        -0.0242
     14 C12         3.0913    1.7142   -5.9017 C.ar      1 <0>        -0.1044
     15 C13         2.5284    1.2775   -4.7201 C.ar      1 <0>        -0.0724
     16 Cl1         3.7914    1.4526   -8.5031 Cl        1 <0>        -0.0595
     17 C14         2.2822   -2.9459   -3.1108 C.ar      1 <0>         0.5178
     18 N3          2.2203   -3.9926   -2.2933 N.ar      1 <0>        -0.6043
     19 C15         1.4984   -3.9529   -1.1876 C.ar      1 <0>         0.3844
     20 N4          0.8058   -2.8942   -0.8290 N.ar      1 <0>        -0.5698
     21 N5          3.0384   -2.9934   -4.2660 N.pl3     1 <0>        -0.8297
     22 H1         -0.2819    1.9516   -0.7119 H         1 <0>         0.0676
     23 H2         -1.6888    1.3260   -1.6050 H         1 <0>         0.0678
     24 H3         -1.8016    1.6080    0.1489 H         1 <0>         0.0763
     25 H4         -0.5676    0.1232    1.7348 H         1 <0>         0.0806
     26 H5          0.4243   -1.2165    1.1107 H         1 <0>         0.0770
     27 H6          0.9521    0.4669    0.8740 H         1 <0>         0.0599
     28 H7         -2.4296   -1.0369   -1.2727 H         1 <0>         0.0599
     29 H8         -1.5504   -2.0947   -0.1429 H         1 <0>         0.0774
     30 H9         -2.5423   -0.7549    0.4811 H         1 <0>         0.0804
     31 H10         1.5313   -1.8053   -5.7227 H         1 <0>         0.1409
     32 H11         2.5283   -1.0059   -7.8246 H         1 <0>         0.1431
     33 H12         3.5304    2.6993   -5.9580 H         1 <0>         0.1422
     34 H13         2.5267    1.9198   -3.8518 H         1 <0>         0.1395
     35 H14         1.4759   -4.8260   -0.5523 H         1 <0>         0.2047
     36 H15         3.2655   -2.1730   -4.7311 H         1 <0>         0.4126
     37 H16         3.3423   -3.8471   -4.6119 H         1 <0>         0.4114
@<TRIPOS>BOND
     1    1    2 1
     2    1   22 1
     3    1   23 1
     4    1   24 1
     5    2    3 1
     6    2    4 1
     7    2    5 1
     8    3   25 1
     9    3   26 1
    10    3   27 1
    11    4   28 1
    12    4   29 1
    13    4   30 1
    14    5    9 1
    15    5    6 1
    16    6   20 ar
    17    6    7 ar
    18    7    8 1
    19    7   17 ar
    20    8    9 2
    21    8   10 1
    22   10   15 ar
    23   10   11 ar
    24   11   12 ar
    25   11   31 1
    26   12   13 ar
    27   12   32 1
    28   13   14 ar
    29   13   16 1
    30   14   15 ar
    31   14   33 1
    32   15   34 1
    33   17   18 ar
    34   17   21 1
    35   18   19 ar
    36   19   20 ar
    37   19   35 1
    38   21   36 1
    39   21   37 1
@<TRIPOS>MOLECULE
ZINC04793192
   32    33     0     0     0
SMALL
USER_CHARGES

@<TRIPOS>ATOM
      1 C1         -0.0187    1.5258    0.0104 C.3       1 <0>        -0.1731
      2 C2          0.0021   -0.0041    0.0020 C.3       1 <0>         0.0913
      3 N1         -1.3723   -0.5112    0.0124 N.pl3     1 <0>        -0.5203
      4 C3         -2.0094   -0.7513    1.2163 C.ar      1 <0>         0.1712
      5 C4         -1.4905   -0.5662    2.5094 C.ar      1 <0>        -0.1676
      6 C5         -2.2500   -0.8515    3.6236 C.ar      1 <0>         0.1693
      7 C6         -3.5487   -1.3301    3.5043 C.ar      1 <0>        -0.2138
      8 C7         -4.0819   -1.5205    2.2422 C.ar      1 <0>         0.0032
      9 C8         -3.3231   -1.2351    1.1318 C.ar      1 <0>        -0.2198
     10 S1         -3.6141   -1.3345   -0.6181 S.3       1 <0>         0.1230
     11 C9         -2.0228   -0.7401   -1.1673 C.2       1 <0>         0.2214
     12 C10        -1.5620   -0.5581   -2.4650 C.2       1 <0>        -0.3307
     13 C11        -2.3849   -0.8515   -3.5396 C.2       1 <0>         0.3841
     14 O1         -3.5126   -1.2692   -3.3468 O.2       1 <0>        -0.4977
     15 C12        -1.8850   -0.6541   -4.9475 C.3       1 <0>        -0.1881
     16 O2         -1.7188   -0.6617    4.8607 O.3       1 <0>        -0.3138
     17 C13        -2.5516   -0.9740    5.9792 C.3       1 <0>         0.0251
     18 H1          1.0039    1.9031    0.0027 H         1 <0>         0.0791
     19 H2         -0.5459    1.8868   -0.8726 H         1 <0>         0.0664
     20 H3         -0.5289    1.8773    0.9072 H         1 <0>         0.0626
     21 H4          0.5123   -0.3556   -0.8948 H         1 <0>         0.0976
     22 H5          0.5293   -0.3651    0.8851 H         1 <0>         0.0922
     23 H6         -0.4833   -0.1959    2.6315 H         1 <0>         0.1374
     24 H7         -4.1339   -1.5507    4.3848 H         1 <0>         0.1448
     25 H8         -5.0897   -1.8922    2.1295 H         1 <0>         0.1419
     26 H9         -0.5620   -0.1877   -2.6360 H         1 <0>         0.1438
     27 H10        -0.8625   -0.2773   -4.9205 H         1 <0>         0.0742
     28 H11        -1.9075   -1.6061   -5.4779 H         1 <0>         0.0860
     29 H12        -2.5233    0.0639   -5.4624 H         1 <0>         0.0859
     30 H13        -3.4490   -0.3560    5.9478 H         1 <0>         0.0600
     31 H14        -2.8334   -2.0262    5.9398 H         1 <0>         0.0600
     32 H15        -2.0077   -0.7779    6.9032 H         1 <0>         0.1044
@<TRIPOS>BOND
     1    1    2 1
     2    1   18 1
     3    1   19 1
     4    1   20 1
     5    2    3 1
     6    2   21 1
     7    2   22 1
     8    3   11 1
     9    3    4 1
    10    4    9 ar
    11    4    5 ar
    12    5    6 ar
    13    5   23 1
    14    6    7 ar
    15    6   16 1
    16    7    8 ar
    17    7   24 1
    18    8    9 ar
    19    8   25 1
    20    9   10 1
    21   10   11 1
    22   11   12 2
    23   12   13 1
    24   12   26 1
    25   13   14 2
    26   13   15 1
    27   15   27 1
    28   15   28 1
    29   15   29 1
    30   16   17 1
    31   17   30 1
    32   17   31 1
    33   17   32 1
@<TRIPOS>MOLECULE
ZINC14806405
   48    52     0     0     0
SMALL
USER_CHARGES

@<TRIPOS>ATOM
      1 C1         -0.0167    1.3789    0.0096 C.ar      1 <0>        -0.0760
      2 C2          1.1941    2.0586    0.0017 C.ar      1 <0>        -0.1722
      3 C3          2.3751    1.3408   -0.0134 C.ar      1 <0>         0.1031
      4 N1          2.3663    0.0230   -0.0208 N.ar      1 <0>        -0.4662
      5 C4          1.2307   -0.6650   -0.0137 C.ar      1 <0>         0.2043
      6 C5          0.0021   -0.0041    0.0020 C.ar      1 <0>        -0.1413
      7 C6          1.2685   -2.1448   -0.0225 C.2       1 <0>         0.0622
      8 C7          2.3023   -2.9340   -0.5056 C.2       1 <0>         0.0852
      9 N2          1.9164   -4.2375   -0.3156 N.pl3     1 <0>        -0.5510
     10 H1          2.4258   -5.0288   -0.5508 H         1 <0>         0.4261
     11 C8          0.6805   -4.2121    0.2676 C.2       1 <0>         0.2474
     12 N3          0.3115   -2.9636    0.4406 N.2       1 <0>        -0.4438
     13 C9         -0.1115   -5.3995    0.6478 C.ar      1 <0>         0.0159
     14 C10         0.3976   -6.6810    0.4208 C.ar      1 <0>        -0.1185
     15 C11        -0.3375   -7.7833    0.7737 C.ar      1 <0>        -0.0514
     16 C12        -1.5961   -7.6252    1.3604 C.ar      1 <0>        -0.1321
     17 C13        -2.1053   -6.3436    1.5874 C.ar      1 <0>        -0.0809
     18 C14        -1.3676   -5.2413    1.2397 C.ar      1 <0>        -0.0850
     19 C15        -2.3883   -8.8125    1.7401 C.2       1 <0>         0.5625
     20 O1         -1.9455   -9.9273    1.5423 O.2       1 <0>        -0.5372
     21 N4         -3.6020   -8.6600    2.3059 N.am      1 <0>        -0.8495
     22 C16         3.5664   -2.4649   -1.1051 C.ar      1 <0>        -0.0120
     23 C17         3.5551   -1.4326   -2.0465 C.ar      1 <0>        -0.0527
     24 C18         4.7376   -0.9975   -2.6050 C.ar      1 <0>        -0.1113
     25 C19         5.9430   -1.5810   -2.2358 C.ar      1 <0>         0.0632
     26 C20         5.9618   -2.6083   -1.2970 C.ar      1 <0>         0.0505
     27 C21         4.7787   -3.0474   -0.7290 C.ar      1 <0>        -0.0989
     28 O2          7.1357   -3.1850   -0.9192 O.3       1 <0>        -0.3073
     29 C22         8.2625   -2.9725   -1.7764 C.3       1 <0>         0.0204
     30 C23         8.3169   -1.4820   -2.1376 C.3       1 <0>         0.0198
     31 O3          7.0976   -1.1376   -2.8042 O.3       1 <0>        -0.3055
     32 H2         -0.9523    1.9181    0.0259 H         1 <0>         0.1364
     33 H3          1.2128    3.1385    0.0070 H         1 <0>         0.1352
     34 H4          3.3182    1.8671   -0.0196 H         1 <0>         0.1571
     35 H5         -0.9212   -0.5644    0.0082 H         1 <0>         0.1398
     36 H6          1.3701   -6.8031   -0.0329 H         1 <0>         0.1272
     37 H7          0.0558   -8.7736    0.5980 H         1 <0>         0.1434
     38 H8         -3.0779   -6.2214    2.0408 H         1 <0>         0.1343
     39 H9         -1.7590   -4.2509    1.4195 H         1 <0>         0.1461
     40 H10        -3.9552   -7.7705    2.4638 H         1 <0>         0.4019
     41 H11        -4.1222   -9.4398    2.5553 H         1 <0>         0.4074
     42 H12         2.6203   -0.9760   -2.3366 H         1 <0>         0.1282
     43 H13         4.7270   -0.1998   -3.3330 H         1 <0>         0.1382
     44 H14         4.7925   -3.8428    0.0014 H         1 <0>         0.1309
     45 H15         9.1777   -3.2589   -1.2584 H         1 <0>         0.1238
     46 H16         8.1515   -3.5667   -2.6835 H         1 <0>         0.0784
     47 H17         8.4204   -0.8874   -1.2300 H         1 <0>         0.0797
     48 H18         9.1628   -1.2946   -2.7989 H         1 <0>         0.1240
@<TRIPOS>BOND
     1    1    6 ar
     2    1    2 ar
     3    1   32 1
     4    2    3 ar
     5    2   33 1
     6    3    4 ar
     7    3   34 1
     8    4    5 ar
     9    5    6 ar
    10    5    7 1
    11    6   35 1
    12    7   12 1
    13    7    8 2
    14    8    9 1
    15    8   22 1
    16    9   10 1
    17    9   11 1
    18   11   12 2
    19   11   13 1
    20   13   18 ar
    21   13   14 ar
    22   14   15 ar
    23   14   36 1
    24   15   16 ar
    25   15   37 1
    26   16   17 ar
    27   16   19 1
    28   17   18 ar
    29   17   38 1
    30   18   39 1
    31   19   20 2
    32   19   21 am
    33   21   40 1
    34   21   41 1
    35   22   27 ar
    36   22   23 ar
    37   23   24 ar
    38   23   42 1
    39   24   25 ar
    40   24   43 1
    41   25   31 1
    42   25   26 ar
    43   26   27 ar
    44   26   28 1
    45   27   44 1
    46   28   29 1
    47   29   30 1
    48   29   45 1
    49   29   46 1
    50   30   31 1
    51   30   47 1
    52   30   48 1
@<TRIPOS>MOLECULE
ZINC14806405
   49    53     0     0     0
SMALL
USER_CHARGES
4-[4-(2,3-dihydro-1,4-benzodioxin-6-yl)-5-(2-pyridyl)-1H-imidazol-2-yl]benzamide
@<TRIPOS>ATOM
      1 C1         -6.5267    2.4428    2.4163 C.ar      1 <0>        -0.0639
      2 C2         -5.4142    3.0273    3.0078 C.ar      1 <0>        -0.1371
      3 C3         -4.1664    2.4651    2.8120 C.ar      1 <0>         0.1158
      4 N1         -4.0189    1.3845    2.0731 N.ar      1 <0>        -0.4461
      5 C4         -5.0569    0.7935    1.4890 C.ar      1 <0>         0.1505
      6 C5         -6.3455    1.3126    1.6408 C.ar      1 <0>        -0.1450
      7 C6         -4.8462   -0.4147    0.6704 C.2       1 <0>         0.1168
      8 C7         -3.6790   -0.7837    0.0186 C.2       1 <0>         0.1451
      9 C8         -5.1511   -2.3237   -0.3898 C.cat     1 <0>         0.3788
     10 N2         -5.7682   -1.3997    0.4019 N.pl3     1 <0>        -0.5026
     11 H1         -6.7136   -1.4324    0.7262 H         1 <0>         0.4700
     12 C9         -5.7767   -3.5538   -0.9173 C.ar      1 <0>        -0.0643
     13 C10        -7.1067   -3.8493   -0.6074 C.ar      1 <0>        -0.0792
     14 C11        -7.6909   -4.9926   -1.1026 C.ar      1 <0>        -0.0767
     15 C12        -6.9508   -5.8635   -1.9066 C.ar      1 <0>        -0.0835
     16 C13        -5.6190   -5.5706   -2.2121 C.ar      1 <0>        -0.0476
     17 C14        -5.0365   -4.4246   -1.7212 C.ar      1 <0>        -0.0796
     18 C15        -7.5760   -7.0940   -2.4332 C.2       1 <0>         0.5535
     19 O1         -6.9319   -7.8518   -3.1323 O.2       1 <0>        -0.5185
     20 N3         -8.8604   -7.3765   -2.1385 N.am      1 <0>        -0.8426
     21 C16        -2.4037   -0.0293    0.0159 C.ar      1 <0>        -0.0635
     22 C17        -2.4165    1.3652    0.0254 C.ar      1 <0>        -0.0331
     23 C18        -1.2283    2.0653    0.0191 C.ar      1 <0>        -0.1143
     24 C19        -0.0168    1.3869    0.0097 C.ar      1 <0>         0.0932
     25 C20         0.0021   -0.0041    0.0020 C.ar      1 <0>         0.0531
     26 C21        -1.1882   -0.7115    0.0043 C.ar      1 <0>        -0.0880
     27 O2          1.1811   -0.6847   -0.0064 O.3       1 <0>        -0.3037
     28 C22         2.3474    0.0534   -0.3868 C.3       1 <0>         0.0192
     29 C23         2.3347    1.3914    0.3649 C.3       1 <0>         0.0172
     30 O3          1.1439    2.0983    0.0024 O.3       1 <0>        -0.2987
     31 H2         -7.5112    2.8646    2.5554 H         1 <0>         0.1508
     32 H3         -5.5231    3.9132    3.6159 H         1 <0>         0.1517
     33 H4         -3.3003    2.9181    3.2715 H         1 <0>         0.1741
     34 H5         -7.1881    0.8353    1.1628 H         1 <0>         0.1360
     35 H6         -7.6776   -3.1783    0.0174 H         1 <0>         0.1395
     36 H7         -8.7203   -5.2188   -0.8667 H         1 <0>         0.1497
     37 H8         -5.0468   -6.2438   -2.8332 H         1 <0>         0.1610
     38 H9         -4.0071   -4.1984   -1.9570 H         1 <0>         0.1413
     39 H10        -9.3743   -6.7718   -1.5807 H         1 <0>         0.4023
     40 H11        -9.2710   -8.1844   -2.4843 H         1 <0>         0.4155
     41 H12        -3.3566    1.8968    0.0354 H         1 <0>         0.1334
     42 H13        -1.2401    3.1452    0.0270 H         1 <0>         0.1473
     43 H14        -1.1748   -1.7914   -0.0032 H         1 <0>         0.1355
     44 H15         3.2419   -0.5095   -0.1204 H         1 <0>         0.1315
     45 H16         2.3336    0.2346   -1.4615 H         1 <0>         0.0842
     46 H17         2.3411    1.2094    1.4395 H         1 <0>         0.0858
     47 H18         3.2099    1.9781    0.0857 H         1 <0>         0.1322
     48 N4         -3.9128   -1.9428   -0.6137 N.pl3     1 <0>        -0.4759
     49 H19        -3.2298   -2.4543   -1.1848 H         1 <0>         0.4789
@<TRIPOS>BOND
     1    1    6 ar
     2    1    2 ar
     3    1   31 1
     4    2    3 ar
     5    2   32 1
     6    3    4 ar
     7    3   33 1
     8    4    5 ar
     9    5    6 ar
    10    5    7 1
    11    6   34 1
    12    7   10 1
    13    7    8 2
    14    8   21 1
    15    8   48 1
    16    9   10 1
    17    9   12 1
    18    9   48 2
    19   10   11 1
    20   12   17 ar
    21   12   13 ar
    22   13   14 ar
    23   13   35 1
    24   14   15 ar
    25   14   36 1
    26   15   16 ar
    27   15   18 1
    28   16   17 ar
    29   16   37 1
    30   17   38 1
    31   18   19 2
    32   18   20 am
    33   20   39 1
    34   20   40 1
    35   21   26 ar
    36   21   22 ar
    37   22   23 ar
    38   22   41 1
    39   23   24 ar
    40   23   42 1
    41   24   30 1
    42   24   25 ar
    43   25   26 ar
    44   25   27 1
    45   26   43 1
    46   27   28 1
    47   28   29 1
    48   28   44 1
    49   28   45 1
    50   29   30 1
    51   29   46 1
    52   29   47 1
    53   48   49 1
@<TRIPOS>MOLECULE
ZINC00603769
   45    49     0     0     0
SMALL
USER_CHARGES

@<TRIPOS>ATOM
      1 C1         -0.0167    1.3789    0.0096 C.ar      1 <0>        -0.0757
      2 C2          1.1941    2.0586    0.0017 C.ar      1 <0>        -0.1711
      3 C3          2.3751    1.3408   -0.0134 C.ar      1 <0>         0.1033
      4 N1          2.3663    0.0230   -0.0208 N.ar      1 <0>        -0.4675
      5 C4          1.2307   -0.6650   -0.0137 C.ar      1 <0>         0.2024
      6 C5          0.0021   -0.0041    0.0020 C.ar      1 <0>        -0.1404
      7 C6          1.2685   -2.1448   -0.0225 C.2       1 <0>         0.0666
      8 C7          2.3023   -2.9340   -0.5056 C.2       1 <0>         0.0811
      9 N2          1.9164   -4.2375   -0.3156 N.pl3     1 <0>        -0.5508
     10 H1          2.4258   -5.0288   -0.5508 H         1 <0>         0.4264
     11 C8          0.6805   -4.2121    0.2676 C.2       1 <0>         0.2507
     12 N3          0.3115   -2.9636    0.4406 N.2       1 <0>        -0.4439
     13 C9         -0.1115   -5.3995    0.6478 C.ar      1 <0>         0.0144
     14 C10         0.3976   -6.6810    0.4208 C.ar      1 <0>        -0.1179
     15 C11        -0.3375   -7.7833    0.7737 C.ar      1 <0>        -0.0516
     16 C12        -1.5961   -7.6252    1.3604 C.ar      1 <0>        -0.1312
     17 C13        -2.1053   -6.3436    1.5874 C.ar      1 <0>        -0.0810
     18 C14        -1.3676   -5.2413    1.2397 C.ar      1 <0>        -0.0843
     19 C15        -2.3883   -8.8125    1.7401 C.2       1 <0>         0.5623
     20 O1         -1.9455   -9.9273    1.5423 O.2       1 <0>        -0.5370
     21 N4         -3.6020   -8.6600    2.3059 N.am      1 <0>        -0.8494
     22 C16         3.5664   -2.4649   -1.1051 C.ar      1 <0>        -0.0057
     23 C17         3.5546   -1.4326   -2.0465 C.ar      1 <0>        -0.0473
     24 C18         4.7370   -0.9960   -2.6052 C.ar      1 <0>        -0.0979
     25 C19         5.9411   -1.5787   -2.2363 C.ar      1 <0>         0.0448
     26 C20         5.9601   -2.6096   -1.2973 C.ar      1 <0>         0.0322
     27 C21         4.7789   -3.0478   -0.7286 C.ar      1 <0>        -0.0871
     28 O2          7.2534   -3.0055   -1.1110 O.3       1 <0>        -0.3079
     29 C22         7.9798   -2.4901   -2.2422 C.3       1 <0>         0.2130
     30 O3          7.2226   -1.3307   -2.6361 O.3       1 <0>        -0.3065
     31 H2         -0.9523    1.9181    0.0259 H         1 <0>         0.1368
     32 H3          1.2128    3.1385    0.0070 H         1 <0>         0.1357
     33 H4          3.3182    1.8671   -0.0196 H         1 <0>         0.1579
     34 H5         -0.9212   -0.5644    0.0082 H         1 <0>         0.1401
     35 H6          1.3701   -6.8031   -0.0329 H         1 <0>         0.1272
     36 H7          0.0558   -8.7736    0.5980 H         1 <0>         0.1436
     37 H8         -3.0779   -6.2214    2.0408 H         1 <0>         0.1346
     38 H9         -1.7590   -4.2509    1.4195 H         1 <0>         0.1464
     39 H10        -3.9552   -7.7705    2.4638 H         1 <0>         0.4019
     40 H11        -4.1222   -9.4398    2.5553 H         1 <0>         0.4075
     41 H12         2.6195   -0.9770   -2.3368 H         1 <0>         0.1341
     42 H13         4.7260   -0.1979   -3.3327 H         1 <0>         0.1396
     43 H14         4.7928   -3.8430    0.0020 H         1 <0>         0.1318
     44 H15         8.9911   -2.2062   -1.9508 H         1 <0>         0.1338
     45 H16         8.0041   -3.2236   -3.0481 H         1 <0>         0.0860
@<TRIPOS>BOND
     1    1    6 ar
     2    1    2 ar
     3    1   31 1
     4    2    3 ar
     5    2   32 1
     6    3    4 ar
     7    3   33 1
     8    4    5 ar
     9    5    6 ar
    10    5    7 1
    11    6   34 1
    12    7   12 1
    13    7    8 2
    14    8    9 1
    15    8   22 1
    16    9   10 1
    17    9   11 1
    18   11   12 2
    19   11   13 1
    20   13   18 ar
    21   13   14 ar
    22   14   15 ar
    23   14   35 1
    24   15   16 ar
    25   15   36 1
    26   16   17 ar
    27   16   19 1
    28   17   18 ar
    29   17   37 1
    30   18   38 1
    31   19   20 2
    32   19   21 am
    33   21   39 1
    34   21   40 1
    35   22   27 ar
    36   22   23 ar
    37   23   24 ar
    38   23   41 1
    39   24   25 ar
    40   24   42 1
    41   25   30 1
    42   25   26 ar
    43   26   27 ar
    44   26   28 1
    45   27   43 1
    46   28   29 1
    47   29   30 1
    48   29   44 1
    49   29   45 1
@<TRIPOS>MOLECULE
ZINC00603769
   45    49     0     0     0
SMALL
USER_CHARGES

@<TRIPOS>ATOM
      1 C1         -0.0167    1.3784    0.0096 C.ar      1 <0>        -0.0669
      2 C2          1.1942    2.0587    0.0017 C.ar      1 <0>        -0.1676
      3 C3          2.3763    1.3417   -0.0134 C.ar      1 <0>         0.1113
      4 N1          2.3693    0.0244   -0.0204 N.ar      1 <0>        -0.4550
      5 C4          1.2328   -0.6657   -0.0133 C.ar      1 <0>         0.1920
      6 C5          0.0021   -0.0041    0.0020 C.ar      1 <0>        -0.1658
      7 C6          1.2714   -2.1398   -0.0216 C.2       1 <0>         0.0382
      8 C7          2.2970   -2.9416   -0.4999 C.2       1 <0>         0.1062
      9 N2          1.9339   -4.2194   -0.3200 N.2       1 <0>        -0.4531
     10 C8          0.7459   -4.2650    0.2406 C.2       1 <0>         0.2625
     11 N3          0.2999   -2.9925    0.4490 N.pl3     1 <0>        -0.5476
     12 H1         -0.5448   -2.7370    0.8516 H         1 <0>         0.4250
     13 C9          0.0129   -5.4979    0.5945 C.ar      1 <0>         0.0109
     14 C10        -1.2515   -5.4143    1.1833 C.ar      1 <0>        -0.1171
     15 C11        -1.9345   -6.5627    1.5126 C.ar      1 <0>        -0.0525
     16 C12        -1.3635   -7.8124    1.2582 C.ar      1 <0>        -0.1294
     17 C13        -0.0990   -7.8960    0.6694 C.ar      1 <0>        -0.0814
     18 C14         0.5816   -6.7476    0.3352 C.ar      1 <0>        -0.0818
     19 C15        -2.0964   -9.0452    1.6121 C.2       1 <0>         0.5623
     20 O1         -3.1964   -8.9725    2.1247 O.2       1 <0>        -0.5370
     21 N4         -1.5457  -10.2506    1.3667 N.am      1 <0>        -0.8491
     22 C16         3.5663   -2.4704   -1.1017 C.ar      1 <0>         0.0066
     23 C17         3.5838   -1.3119   -1.8779 C.ar      1 <0>        -0.0530
     24 C18         4.7662   -0.8745   -2.4381 C.ar      1 <0>        -0.1046
     25 C19         5.9404   -1.5831   -2.2312 C.ar      1 <0>         0.0391
     26 C20         5.9290   -2.7416   -1.4559 C.ar      1 <0>         0.0249
     27 C21         4.7469   -3.1812   -0.8884 C.ar      1 <0>        -0.0684
     28 O2          7.1968   -3.2459   -1.4069 O.3       1 <0>        -0.3087
     29 C22         7.9032   -2.6161   -2.4920 C.3       1 <0>         0.2133
     30 O3          7.2156   -1.3632   -2.6666 O.3       1 <0>        -0.3096
     31 H2         -0.9524    1.9175    0.0259 H         1 <0>         0.1396
     32 H3          1.2122    3.1385    0.0070 H         1 <0>         0.1402
     33 H4          3.3188    1.8691   -0.0200 H         1 <0>         0.1641
     34 H5         -0.9211   -0.5645    0.0082 H         1 <0>         0.1300
     35 H6         -1.6927   -4.4484    1.3803 H         1 <0>         0.1270
     36 H7         -2.9117   -6.4980    1.9680 H         1 <0>         0.1439
     37 H8          0.3423   -8.8619    0.4727 H         1 <0>         0.1353
     38 H9          1.5570   -6.8122   -0.1239 H         1 <0>         0.1477
     39 H10        -0.6681  -10.3086    0.9577 H         1 <0>         0.4021
     40 H11        -2.0270  -11.0601    1.5991 H         1 <0>         0.4077
     41 H12         2.6715   -0.7574   -2.0408 H         1 <0>         0.1298
     42 H13         4.7777    0.0227   -3.0392 H         1 <0>         0.1349
     43 H14         4.7373   -4.0762   -0.2840 H         1 <0>         0.1381
     44 H15         8.9457   -2.4465   -2.2230 H         1 <0>         0.1312
     45 H16         7.8334   -3.2205   -3.3964 H         1 <0>         0.0841
@<TRIPOS>BOND
     1    1    6 ar
     2    1    2 ar
     3    1   31 1
     4    2    3 ar
     5    2   32 1
     6    3    4 ar
     7    3   33 1
     8    4    5 ar
     9    5    6 ar
    10    5    7 1
    11    6   34 1
    12    7   11 1
    13    7    8 2
    14    8    9 1
    15    8   22 1
    16    9   10 2
    17   10   11 1
    18   10   13 1
    19   11   12 1
    20   13   18 ar
    21   13   14 ar
    22   14   15 ar
    23   14   35 1
    24   15   16 ar
    25   15   36 1
    26   16   17 ar
    27   16   19 1
    28   17   18 ar
    29   17   37 1
    30   18   38 1
    31   19   20 2
    32   19   21 am
    33   21   39 1
    34   21   40 1
    35   22   27 ar
    36   22   23 ar
    37   23   24 ar
    38   23   41 1
    39   24   25 ar
    40   24   42 1
    41   25   30 1
    42   25   26 ar
    43   26   27 ar
    44   26   28 1
    45   27   43 1
    46   28   29 1
    47   29   30 1
    48   29   44 1
    49   29   45 1
@<TRIPOS>MOLECULE
ZINC00136945
   40    42     0     0     0
SMALL
USER_CHARGES

@<TRIPOS>ATOM
      1 C1         -0.1859    1.2832    0.0346 C.3       1 <0>         0.0238
      2 O1          0.0715   -0.1206    0.1048 O.3       1 <0>        -0.3075
      3 C2          0.6573   -0.6944   -0.9765 C.ar      1 <0>         0.2232
      4 C3          0.9821    0.0851   -2.0802 C.ar      1 <0>        -0.3384
      5 C4          1.5792   -0.4893   -3.1859 C.ar      1 <0>         0.2301
      6 C5          1.8587   -1.8698   -3.1917 C.ar      1 <0>        -0.1927
      7 C6          1.5255   -2.6509   -2.0680 C.ar      1 <0>         0.2337
      8 C7          0.9337   -2.0562   -0.9702 C.ar      1 <0>        -0.2849
      9 O2          1.7893   -3.9816   -2.0617 O.3       1 <0>        -0.2919
     10 C8          1.4237   -4.7099   -0.8878 C.3       1 <0>         0.0233
     11 C9          2.4704   -2.4688   -4.3206 C.2       1 <0>         0.0661
     12 C10         1.8161   -3.4671   -5.0106 C.2       1 <0>        -0.1617
     13 C11         0.4253   -3.9349   -4.8145 C.ar      1 <0>        -0.0861
     14 C12        -0.5939   -3.5583   -3.9462 C.ar      1 <0>        -0.0627
     15 C13        -1.8149   -4.1992   -4.0052 C.ar      1 <0>        -0.1438
     16 C14        -2.0232   -5.2131   -4.9256 C.ar      1 <0>        -0.0855
     17 C15        -1.0183   -5.5944   -5.7910 C.ar      1 <0>        -0.1387
     18 C16         0.2185   -4.9601   -5.7470 C.ar      1 <0>         0.1416
     19 N1          1.3793   -5.1437   -6.4883 N.am      1 <0>        -0.6555
     20 C17         2.3460   -4.2930   -6.1040 C.2       1 <0>         0.5622
     21 O3          3.4660   -4.2209   -6.5775 O.2       1 <0>        -0.5062
     22 O4          1.8949    0.2736   -4.2623 O.3       1 <0>        -0.3009
     23 C18         1.5815    1.6657   -4.1851 C.3       1 <0>         0.0245
     24 H1          0.7532    1.8181   -0.1079 H         1 <0>         0.0593
     25 H2         -0.8520    1.4891   -0.8032 H         1 <0>         0.0595
     26 H3         -0.6549    1.6134    0.9615 H         1 <0>         0.1056
     27 H4          0.7666    1.1434   -2.0738 H         1 <0>         0.1417
     28 H5          0.6815   -2.6526   -0.1058 H         1 <0>         0.1445
     29 H6          1.9541   -4.3021   -0.0273 H         1 <0>         0.0614
     30 H7          0.3491   -4.6235   -0.7265 H         1 <0>         0.0623
     31 H8          1.6889   -5.7595   -1.0141 H         1 <0>         0.1048
     32 H9          3.4492   -2.1433   -4.6407 H         1 <0>         0.1404
     33 H10        -0.4305   -2.7679   -3.2286 H         1 <0>         0.1228
     34 H11        -2.6088   -3.9100   -3.3325 H         1 <0>         0.1260
     35 H12        -2.9812   -5.7102   -4.9660 H         1 <0>         0.1295
     36 H13        -1.1927   -6.3869   -6.5038 H         1 <0>         0.1263
     37 H14         1.4782   -5.8000   -7.1957 H         1 <0>         0.4167
     38 H15         0.5078    1.7891   -4.0434 H         1 <0>         0.0597
     39 H16         2.1126    2.1116   -3.3442 H         1 <0>         0.0601
     40 H17         1.8850    2.1582   -5.1089 H         1 <0>         0.1073
@<TRIPOS>BOND
     1    1    2 1
     2    1   24 1
     3    1   25 1
     4    1   26 1
     5    2    3 1
     6    3    8 ar
     7    3    4 ar
     8    4    5 ar
     9    4   27 1
    10    5    6 ar
    11    5   22 1
    12    6    7 ar
    13    6   11 1
    14    7    8 ar
    15    7    9 1
    16    8   28 1
    17    9   10 1
    18   10   29 1
    19   10   30 1
    20   10   31 1
    21   11   12 2
    22   11   32 1
    23   12   20 1
    24   12   13 1
    25   13   18 ar
    26   13   14 ar
    27   14   15 ar
    28   14   33 1
    29   15   16 ar
    30   15   34 1
    31   16   17 ar
    32   16   35 1
    33   17   18 ar
    34   17   36 1
    35   18   19 1
    36   19   20 am
    37   19   37 1
    38   20   21 2
    39   22   23 1
    40   23   38 1
    41   23   39 1
    42   23   40 1
@<TRIPOS>MOLECULE
ZINC00136945
   40    42     0     0     0
SMALL
USER_CHARGES

@<TRIPOS>ATOM
      1 C1         -0.2951    1.5018   -0.2354 C.3       1 <0>         0.0235
      2 O1         -0.0589    0.0995   -0.0945 O.3       1 <0>        -0.3068
      3 C2          0.5587   -0.5278   -1.1269 C.ar      1 <0>         0.2267
      4 C3          0.9339    0.1988   -2.2508 C.ar      1 <0>        -0.3412
      5 C4          1.5632   -0.4300   -3.3075 C.ar      1 <0>         0.2389
      6 C5          1.8247   -1.8137   -3.2430 C.ar      1 <0>        -0.2020
      7 C6          1.4400   -2.5410   -2.0985 C.ar      1 <0>         0.2325
      8 C7          0.8169   -1.8914   -1.0507 C.ar      1 <0>        -0.2840
      9 O2          1.6858   -3.8728   -2.0240 O.3       1 <0>        -0.3005
     10 C8          1.2678   -4.5440   -0.8337 C.3       1 <0>         0.0231
     11 C9          2.4681   -2.4677   -4.3195 C.2       1 <0>         0.0845
     12 C10         3.7381   -2.0804   -4.7038 C.2       1 <0>        -0.1224
     13 C11         4.6348   -1.1164   -4.0319 C.ar      1 <0>        -0.1055
     14 C12         4.5288   -0.3345   -2.8889 C.ar      1 <0>        -0.0726
     15 C13         5.5759    0.4860   -2.5218 C.ar      1 <0>        -0.1351
     16 C14         6.7306    0.5315   -3.2893 C.ar      1 <0>        -0.1049
     17 C15         6.8534   -0.2364   -4.4252 C.ar      1 <0>        -0.0953
     18 C16         5.8050   -1.0768   -4.8187 C.ar      1 <0>         0.0993
     19 N1          5.6627   -1.9218   -5.8701 N.2       1 <0>        -0.5446
     20 C17         4.5063   -2.5380   -5.8696 C.2       1 <0>         0.3732
     21 O3          4.0883   -3.4410   -6.7900 O.3       1 <0>        -0.4399
     22 O4          1.9279    0.2812   -4.4033 O.3       1 <0>        -0.2928
     23 C18         1.6302    1.6789   -4.3982 C.3       1 <0>         0.0249
     24 H1          0.6554    2.0191   -0.3660 H         1 <0>         0.0600
     25 H2         -0.9273    1.6781   -1.1056 H         1 <0>         0.0598
     26 H3         -0.7937    1.8778    0.6580 H         1 <0>         0.1062
     27 H4          0.7322    1.2588   -2.2982 H         1 <0>         0.1428
     28 H5          0.5252   -2.4459   -0.1710 H         1 <0>         0.1449
     29 H6          1.5237   -5.6012   -0.9038 H         1 <0>         0.1074
     30 H7          1.7716   -4.1046    0.0273 H         1 <0>         0.0626
     31 H8          0.1893   -4.4383   -0.7166 H         1 <0>         0.0632
     32 H9          1.9671   -3.2698   -4.8411 H         1 <0>         0.1426
     33 H10         3.6306   -0.3681   -2.2902 H         1 <0>         0.1166
     34 H11         5.4960    1.0953   -1.6337 H         1 <0>         0.1233
     35 H12         7.5433    1.1777   -2.9922 H         1 <0>         0.1271
     36 H13         7.7583   -0.1903   -5.0131 H         1 <0>         0.1261
     37 H14         4.7331   -3.6177   -7.4886 H         1 <0>         0.4131
     38 H15         0.5538    1.8208   -4.3018 H         1 <0>         0.0594
     39 H16         2.1361    2.1550   -3.5582 H         1 <0>         0.0603
     40 H17         1.9737    2.1269   -5.3306 H         1 <0>         0.1059
@<TRIPOS>BOND
     1    1    2 1
     2    1   24 1
     3    1   25 1
     4    1   26 1
     5    2    3 1
     6    3    8 ar
     7    3    4 ar
     8    4    5 ar
     9    4   27 1
    10    5    6 ar
    11    5   22 1
    12    6    7 ar
    13    6   11 1
    14    7    8 ar
    15    7    9 1
    16    8   28 1
    17    9   10 1
    18   10   29 1
    19   10   30 1
    20   10   31 1
    21   11   12 2
    22   11   32 1
    23   12   20 1
    24   12   13 1
    25   13   18 ar
    26   13   14 ar
    27   14   15 ar
    28   14   33 1
    29   15   16 ar
    30   15   34 1
    31   16   17 ar
    32   16   35 1
    33   17   18 ar
    34   17   36 1
    35   18   19 1
    36   19   20 2
    37   20   21 1
    38   21   37 1
    39   22   23 1
    40   23   38 1
    41   23   39 1
    42   23   40 1
@<TRIPOS>MOLECULE
ZINC03964325
   57    59     0     0     0
SMALL
USER_CHARGES

@<TRIPOS>ATOM
      1 C1          0.1489    2.0884    0.1150 C.3       1 <0>        -0.1876
      2 C2          0.1348    0.5603    0.1888 C.3       1 <0>        -0.0191
      3 N1         -1.2520    0.0881    0.2979 N.4       1 <0>        -0.3822
      4 C3         -1.9779    0.4111   -0.9377 C.3       1 <0>        -0.0142
      5 C4         -3.4549    0.0484   -0.7712 C.3       1 <0>        -0.1895
      6 C5         -1.2593   -1.3663    0.5041 C.3       1 <0>        -0.0265
      7 C6         -0.6131   -1.6936    1.8518 C.3       1 <0>         0.0952
      8 N2         -0.6203   -3.1440    2.0575 N.am      1 <0>        -0.7289
      9 C7         -0.0988   -3.6675    3.1846 C.2       1 <0>         0.6111
     10 O1          0.3779   -2.9358    4.0309 O.2       1 <0>        -0.5184
     11 C8         -0.1061   -5.1270    3.3915 C.2       1 <0>        -0.2420
     12 C9          0.9071   -6.0320    3.0089 C.2       1 <0>        -0.0577
     13 C10         0.4868   -7.2892    3.3960 C.2       1 <0>        -0.0075
     14 N3         -0.7476   -7.1595    3.9982 N.pl3     1 <0>        -0.4910
     15 H1         -1.2731   -7.8879    4.3645 H         1 <0>         0.4270
     16 C11        -1.1044   -5.8642    4.0022 C.2       1 <0>         0.1158
     17 C12        -2.3825   -5.3072    4.5743 C.3       1 <0>        -0.0999
     18 C13         1.1957   -8.4957    3.2079 C.2       1 <0>         0.0729
     19 C14         0.5100   -9.6674    2.9570 C.2       1 <0>        -0.1889
     20 C15         1.0648  -11.0377    2.8871 C.ar      1 <0>        -0.0736
     21 C16         2.3472  -11.5557    3.0375 C.ar      1 <0>        -0.1000
     22 C17         2.5553  -12.9162    2.9116 C.ar      1 <0>         0.0861
     23 C18         1.4888  -13.7593    2.6366 C.ar      1 <0>        -0.1139
     24 C19         0.2139  -13.2531    2.4856 C.ar      1 <0>        -0.1021
     25 C20        -0.0144  -11.8871    2.6092 C.ar      1 <0>         0.1282
     26 N4         -1.1765  -11.1301    2.5069 N.am      1 <0>        -0.6466
     27 C21        -0.9294   -9.8245    2.7079 C.2       1 <0>         0.5595
     28 O2         -1.7538   -8.9280    2.6842 O.2       1 <0>        -0.5156
     29 F1          3.7984  -13.4252    3.0561 F         1 <0>        -0.1318
     30 C22         2.1990   -5.6919    2.3116 C.3       1 <0>        -0.0931
     31 H2          1.1793    2.4435    0.1331 H         1 <0>         0.1076
     32 H3         -0.3308    2.4121   -0.8087 H         1 <0>         0.0811
     33 H4         -0.3916    2.4984    0.9682 H         1 <0>         0.0809
     34 H5          0.5888    0.1488   -0.7126 H         1 <0>         0.1317
     35 H6          0.6996    0.2334    1.0619 H         1 <0>         0.1337
     36 H7         -1.8867    1.4775   -1.1444 H         1 <0>         0.1351
     37 H8         -1.5554   -0.1571   -1.7664 H         1 <0>         0.1307
     38 H9         -3.5537   -1.0316   -0.6617 H         1 <0>         0.0802
     39 H10        -3.8523    0.5414    0.1160 H         1 <0>         0.0808
     40 H11        -4.0109    0.3769   -1.6492 H         1 <0>         0.1074
     41 H12        -2.2871   -1.7292    0.4963 H         1 <0>         0.1397
     42 H13        -0.6973   -1.8494   -0.2952 H         1 <0>         0.1376
     43 H14         0.4147   -1.3306    1.8596 H         1 <0>         0.0893
     44 H15        -1.1751   -1.2105    2.6511 H         1 <0>         0.0890
     45 H16        -1.0005   -3.7277    1.3824 H         1 <0>         0.4099
     46 H17        -3.1529   -5.3000    3.8032 H         1 <0>         0.0840
     47 H18        -2.7087   -5.9289    5.4080 H         1 <0>         0.0782
     48 H19        -2.2103   -4.2898    4.9254 H         1 <0>         0.0840
     49 H20         2.2744   -8.5020    3.2604 H         1 <0>         0.1589
     50 H21         3.1765  -10.8977    3.2512 H         1 <0>         0.1436
     51 H22         1.6578  -14.8215    2.5394 H         1 <0>         0.1485
     52 H23        -0.6084  -13.9196    2.2712 H         1 <0>         0.1415
     53 H24        -2.0541  -11.4980    2.3189 H         1 <0>         0.4217
     54 H25         2.9686   -5.4822    3.0545 H         1 <0>         0.0785
     55 H26         2.5107   -6.5337    1.6932 H         1 <0>         0.0726
     56 H27         2.0522   -4.8138    1.6827 H         1 <0>         0.0634
     57 H28        -1.7009    0.5410    1.0799 H         1 <0>         0.4247
@<TRIPOS>BOND
     1    1    2 1
     2    1   31 1
     3    1   32 1
     4    1   33 1
     5    2    3 1
     6    2   34 1
     7    2   35 1
     8    3    4 1
     9    3    6 1
    10    3   57 1
    11    4    5 1
    12    4   36 1
    13    4   37 1
    14    5   38 1
    15    5   39 1
    16    5   40 1
    17    6    7 1
    18    6   41 1
    19    6   42 1
    20    7    8 1
    21    7   43 1
    22    7   44 1
    23    8    9 am
    24    8   45 1
    25    9   10 2
    26    9   11 1
    27   11   16 2
    28   11   12 1
    29   12   13 2
    30   12   30 1
    31   13   14 1
    32   13   18 1
    33   14   15 1
    34   14   16 1
    35   16   17 1
    36   17   46 1
    37   17   47 1
    38   17   48 1
    39   18   19 2
    40   18   49 1
    41   19   27 1
    42   19   20 1
    43   20   25 ar
    44   20   21 ar
    45   21   22 ar
    46   21   50 1
    47   22   23 ar
    48   22   29 1
    49   23   24 ar
    50   23   51 1
    51   24   25 ar
    52   24   52 1
    53   25   26 1
    54   26   27 am
    55   26   53 1
    56   27   28 2
    57   30   54 1
    58   30   55 1
    59   30   56 1
@<TRIPOS>MOLECULE
ZINC01546066
   52    54     0     0     0
SMALL
USER_CHARGES

@<TRIPOS>ATOM
      1 C1          1.3190    1.4185    0.8998 C.3       1 <0>         0.0308
      2 O1          1.1221    0.0121    0.7412 O.3       1 <0>        -0.3842
      3 C2          1.6336   -0.7719    1.8209 C.3       1 <0>         0.0626
      4 C3          1.3686   -2.2534    1.5456 C.3       1 <0>         0.0560
      5 O2          2.1105   -2.6643    0.3955 O.3       1 <0>        -0.2877
      6 C4          1.9861   -3.9631    0.0122 C.ar      1 <0>         0.1163
      7 C5          1.1727   -4.8014    0.7206 C.ar      1 <0>        -0.1508
      8 C6          1.0439   -6.1386    0.3269 C.ar      1 <0>        -0.1822
      9 C7          1.7562   -6.6146   -0.8018 C.ar      1 <0>         0.2018
     10 C8          2.5842   -5.7378   -1.5132 C.ar      1 <0>        -0.1867
     11 C9          2.6894   -4.4253   -1.1088 C.ar      1 <0>         0.1692
     12 O3          3.4878   -3.5711   -1.8004 O.3       1 <0>        -0.2847
     13 C10         4.1782   -4.1019   -2.9333 C.3       1 <0>         0.0544
     14 C11         5.0210   -3.0002   -3.5791 C.3       1 <0>         0.0626
     15 O4          6.0448   -2.5894   -2.6708 O.3       1 <0>        -0.3848
     16 C12         6.8933   -1.5581   -3.1792 C.3       1 <0>         0.0309
     17 N1          1.6146   -7.9009   -1.1583 N.ar      1 <0>        -0.5426
     18 C13         0.8310   -8.6986   -0.4725 C.ar      1 <0>         0.3422
     19 N2          0.1465   -8.2987    0.5874 N.ar      1 <0>        -0.5807
     20 C14         0.2146   -7.0483    1.0253 C.ar      1 <0>         0.4641
     21 N3         -0.5043   -6.6451    2.1328 N.pl3     1 <0>        -0.6417
     22 C15        -1.2223   -7.5837    2.8797 C.ar      1 <0>         0.1534
     23 C16        -2.4417   -7.2339    3.4483 C.ar      1 <0>        -0.1365
     24 C17        -3.1548   -8.1581    4.1879 C.ar      1 <0>        -0.0976
     25 C18        -2.6612   -9.4349    4.3666 C.ar      1 <0>        -0.1098
     26 C19        -1.4382   -9.7960    3.7995 C.ar      1 <0>         0.0290
     27 C20        -0.7210   -8.8652    3.0488 C.ar      1 <0>        -0.0846
     28 C21        -0.9239  -11.1197    3.9839 C.1       1 <0>        -0.1518
     29 C22        -0.5023  -12.2049    4.1351 C.1       1 <0>        -0.1689
     30 H1          2.3858    1.6300    0.9737 H         1 <0>         0.0438
     31 H2          0.9034    1.9430    0.0394 H         1 <0>         0.0882
     32 H3          0.8182    1.7554    1.8074 H         1 <0>         0.0421
     33 H4          2.7069   -0.6059    1.9138 H         1 <0>         0.0642
     34 H5          1.1392   -0.4804    2.7476 H         1 <0>         0.0738
     35 H6          1.6782   -2.8442    2.4078 H         1 <0>         0.0797
     36 H7          0.3045   -2.4047    1.3647 H         1 <0>         0.0731
     37 H8          0.6320   -4.4344    1.5804 H         1 <0>         0.1376
     38 H9          3.1329   -6.0870   -2.3754 H         1 <0>         0.1546
     39 H10         4.8282   -4.9164   -2.6138 H         1 <0>         0.0783
     40 H11         3.4545   -4.4770   -3.6569 H         1 <0>         0.0849
     41 H12         5.4773   -3.3804   -4.4931 H         1 <0>         0.0752
     42 H13         4.3841   -2.1485   -3.8181 H         1 <0>         0.0638
     43 H14         6.2953   -0.6764   -3.4098 H         1 <0>         0.0434
     44 H15         7.6433   -1.3027   -2.4306 H         1 <0>         0.0879
     45 H16         7.3884   -1.9084   -4.0848 H         1 <0>         0.0424
     46 H17         0.7401   -9.7278   -0.7869 H         1 <0>         0.1966
     47 H18        -0.5113   -5.7106    2.3927 H         1 <0>         0.4197
     48 H19        -2.8329   -6.2365    3.3119 H         1 <0>         0.1281
     49 H20        -4.1012   -7.8805    4.6278 H         1 <0>         0.1331
     50 H21        -3.2213  -10.1542    4.9456 H         1 <0>         0.1284
     51 H22         0.2239   -9.1405    2.6039 H         1 <0>         0.1386
     52 H23        -0.1252  -13.1754    4.2703 H         1 <0>         0.2249
@<TRIPOS>BOND
     1    1    2 1
     2    1   30 1
     3    1   31 1
     4    1   32 1
     5    2    3 1
     6    3    4 1
     7    3   33 1
     8    3   34 1
     9    4    5 1
    10    4   35 1
    11    4   36 1
    12    5    6 1
    13    6   11 ar
    14    6    7 ar
    15    7    8 ar
    16    7   37 1
    17    8   20 ar
    18    8    9 ar
    19    9   10 ar
    20    9   17 ar
    21   10   11 ar
    22   10   38 1
    23   11   12 1
    24   12   13 1
    25   13   14 1
    26   13   39 1
    27   13   40 1
    28   14   15 1
    29   14   41 1
    30   14   42 1
    31   15   16 1
    32   16   43 1
    33   16   44 1
    34   16   45 1
    35   17   18 ar
    36   18   19 ar
    37   18   46 1
    38   19   20 ar
    39   20   21 1
    40   21   22 1
    41   21   47 1
    42   22   27 ar
    43   22   23 ar
    44   23   24 ar
    45   23   48 1
    46   24   25 ar
    47   24   49 1
    48   25   26 ar
    49   25   50 1
    50   26   27 ar
    51   26   28 1
    52   27   51 1
    53   28   29 3
    54   29   52 1
@<TRIPOS>MOLECULE
ZINC18825339
   59    62     0     0     0
SMALL
USER_CHARGES
5-[(Z)-(5-fluoro-2-oxo-indolin-3-ylidene)methyl]-N-[(2R)-2-hydroxy-3-morpholino-propyl]-2,4-dimethyl-1H-pyrrole-3-carboxamide
@<TRIPOS>ATOM
      1 C1          3.5607    0.7280    0.3667 C.3       1 <0>        -0.0956
      2 C2          2.0758    0.7165    0.1102 C.2       1 <0>        -0.0564
      3 C3          1.2591    1.8188   -0.0477 C.2       1 <0>        -0.0308
      4 N1         -0.0271    1.3691   -0.2640 N.pl3     1 <0>        -0.5068
      5 H1         -0.8436    2.0903   -0.4163 H         1 <0>         0.4494
      6 C4         -0.0354    0.0257   -0.2455 C.2       1 <0>         0.1277
      7 C5          1.2525   -0.4230   -0.0155 C.2       1 <0>        -0.2308
      8 C6          1.6847   -1.8291    0.0810 C.2       1 <0>         0.5980
      9 O1          2.0430   -2.4250   -0.9167 O.2       1 <0>        -0.5421
     10 N2          1.6827   -2.4542    1.2750 N.am      1 <0>        -0.7266
     11 C7          2.1121   -3.8516    1.3710 C.3       1 <0>         0.1299
     12 C8          2.0150   -4.3162    2.8255 C.3       1 <0>         0.1144
     13 H2          2.5334   -3.6206    3.5018 H         1 <0>         0.0568
     14 C9          2.5799   -5.7329    2.9471 C.3       1 <0>         0.0228
     15 N3          2.4867   -6.1790    4.3436 N.3       1 <0>        -0.5349
     16 C10         3.3671   -5.3829    5.2109 C.3       1 <0>         0.0083
     17 C11         3.1945   -5.8402    6.6618 C.3       1 <0>         0.0618
     18 O2          3.4694   -7.2408    6.7508 O.3       1 <0>        -0.3843
     19 C12         2.6296   -8.0463    5.9193 C.3       1 <0>         0.0614
     20 C13         2.7965   -7.6114    4.4609 C.3       1 <0>         0.0172
     21 O3          0.6463   -4.3123    3.2364 O.3       1 <0>        -0.5882
     22 C14        -1.2476   -0.8477   -0.4426 C.3       1 <0>        -0.0994
     23 C15         1.6686    3.1691    0.0027 C.2       1 <0>         0.0908
     24 C16         0.8216    4.1284    0.5209 C.2       1 <0>        -0.2125
     25 C17         1.0162    5.5955    0.5210 C.ar      1 <0>        -0.0684
     26 C18         2.0202    6.4240    0.0297 C.ar      1 <0>        -0.1043
     27 C19         1.9118    7.7937    0.1786 C.ar      1 <0>         0.0808
     28 C20         0.8031    8.3379    0.8097 C.ar      1 <0>        -0.1198
     29 C21        -0.2000    7.5233    1.2941 C.ar      1 <0>        -0.1061
     30 C22        -0.1080    6.1430    1.1533 C.ar      1 <0>         0.1250
     31 N4         -0.9593    5.1144    1.5420 N.am      1 <0>        -0.6604
     32 C23        -0.4649    3.9133    1.1971 C.2       1 <0>         0.5647
     33 O4         -0.9909    2.8351    1.4086 O.2       1 <0>        -0.5132
     34 F1          2.8866    8.6030   -0.2904 F         1 <0>        -0.1355
     35 H3          3.9167    1.7678    0.4131 H         1 <0>         0.0672
     36 H4          4.0776    0.1994   -0.4478 H         1 <0>         0.0746
     37 H5          3.7717    0.2252    1.3221 H         1 <0>         0.0710
     38 H6          1.3586   -1.9152    2.1775 H         1 <0>         0.4262
     39 H7          1.4633   -4.4786    0.7417 H         1 <0>         0.0750
     40 H8          3.1531   -3.9398    1.0266 H         1 <0>         0.0785
     41 H9          2.0023   -6.4143    2.3052 H         1 <0>         0.0900
     42 H10         3.6334   -5.7360    2.6307 H         1 <0>         0.0465
     43 H11         4.4130   -5.5254    4.9015 H         1 <0>         0.0459
     44 H12         3.1012   -4.3189    5.1257 H         1 <0>         0.0881
     45 H13         3.8925   -5.2859    7.3064 H         1 <0>         0.1001
     46 H14         2.1618   -5.6458    6.9871 H         1 <0>         0.0615
     47 H15         2.9156   -9.1033    6.0238 H         1 <0>         0.1009
     48 H16         1.5805   -7.9185    6.2243 H         1 <0>         0.0621
     49 H17         2.1104   -8.1883    3.8234 H         1 <0>         0.0898
     50 H18         3.8332   -7.7899    4.1393 H         1 <0>         0.0455
     51 H19         0.3780   -4.6185    4.2583 H         1 <0>         0.4136
     52 H20        -0.9523   -1.9052   -0.3757 H         1 <0>         0.0845
     53 H21        -1.6843   -0.6508   -1.4328 H         1 <0>         0.0777
     54 H22        -1.9909   -0.6245    0.3369 H         1 <0>         0.0809
     55 H23         2.6624    3.4568   -0.3709 H         1 <0>         0.1579
     56 H24         2.8828    5.9984   -0.4614 H         1 <0>         0.1409
     57 H25         0.7239    9.4091    0.9228 H         1 <0>         0.1443
     58 H26        -1.0583    7.9589    1.7840 H         1 <0>         0.1386
     59 H27        -1.9003    5.3463    2.0623 H         1 <0>         0.4455
@<TRIPOS>BOND
     1    1    2 1
     2    1   35 1
     3    1   36 1
     4    1   37 1
     5    2    7 1
     6    2    3 2
     7    3    4 1
     8    3   23 1
     9    4    5 1
    10    4    6 1
    11    6    7 2
    12    6   22 1
    13    7    8 1
    14    8    9 2
    15    8   10 am
    16   10   11 1
    17   10   38 1
    18   11   12 1
    19   11   39 1
    20   11   40 1
    21   12   13 1
    22   12   14 1
    23   12   21 1
    24   14   15 1
    25   14   41 1
    26   14   42 1
    27   15   20 1
    28   15   16 1
    29   16   17 1
    30   16   43 1
    31   16   44 1
    32   17   18 1
    33   17   45 1
    34   17   46 1
    35   18   19 1
    36   19   20 1
    37   19   47 1
    38   19   48 1
    39   20   49 1
    40   20   50 1
    41   21   51 1
    42   22   52 1
    43   22   53 1
    44   22   54 1
    45   23   24 2
    46   23   55 1
    47   24   32 1
    48   24   25 1
    49   25   30 ar
    50   25   26 ar
    51   26   27 ar
    52   26   56 1
    53   27   28 ar
    54   27   34 1
    55   28   29 ar
    56   28   57 1
    57   29   30 ar
    58   29   58 1
    59   30   31 1
    60   31   32 am
    61   31   59 1
    62   32   33 2
@<TRIPOS>MOLECULE
ZINC18825344
   59    62     0     0     0
SMALL
USER_CHARGES
5-[(Z)-(5-fluoro-2-oxo-indolin-3-ylidene)methyl]-N-[(2S)-2-hydroxy-3-morpholino-propyl]-2,4-dimethyl-1H-pyrrole-3-carboxamide
@<TRIPOS>ATOM
      1 C1          4.7056    0.6287    1.0117 C.3       1 <0>        -0.0968
      2 C2          3.2464    0.8378    0.6983 C.2       1 <0>        -0.0523
      3 C3          2.5980    2.0501    0.5678 C.2       1 <0>        -0.0327
      4 N1          1.2732    1.7961    0.2789 N.pl3     1 <0>        -0.5060
      5 H1          0.5720    2.6311    0.1339 H         1 <0>         0.4496
      6 C4          1.0783    0.4679    0.2258 C.2       1 <0>         0.1246
      7 C5          2.2801   -0.1676    0.4808 C.2       1 <0>        -0.2308
      8 C6          2.5088   -1.6234    0.5191 C.2       1 <0>         0.5976
      9 O1          2.8262   -2.2159   -0.4944 O.2       1 <0>        -0.5428
     10 N2          2.3662   -2.2977    1.6773 N.am      1 <0>        -0.7254
     11 C7          2.5935   -3.7444    1.7154 C.3       1 <0>         0.1298
     12 C8          2.3672   -4.2590    3.1384 C.3       1 <0>         0.1172
     13 H2          1.3599   -4.0040    3.4994 H         1 <0>         0.0560
     14 C9          2.6045   -5.7699    3.1781 C.3       1 <0>         0.0219
     15 N3          2.3382   -6.2720    4.5327 N.3       1 <0>        -0.5356
     16 C10         2.9762   -7.5793    4.7450 C.3       1 <0>         0.0168
     17 C11         2.7241   -8.0365    6.1842 C.3       1 <0>         0.0612
     18 O2          1.3152   -8.0759    6.4267 O.3       1 <0>        -0.3844
     19 C12         0.6618   -6.8191    6.2299 C.3       1 <0>         0.0617
     20 C13         0.8930   -6.3496    4.7911 C.3       1 <0>         0.0111
     21 O3          3.2765   -3.6103    4.0297 O.3       1 <0>        -0.5892
     22 C14        -0.2328   -0.2165   -0.0637 C.3       1 <0>        -0.0987
     23 C15         3.1876    3.3256    0.7056 C.2       1 <0>         0.0935
     24 C16         2.4515    4.3746    1.2192 C.2       1 <0>        -0.2157
     25 C17         2.8515    5.7966    1.3077 C.ar      1 <0>        -0.0669
     26 C18         3.9943    6.4912    0.9234 C.ar      1 <0>        -0.1048
     27 C19         4.0710    7.8545    1.1363 C.ar      1 <0>         0.0814
     28 C20         3.0098    8.5263    1.7247 C.ar      1 <0>        -0.1204
     29 C21         1.8704    7.8457    2.1029 C.ar      1 <0>        -0.1055
     30 C22         1.7753    6.4739    1.8965 C.ar      1 <0>         0.1237
     31 N4          0.7622    5.5637    2.1775 N.am      1 <0>        -0.6596
     32 C23         1.1039    4.3195    1.8021 C.2       1 <0>         0.5657
     33 O4          0.4171    3.3209    1.9242 O.2       1 <0>        -0.5153
     34 F1          5.1807    8.5334    0.7715 F         1 <0>        -0.1355
     35 H3          5.1994    1.6049    1.1269 H         1 <0>         0.0668
     36 H4          5.1808    0.0720    0.1906 H         1 <0>         0.0744
     37 H5          4.8016    0.0567    1.9464 H         1 <0>         0.0741
     38 H6          2.0791   -1.7617    2.5940 H         1 <0>         0.4273
     39 H7          1.8935   -4.2437    1.0293 H         1 <0>         0.0777
     40 H8          3.6268   -3.9615    1.4070 H         1 <0>         0.0736
     41 H9          1.9304   -6.2658    2.4641 H         1 <0>         0.0486
     42 H10         3.6486   -5.9844    2.9062 H         1 <0>         0.0884
     43 H11         2.5501   -8.3132    4.0451 H         1 <0>         0.0451
     44 H12         4.0587   -7.4917    4.5704 H         1 <0>         0.0900
     45 H13         3.1515   -9.0395    6.3305 H         1 <0>         0.1008
     46 H14         3.1986   -7.3305    6.8817 H         1 <0>         0.0620
     47 H15        -0.4170   -6.9344    6.4112 H         1 <0>         0.1000
     48 H16         1.0741   -6.0778    6.9303 H         1 <0>         0.0613
     49 H17         0.4415   -5.3564    4.6504 H         1 <0>         0.0873
     50 H18         0.4333   -7.0637    4.0920 H         1 <0>         0.0461
     51 H19         3.2627   -3.8533    5.1024 H         1 <0>         0.4141
     52 H20        -0.0899   -1.3070   -0.0417 H         1 <0>         0.0829
     53 H21        -0.5927    0.0862   -1.0581 H         1 <0>         0.0781
     54 H22        -0.9728    0.0718    0.6974 H         1 <0>         0.0803
     55 H23         4.2335    3.4835    0.4037 H         1 <0>         0.1584
     56 H24         4.8196    5.9664    0.4654 H         1 <0>         0.1411
     57 H25         3.0756    9.5918    1.8882 H         1 <0>         0.1443
     58 H26         1.0507    8.3797    2.5605 H         1 <0>         0.1385
     59 H27        -0.1701    5.9069    2.6497 H         1 <0>         0.4455
@<TRIPOS>BOND
     1    1    2 1
     2    1   35 1
     3    1   36 1
     4    1   37 1
     5    2    7 1
     6    2    3 2
     7    3    4 1
     8    3   23 1
     9    4    5 1
    10    4    6 1
    11    6    7 2
    12    6   22 1
    13    7    8 1
    14    8    9 2
    15    8   10 am
    16   10   11 1
    17   10   38 1
    18   11   12 1
    19   11   39 1
    20   11   40 1
    21   12   13 1
    22   12   14 1
    23   12   21 1
    24   14   15 1
    25   14   41 1
    26   14   42 1
    27   15   20 1
    28   15   16 1
    29   16   17 1
    30   16   43 1
    31   16   44 1
    32   17   18 1
    33   17   45 1
    34   17   46 1
    35   18   19 1
    36   19   20 1
    37   19   47 1
    38   19   48 1
    39   20   49 1
    40   20   50 1
    41   21   51 1
    42   22   52 1
    43   22   53 1
    44   22   54 1
    45   23   24 2
    46   23   55 1
    47   24   32 1
    48   24   25 1
    49   25   30 ar
    50   25   26 ar
    51   26   27 ar
    52   26   56 1
    53   27   28 ar
    54   27   34 1
    55   28   29 ar
    56   28   57 1
    57   29   30 ar
    58   29   58 1
    59   30   31 1
    60   31   32 am
    61   31   59 1
    62   32   33 2
@<TRIPOS>MOLECULE
ZINC23247639
   69    72     0     0     0
SMALL
USER_CHARGES
1-[4-[(4-ethylpiperazin-1-yl)methyl]-3-(trifluoromethyl)phenyl]-3-[4-(6-methylaminopyrimidin-4-yl)oxyphenyl]urea
@<TRIPOS>ATOM
      1 C1          8.9417    3.3719    8.2172 C.3       1 <0>        -0.1901
      2 C2         10.1498    2.9102    7.3997 C.3       1 <0>        -0.0070
      3 N1          9.9972    3.3533    6.0075 N.4       1 <0>        -0.4011
      4 C3         11.2367    3.1387    5.2477 C.3       1 <0>         0.0016
      5 C4         11.0629    3.6845    3.8284 C.3       1 <0>         0.0271
      6 N2          9.9288    3.0094    3.1822 N.3       1 <0>        -0.5300
      7 C5          8.6893    3.2240    3.9420 C.3       1 <0>         0.0232
      8 C6          8.8631    2.6781    5.3612 C.3       1 <0>        -0.0016
      9 C7          9.7762    3.4524    1.7899 C.3       1 <0>         0.0786
     10 C8          8.7879    2.5601    1.0842 C.ar      1 <0>        -0.0666
     11 C9          7.5022    3.0092    0.8434 C.ar      1 <0>        -0.0932
     12 C10         6.5958    2.1959    0.1923 C.ar      1 <0>        -0.0888
     13 C11         6.9731    0.9214   -0.2106 C.ar      1 <0>         0.1880
     14 C12         8.2646    0.4735    0.0326 C.ar      1 <0>        -0.1043
     15 C13         9.1683    1.2940    0.6793 C.ar      1 <0>        -0.1369
     16 C14        10.5702    0.8086    0.9441 C.3       1 <0>         0.5111
     17 F1         10.7250   -0.4786    0.4184 F         1 <0>        -0.1776
     18 F2         11.4860    1.6739    0.3362 F         1 <0>        -0.1774
     19 F3         10.8008    0.7797    2.3237 F         1 <0>        -0.1628
     20 N3          6.0552    0.0926   -0.8655 N.am      1 <0>        -0.6979
     21 C15         4.7513    0.1311   -0.5266 C.2       1 <0>         0.7117
     22 O1          4.3858    0.8194    0.4067 O.2       1 <0>        -0.5623
     23 N4          3.8526   -0.5934   -1.2222 N.am      1 <0>        -0.6900
     24 C16         2.4863   -0.4790   -0.9335 C.ar      1 <0>         0.1635
     25 C17         1.5516   -0.5518   -1.9576 C.ar      1 <0>        -0.1265
     26 C18         0.2052   -0.4394   -1.6724 C.ar      1 <0>        -0.0923
     27 C19        -0.2137   -0.2543   -0.3628 C.ar      1 <0>         0.0841
     28 C20         0.7198   -0.1815    0.6609 C.ar      1 <0>        -0.0957
     29 C21         2.0665   -0.2932    0.3769 C.ar      1 <0>        -0.1058
     30 O2         -1.5393   -0.1385   -0.0833 O.3       1 <0>        -0.2424
     31 C22        -2.3129   -1.2454   -0.1983 C.ar      1 <0>         0.3836
     32 C23        -3.6894   -1.1637   -0.0277 C.ar      1 <0>        -0.3134
     33 C24        -4.4409   -2.3284   -0.1601 C.ar      1 <0>         0.4631
     34 N5         -3.8165   -3.4721   -0.4341 N.ar      1 <0>        -0.5936
     35 C25        -2.5082   -3.5081   -0.5840 C.ar      1 <0>         0.3760
     36 N6         -1.7644   -2.4263   -0.4707 N.ar      1 <0>        -0.6039
     37 N7         -5.8178   -2.2988   -0.0034 N.pl3     1 <0>        -0.7218
     38 C26        -6.4937   -1.0344    0.2979 C.3       1 <0>         0.0891
     39 H1          9.0560    3.0401    9.2597 H         1 <0>         0.1066
     40 H2          8.0243    2.9380    7.7928 H         1 <0>         0.0798
     41 H3          8.8763    4.4695    8.1868 H         1 <0>         0.0803
     42 H4         11.0672    3.3441    7.8241 H         1 <0>         0.1306
     43 H5         10.2153    1.8126    7.4301 H         1 <0>         0.1269
     44 H6         12.0665    3.6630    5.7442 H         1 <0>         0.1361
     45 H7         11.4577    2.0621    5.2031 H         1 <0>         0.1357
     46 H8         10.8699    4.7665    3.8728 H         1 <0>         0.0625
     47 H9         11.9796    3.4990    3.2494 H         1 <0>         0.1239
     48 H10         8.4684    4.3007    3.9867 H         1 <0>         0.0621
     49 H11         7.8594    2.6998    3.4455 H         1 <0>         0.1239
     50 H12         9.0569    1.5962    5.3178 H         1 <0>         0.1351
     51 H13         7.9470    2.8635    5.9412 H         1 <0>         0.1359
     52 H14         9.4106    4.4897    1.7732 H         1 <0>         0.0663
     53 H15        10.7489    3.3982    1.2791 H         1 <0>         0.1073
     54 H16         7.2082    3.9988    1.1607 H         1 <0>         0.1358
     55 H17         5.5933    2.5489    0.0003 H         1 <0>         0.1466
     56 H18         8.5625   -0.5152   -0.2838 H         1 <0>         0.1447
     57 H19         6.3979   -0.5903   -1.6569 H         1 <0>         0.4387
     58 H20         4.1917   -1.2745   -2.0166 H         1 <0>         0.4355
     59 H21         1.8775   -0.6959   -2.9771 H         1 <0>         0.1334
     60 H22        -0.5220   -0.4960   -2.4689 H         1 <0>         0.1303
     61 H23         0.3932   -0.0371    1.6801 H         1 <0>         0.1327
     62 H24         2.7931   -0.2369    1.1740 H         1 <0>         0.1442
     63 H25        -4.1646   -0.2205    0.1982 H         1 <0>         0.1466
     64 H26        -2.0315   -4.4515   -0.8058 H         1 <0>         0.2000
     65 H27        -6.4030   -3.2246   -0.1053 H         1 <0>         0.4376
     66 H28        -7.5762   -1.2091    0.3856 H         1 <0>         0.0864
     67 H29        -6.3028   -0.3146   -0.5117 H         1 <0>         0.0603
     68 H30        -6.1096   -0.6302    1.2461 H         1 <0>         0.0599
     69 H31         9.7882    4.4332    6.0188 H         1 <0>         0.4364
@<TRIPOS>BOND
     1    1    2 1
     2    1   39 1
     3    1   40 1
     4    1   41 1
     5    2    3 1
     6    2   42 1
     7    2   43 1
     8    3    8 1
     9    3    4 1
    10    3   69 1
    11    4    5 1
    12    4   44 1
    13    4   45 1
    14    5    6 1
    15    5   46 1
    16    5   47 1
    17    6    7 1
    18    6    9 1
    19    7    8 1
    20    7   48 1
    21    7   49 1
    22    8   50 1
    23    8   51 1
    24    9   10 1
    25    9   52 1
    26    9   53 1
    27   10   15 ar
    28   10   11 ar
    29   11   12 ar
    30   11   54 1
    31   12   13 ar
    32   12   55 1
    33   13   14 ar
    34   13   20 1
    35   14   15 ar
    36   14   56 1
    37   15   16 1
    38   16   17 1
    39   16   18 1
    40   16   19 1
    41   20   21 am
    42   20   57 1
    43   21   22 2
    44   21   23 am
    45   23   24 1
    46   23   58 1
    47   24   29 ar
    48   24   25 ar
    49   25   26 ar
    50   25   59 1
    51   26   27 ar
    52   26   60 1
    53   27   28 ar
    54   27   30 1
    55   28   29 ar
    56   28   61 1
    57   29   62 1
    58   30   31 1
    59   31   36 ar
    60   31   32 ar
    61   32   33 ar
    62   32   63 1
    63   33   34 ar
    64   33   37 1
    65   34   35 ar
    66   35   36 ar
    67   35   64 1
    68   37   38 1
    69   37   65 1
    70   38   66 1
    71   38   67 1
    72   38   68 1
@<TRIPOS>MOLECULE
ZINC23247639
   69    72     0     0     0
SMALL
USER_CHARGES
1-[4-[(4-ethylpiperazin-1-yl)methyl]-3-(trifluoromethyl)phenyl]-3-[4-(6-methylaminopyrimidin-4-yl)oxyphenyl]urea
@<TRIPOS>ATOM
      1 C1          8.9417    3.3719    8.2172 C.3       1 <0>        -0.1569
      2 C2         10.1498    2.9102    7.3997 C.3       1 <0>         0.0486
      3 N1          9.9972    3.3533    6.0075 N.3       1 <0>        -0.5379
      4 C3         11.2367    3.1387    5.2477 C.3       1 <0>         0.0250
      5 C4         11.0629    3.6845    3.8284 C.3       1 <0>         0.0004
      6 N2          9.9288    3.0094    3.1822 N.4       1 <0>        -0.4202
      7 C5          8.6893    3.2240    3.9420 C.3       1 <0>        -0.0009
      8 C6          8.8631    2.6781    5.3612 C.3       1 <0>         0.0222
      9 C7          9.7762    3.4524    1.7899 C.3       1 <0>         0.0266
     10 C8          8.7879    2.5601    1.0842 C.ar      1 <0>        -0.1272
     11 C9          7.5022    3.0092    0.8434 C.ar      1 <0>        -0.0630
     12 C10         6.5958    2.1959    0.1923 C.ar      1 <0>        -0.0846
     13 C11         6.9731    0.9214   -0.2106 C.ar      1 <0>         0.2154
     14 C12         8.2646    0.4735    0.0326 C.ar      1 <0>        -0.0955
     15 C13         9.1683    1.2940    0.6793 C.ar      1 <0>        -0.1507
     16 C14        10.5702    0.8086    0.9441 C.3       1 <0>         0.5109
     17 F1         10.7250   -0.4786    0.4184 F         1 <0>        -0.1491
     18 F2         11.4860    1.6739    0.3362 F         1 <0>        -0.1584
     19 F3         10.8008    0.7797    2.3237 F         1 <0>        -0.1724
     20 N3          6.0552    0.0926   -0.8655 N.am      1 <0>        -0.6988
     21 C15         4.7513    0.1311   -0.5266 C.2       1 <0>         0.7114
     22 O1          4.3858    0.8194    0.4067 O.2       1 <0>        -0.5584
     23 N4          3.8526   -0.5934   -1.2222 N.am      1 <0>        -0.6858
     24 C16         2.4863   -0.4790   -0.9335 C.ar      1 <0>         0.1577
     25 C17         1.5516   -0.5518   -1.9576 C.ar      1 <0>        -0.1240
     26 C18         0.2052   -0.4394   -1.6724 C.ar      1 <0>        -0.0926
     27 C19        -0.2137   -0.2543   -0.3628 C.ar      1 <0>         0.0883
     28 C20         0.7198   -0.1815    0.6609 C.ar      1 <0>        -0.0957
     29 C21         2.0665   -0.2932    0.3769 C.ar      1 <0>        -0.1046
     30 O2         -1.5393   -0.1385   -0.0833 O.3       1 <0>        -0.2426
     31 C22        -2.3129   -1.2454   -0.1983 C.ar      1 <0>         0.3832
     32 C23        -3.6894   -1.1637   -0.0277 C.ar      1 <0>        -0.3126
     33 C24        -4.4409   -2.3284   -0.1601 C.ar      1 <0>         0.4635
     34 N5         -3.8165   -3.4721   -0.4341 N.ar      1 <0>        -0.5931
     35 C25        -2.5082   -3.5081   -0.5840 C.ar      1 <0>         0.3762
     36 N6         -1.7644   -2.4263   -0.4707 N.ar      1 <0>        -0.6049
     37 N7         -5.8178   -2.2988   -0.0034 N.pl3     1 <0>        -0.7212
     38 C26        -6.4937   -1.0344    0.2979 C.3       1 <0>         0.0887
     39 H1          9.0560    3.0401    9.2597 H         1 <0>         0.0714
     40 H2          8.0243    2.9380    7.7928 H         1 <0>         0.0562
     41 H3          8.8763    4.4695    8.1868 H         1 <0>         0.0696
     42 H4         11.0672    3.3441    7.8241 H         1 <0>         0.0895
     43 H5         10.2153    1.8126    7.4301 H         1 <0>         0.0455
     44 H6         12.0665    3.6630    5.7442 H         1 <0>         0.1253
     45 H7         11.4577    2.0621    5.2031 H         1 <0>         0.0582
     46 H8         10.8699    4.7665    3.8728 H         1 <0>         0.1369
     47 H9         11.9796    3.4990    3.2494 H         1 <0>         0.1329
     48 H10         8.4684    4.3007    3.9867 H         1 <0>         0.1355
     49 H11         7.8594    2.6998    3.4455 H         1 <0>         0.1312
     50 H12         9.0569    1.5962    5.3178 H         1 <0>         0.0572
     51 H13         7.9470    2.8635    5.9412 H         1 <0>         0.1266
     52 H14         9.4106    4.4897    1.7732 H         1 <0>         0.1472
     53 H15        10.7489    3.3982    1.2791 H         1 <0>         0.1420
     54 H16         7.2082    3.9988    1.1607 H         1 <0>         0.1512
     55 H17         5.5933    2.5489    0.0003 H         1 <0>         0.1583
     56 H18         8.5625   -0.5152   -0.2838 H         1 <0>         0.1556
     57 H19         6.3979   -0.5903   -1.6569 H         1 <0>         0.4440
     58 H20         4.1917   -1.2745   -2.0166 H         1 <0>         0.4371
     59 H21         1.8775   -0.6959   -2.9771 H         1 <0>         0.1338
     60 H22        -0.5220   -0.4960   -2.4689 H         1 <0>         0.1313
     61 H23         0.3932   -0.0371    1.6801 H         1 <0>         0.1341
     62 H24         2.7931   -0.2369    1.1740 H         1 <0>         0.1440
     63 H25        -4.1646   -0.2205    0.1982 H         1 <0>         0.1470
     64 H26        -2.0315   -4.4515   -0.8058 H         1 <0>         0.2001
     65 H27        -6.4030   -3.2246   -0.1053 H         1 <0>         0.4380
     66 H28        -7.5762   -1.2091    0.3856 H         1 <0>         0.0868
     67 H29        -6.3028   -0.3146   -0.5117 H         1 <0>         0.0604
     68 H30        -6.1096   -0.6302    1.2461 H         1 <0>         0.0603
     69 H31        10.1379    1.9295    3.1711 H         1 <0>         0.4253
@<TRIPOS>BOND
     1    1    2 1
     2    1   39 1
     3    1   40 1
     4    1   41 1
     5    2    3 1
     6    2   42 1
     7    2   43 1
     8    3    8 1
     9    3    4 1
    10    4    5 1
    11    4   44 1
    12    4   45 1
    13    5    6 1
    14    5   46 1
    15    5   47 1
    16    6    7 1
    17    6    9 1
    18    6   69 1
    19    7    8 1
    20    7   48 1
    21    7   49 1
    22    8   50 1
    23    8   51 1
    24    9   10 1
    25    9   52 1
    26    9   53 1
    27   10   15 ar
    28   10   11 ar
    29   11   12 ar
    30   11   54 1
    31   12   13 ar
    32   12   55 1
    33   13   14 ar
    34   13   20 1
    35   14   15 ar
    36   14   56 1
    37   15   16 1
    38   16   17 1
    39   16   18 1
    40   16   19 1
    41   20   21 am
    42   20   57 1
    43   21   22 2
    44   21   23 am
    45   23   24 1
    46   23   58 1
    47   24   29 ar
    48   24   25 ar
    49   25   26 ar
    50   25   59 1
    51   26   27 ar
    52   26   60 1
    53   27   28 ar
    54   27   30 1
    55   28   29 ar
    56   28   61 1
    57   29   62 1
    58   30   31 1
    59   31   36 ar
    60   31   32 ar
    61   32   33 ar
    62   32   63 1
    63   33   34 ar
    64   33   37 1
    65   34   35 ar
    66   35   36 ar
    67   35   64 1
    68   37   38 1
    69   37   65 1
    70   38   66 1
    71   38   67 1
    72   38   68 1
@<TRIPOS>MOLECULE
ZINC23247639
   68    71     0     0     0
SMALL
USER_CHARGES
1-[4-[(4-ethylpiperazin-1-yl)methyl]-3-(trifluoromethyl)phenyl]-3-[4-(6-methylaminopyrimidin-4-yl)oxyphenyl]urea
@<TRIPOS>ATOM
      1 C1          8.9417    3.3719    8.2172 C.3       1 <0>        -0.1510
      2 C2         10.1498    2.9102    7.3997 C.3       1 <0>         0.0499
      3 N1          9.9972    3.3533    6.0075 N.3       1 <0>        -0.5402
      4 C3         11.2367    3.1387    5.2477 C.3       1 <0>         0.0569
      5 C4         11.0629    3.6845    3.8284 C.3       1 <0>         0.0590
      6 N2          9.9288    3.0094    3.1822 N.3       1 <0>        -0.5268
      7 C5          8.6893    3.2240    3.9420 C.3       1 <0>         0.0561
      8 C6          8.8631    2.6781    5.3612 C.3       1 <0>         0.0550
      9 C7          9.7762    3.4524    1.7899 C.3       1 <0>         0.0729
     10 C8          8.7879    2.5601    1.0842 C.ar      1 <0>        -0.0447
     11 C9          7.5022    3.0092    0.8434 C.ar      1 <0>        -0.0942
     12 C10         6.5958    2.1959    0.1923 C.ar      1 <0>        -0.0884
     13 C11         6.9731    0.9214   -0.2106 C.ar      1 <0>         0.1720
     14 C12         8.2646    0.4735    0.0326 C.ar      1 <0>        -0.1038
     15 C13         9.1683    1.2940    0.6793 C.ar      1 <0>        -0.1404
     16 C14        10.5702    0.8086    0.9441 C.3       1 <0>         0.5095
     17 F1         10.7250   -0.4786    0.4184 F         1 <0>        -0.1841
     18 F2         11.4860    1.6739    0.3362 F         1 <0>        -0.1795
     19 F3         10.8008    0.7797    2.3237 F         1 <0>        -0.1519
     20 N3          6.0552    0.0926   -0.8655 N.am      1 <0>        -0.6948
     21 C15         4.7513    0.1311   -0.5266 C.2       1 <0>         0.7096
     22 O1          4.3858    0.8194    0.4067 O.2       1 <0>        -0.5587
     23 N4          3.8526   -0.5934   -1.2222 N.am      1 <0>        -0.6930
     24 C16         2.4863   -0.4790   -0.9335 C.ar      1 <0>         0.1697
     25 C17         1.5516   -0.5518   -1.9576 C.ar      1 <0>        -0.1297
     26 C18         0.2052   -0.4394   -1.6724 C.ar      1 <0>        -0.0930
     27 C19        -0.2137   -0.2543   -0.3628 C.ar      1 <0>         0.0783
     28 C20         0.7198   -0.1815    0.6609 C.ar      1 <0>        -0.0936
     29 C21         2.0665   -0.2932    0.3769 C.ar      1 <0>        -0.1059
     30 O2         -1.5393   -0.1385   -0.0833 O.3       1 <0>        -0.2412
     31 C22        -2.3129   -1.2454   -0.1983 C.ar      1 <0>         0.3851
     32 C23        -3.6894   -1.1637   -0.0277 C.ar      1 <0>        -0.3141
     33 C24        -4.4409   -2.3284   -0.1601 C.ar      1 <0>         0.4620
     34 N5         -3.8165   -3.4721   -0.4341 N.ar      1 <0>        -0.5954
     35 C25        -2.5082   -3.5081   -0.5840 C.ar      1 <0>         0.3753
     36 N6         -1.7644   -2.4263   -0.4707 N.ar      1 <0>        -0.6017
     37 N7         -5.8178   -2.2988   -0.0034 N.pl3     1 <0>        -0.7231
     38 C26        -6.4937   -1.0344    0.2979 C.3       1 <0>         0.0898
     39 H1          9.0560    3.0401    9.2597 H         1 <0>         0.0595
     40 H2          8.0243    2.9380    7.7928 H         1 <0>         0.0547
     41 H3          8.8763    4.4695    8.1868 H         1 <0>         0.0631
     42 H4         11.0672    3.3441    7.8241 H         1 <0>         0.0746
     43 H5         10.2153    1.8126    7.4301 H         1 <0>         0.0335
     44 H6         12.0665    3.6630    5.7442 H         1 <0>         0.0800
     45 H7         11.4577    2.0621    5.2031 H         1 <0>         0.0441
     46 H8         10.8699    4.7665    3.8728 H         1 <0>         0.0445
     47 H9         11.9796    3.4990    3.2494 H         1 <0>         0.0809
     48 H10         8.4684    4.3007    3.9867 H         1 <0>         0.0435
     49 H11         7.8594    2.6998    3.4455 H         1 <0>         0.0808
     50 H12         9.0569    1.5962    5.3178 H         1 <0>         0.0425
     51 H13         7.9470    2.8635    5.9412 H         1 <0>         0.0819
     52 H14         9.4106    4.4897    1.7732 H         1 <0>         0.0550
     53 H15        10.7489    3.3982    1.2791 H         1 <0>         0.0962
     54 H16         7.2082    3.9988    1.1607 H         1 <0>         0.1355
     55 H17         5.5933    2.5489    0.0003 H         1 <0>         0.1427
     56 H18         8.5625   -0.5152   -0.2838 H         1 <0>         0.1409
     57 H19         6.3979   -0.5903   -1.6569 H         1 <0>         0.4343
     58 H20         4.1917   -1.2745   -2.0166 H         1 <0>         0.4332
     59 H21         1.8775   -0.6959   -2.9771 H         1 <0>         0.1323
     60 H22        -0.5220   -0.4960   -2.4689 H         1 <0>         0.1282
     61 H23         0.3932   -0.0371    1.6801 H         1 <0>         0.1328
     62 H24         2.7931   -0.2369    1.1740 H         1 <0>         0.1466
     63 H25        -4.1646   -0.2205    0.1982 H         1 <0>         0.1463
     64 H26        -2.0315   -4.4515   -0.8058 H         1 <0>         0.1996
     65 H27        -6.4030   -3.2246   -0.1053 H         1 <0>         0.4362
     66 H28        -7.5762   -1.2091    0.3856 H         1 <0>         0.0851
     67 H29        -6.3028   -0.3146   -0.5117 H         1 <0>         0.0598
     68 H30        -6.1096   -0.6302    1.2461 H         1 <0>         0.0599
@<TRIPOS>BOND
     1    1    2 1
     2    1   39 1
     3    1   40 1
     4    1   41 1
     5    2    3 1
     6    2   42 1
     7    2   43 1
     8    3    8 1
     9    3    4 1
    10    4    5 1
    11    4   44 1
    12    4   45 1
    13    5    6 1
    14    5   46 1
    15    5   47 1
    16    6    7 1
    17    6    9 1
    18    7    8 1
    19    7   48 1
    20    7   49 1
    21    8   50 1
    22    8   51 1
    23    9   10 1
    24    9   52 1
    25    9   53 1
    26   10   15 ar
    27   10   11 ar
    28   11   12 ar
    29   11   54 1
    30   12   13 ar
    31   12   55 1
    32   13   14 ar
    33   13   20 1
    34   14   15 ar
    35   14   56 1
    36   15   16 1
    37   16   17 1
    38   16   18 1
    39   16   19 1
    40   20   21 am
    41   20   57 1
    42   21   22 2
    43   21   23 am
    44   23   24 1
    45   23   58 1
    46   24   29 ar
    47   24   25 ar
    48   25   26 ar
    49   25   59 1
    50   26   27 ar
    51   26   60 1
    52   27   28 ar
    53   27   30 1
    54   28   29 ar
    55   28   61 1
    56   29   62 1
    57   30   31 1
    58   31   36 ar
    59   31   32 ar
    60   32   33 ar
    61   32   63 1
    62   33   34 ar
    63   33   37 1
    64   34   35 ar
    65   35   36 ar
    66   35   64 1
    67   37   38 1
    68   37   65 1
    69   38   66 1
    70   38   67 1
    71   38   68 1
@<TRIPOS>MOLECULE
ZINC00602803
   57    59     0     0     0
SMALL
USER_CHARGES

@<TRIPOS>ATOM
      1 C1         -1.3402   -4.8618    1.2145 C.3       1 <0>        -0.1534
      2 C2         -0.8181   -3.6495    0.4408 C.3       1 <0>         0.0511
      3 O1         -0.7742   -2.5142    1.3074 O.3       1 <0>        -0.3148
      4 C3         -0.3304   -1.3470    0.7727 C.ar      1 <0>         0.1525
      5 C4          0.0498   -1.3049   -0.5488 C.ar      1 <0>        -0.1831
      6 C5          0.5092   -0.1023   -1.1071 C.ar      1 <0>         0.1876
      7 C6          0.5748    1.0570   -0.2965 C.ar      1 <0>        -0.1304
      8 C7          0.1883    0.9932    1.0499 C.ar      1 <0>        -0.0592
      9 C8         -0.2650   -0.1967    1.5740 C.ar      1 <0>         0.1185
     10 N1         -0.6575   -0.2608    2.9161 N.am      1 <0>        -0.6449
     11 C9         -0.1566    0.6173    3.8075 C.2       1 <0>         0.5328
     12 O2          0.7152    1.3957    3.4703 O.2       1 <0>        -0.5071
     13 C10        -0.6641    0.6344    5.1877 C.2       1 <0>        -0.1271
     14 C11        -0.1697    1.5011    6.0673 C.2       1 <0>        -0.1492
     15 C12        -0.6897    1.5186    7.4817 C.3       1 <0>         0.0302
     16 C13         1.3312    2.5206    8.3617 C.3       1 <0>        -0.0486
     17 C14        -0.0528    1.1357    9.7861 C.3       1 <0>        -0.0433
     18 C15         1.0386    2.2666   -0.8642 C.ar      1 <0>         0.2844
     19 C16         1.4144    2.2536   -2.2161 C.ar      1 <0>        -0.1029
     20 C17         1.3165    1.0573   -2.9447 C.ar      1 <0>         0.2010
     21 N2          0.8834   -0.0478   -2.3940 N.ar      1 <0>        -0.4743
     22 C18         1.8922    3.4476   -2.8459 C.1       1 <0>         0.2469
     23 N3          2.2712    4.3948   -3.3456 N.1       1 <0>        -0.3851
     24 N4          1.1194    3.4219   -0.1130 N.pl3     1 <0>        -0.6979
     25 C19         2.3677    3.9814    0.1773 C.ar      1 <0>         0.1846
     26 C20         3.4715    3.1592    0.3659 C.ar      1 <0>        -0.1231
     27 C21         4.7048    3.7137    0.6463 C.ar      1 <0>        -0.1069
     28 C22         4.8398    5.0877    0.7520 C.ar      1 <0>         0.0844
     29 C23         3.7394    5.9099    0.5700 C.ar      1 <0>        -0.0407
     30 C24         2.5044    5.3592    0.2831 C.ar      1 <0>        -0.1222
     31 Cl1         3.9119    7.6322    0.7020 Cl        1 <0>        -0.0373
     32 F1          6.0462    5.6274    1.0324 F         1 <0>        -0.1244
     33 H1         -2.3423   -4.6506    1.5877 H         1 <0>         0.0676
     34 H2         -1.3737   -5.7279    0.5535 H         1 <0>         0.0859
     35 H3         -0.6765   -5.0706    2.0536 H         1 <0>         0.0665
     36 H4         -1.4818   -3.4407   -0.3983 H         1 <0>         0.0727
     37 H5          0.1840   -3.8607    0.0676 H         1 <0>         0.0719
     38 H6         -0.0049   -2.1965   -1.1558 H         1 <0>         0.1557
     39 H7          0.2375    1.8756    1.6707 H         1 <0>         0.1646
     40 H8         -1.2900   -0.9373    3.2047 H         1 <0>         0.4221
     41 H9         -1.4381   -0.0567    5.4870 H         1 <0>         0.1454
     42 H10         0.6043    2.1922    5.7680 H         1 <0>         0.1533
     43 H11        -1.1915    2.4672    7.6726 H         1 <0>         0.1468
     44 H12        -1.3959    0.6999    7.6193 H         1 <0>         0.1366
     45 H13         0.7789    3.4221    8.6269 H         1 <0>         0.1257
     46 H14         2.1523    2.3777    9.0642 H         1 <0>         0.1250
     47 H15         1.7302    2.6227    7.3524 H         1 <0>         0.1232
     48 H16        -0.6601    0.2309    9.8124 H         1 <0>         0.1226
     49 H17         0.7976    1.0222   10.4584 H         1 <0>         0.1252
     50 H18        -0.6553    1.9870   10.1029 H         1 <0>         0.1250
     51 H19         1.6056    1.0492   -3.9853 H         1 <0>         0.1765
     52 H20         0.3102    3.8456    0.2136 H         1 <0>         0.4201
     53 H21         3.3660    2.0871    0.2888 H         1 <0>         0.1375
     54 H22         5.5639    3.0747    0.7881 H         1 <0>         0.1500
     55 H23         1.6466    6.0000    0.1416 H         1 <0>         0.1457
     56 N5          0.4465    1.3376    8.4096 N.4       1 <0>        -0.3970
     57 H24         0.9816    0.5092    8.1241 H         1 <0>         0.4334
@<TRIPOS>BOND
     1    1    2 1
     2    1   33 1
     3    1   34 1
     4    1   35 1
     5    2    3 1
     6    2   36 1
     7    2   37 1
     8    3    4 1
     9    4    9 ar
    10    4    5 ar
    11    5    6 ar
    12    5   38 1
    13    6   21 ar
    14    6    7 ar
    15    7    8 ar
    16    7   18 ar
    17    8    9 ar
    18    8   39 1
    19    9   10 1
    20   10   11 am
    21   10   40 1
    22   11   12 2
    23   11   13 1
    24   13   14 2
    25   13   41 1
    26   14   15 1
    27   14   42 1
    28   15   43 1
    29   15   44 1
    30   15   56 1
    31   16   45 1
    32   16   46 1
    33   16   47 1
    34   16   56 1
    35   17   48 1
    36   17   49 1
    37   17   50 1
    38   17   56 1
    39   18   19 ar
    40   18   24 1
    41   19   20 ar
    42   19   22 1
    43   20   21 ar
    44   20   51 1
    45   22   23 3
    46   24   25 1
    47   24   52 1
    48   25   30 ar
    49   25   26 ar
    50   26   27 ar
    51   26   53 1
    52   27   28 ar
    53   27   54 1
    54   28   29 ar
    55   28   32 1
    56   29   30 ar
    57   29   31 1
    58   30   55 1
    59   56   57 1
@<TRIPOS>MOLECULE
ZINC03902902
   28    30     0     0     0
SMALL
USER_CHARGES

@<TRIPOS>ATOM
      1 C1          0.2301    1.0220    2.2243 C.ar      1 <0>        -0.1012
      2 C2          1.4146    1.7367    2.2153 C.ar      1 <0>        -0.1012
      3 C3          2.5844    1.1482    1.7706 C.ar      1 <0>        -0.0722
      4 C4          2.5725   -0.1721    1.3286 C.ar      1 <0>        -0.1154
      5 C5          1.3687   -0.8986    1.3379 C.ar      1 <0>        -0.1153
      6 C6          0.2002   -0.2904    1.7889 C.ar      1 <0>        -0.0722
      7 C7          1.3471   -2.3006    0.8710 C.2       1 <0>         0.4426
      8 O1          0.3060   -2.9293    0.8786 O.2       1 <0>        -0.4549
      9 C8          2.5869   -2.9340    0.3968 C.ar      1 <0>        -0.1748
     10 C9          2.5792   -4.2601   -0.0483 C.ar      1 <0>         0.2283
     11 C10         3.7643   -4.8502   -0.4969 C.ar      1 <0>        -0.1184
     12 C11         4.9322   -4.1453   -0.5057 C.ar      1 <0>        -0.1184
     13 C12         4.9672   -2.8188   -0.0663 C.ar      1 <0>         0.2283
     14 C13         3.7951   -2.2048    0.3876 C.ar      1 <0>        -0.1749
     15 C14         3.8174   -0.8091    0.8507 C.2       1 <0>         0.4426
     16 O2          4.8588   -0.1810    0.8423 O.2       1 <0>        -0.4549
     17 N1          6.1607   -2.1135   -0.0799 N.pl3     1 <0>        -0.8598
     18 N2          1.3989   -4.9877   -0.0440 N.pl3     1 <0>        -0.8599
     19 H1         -0.6764    1.4906    2.5780 H         1 <0>         0.1369
     20 H2          1.4257    2.7611    2.5573 H         1 <0>         0.1369
     21 H3          3.5056    1.7119    1.7658 H         1 <0>         0.1423
     22 H4         -0.7280   -0.8424    1.7983 H         1 <0>         0.1423
     23 H5          3.7553   -5.8743   -0.8396 H         1 <0>         0.1370
     24 H6          5.8387   -4.6169   -0.8553 H         1 <0>         0.1370
     25 H7          6.8694   -2.3710   -0.6902 H         1 <0>         0.3974
     26 H8          6.2872   -1.3625    0.5209 H         1 <0>         0.4122
     27 H9          1.2902   -5.7391   -0.6477 H         1 <0>         0.3974
     28 H10         0.6820   -4.7454    0.5628 H         1 <0>         0.4122
@<TRIPOS>BOND
     1    1    6 ar
     2    1    2 ar
     3    1   19 1
     4    2    3 ar
     5    2   20 1
     6    3    4 ar
     7    3   21 1
     8    4   15 1
     9    4    5 ar
    10    5    6 ar
    11    5    7 1
    12    6   22 1
    13    7    8 2
    14    7    9 1
    15    9   14 ar
    16    9   10 ar
    17   10   11 ar
    18   10   18 1
    19   11   12 ar
    20   11   23 1
    21   12   13 ar
    22   12   24 1
    23   13   14 ar
    24   13   17 1
    25   14   15 1
    26   15   16 2
    27   17   25 1
    28   17   26 1
    29   18   27 1
    30   18   28 1
@<TRIPOS>MOLECULE
ZINC03860170
   27    29     0     0     0
SMALL
USER_CHARGES

@<TRIPOS>ATOM
      1 C1         -0.0169    1.3791   -0.0194 C.ar      1 <0>        -0.1005
      2 C2          1.1660    2.0962   -0.0268 C.ar      1 <0>        -0.0984
      3 C3          2.3832    1.4393   -0.0363 C.ar      1 <0>        -0.0708
      4 C4          2.4205    0.0475   -0.0384 C.ar      1 <0>        -0.1172
      5 C5          1.2182   -0.6813   -0.0309 C.ar      1 <0>        -0.1185
      6 C6          0.0019   -0.0040   -0.0214 C.ar      1 <0>        -0.0700
      7 C7          1.2486   -2.1590   -0.0342 C.2       1 <0>         0.4459
      8 O1          0.2088   -2.7895   -0.0279 O.2       1 <0>        -0.4518
      9 C8          2.5389   -2.8660   -0.0455 C.ar      1 <0>        -0.1995
     10 C9          2.5779   -4.2647   -0.0494 C.ar      1 <0>         0.2630
     11 C10         3.8088   -4.9254   -0.0606 C.ar      1 <0>        -0.1534
     12 C11         4.9838   -4.2108   -0.0674 C.ar      1 <0>        -0.0774
     13 C12         4.9649   -2.8160   -0.0632 C.ar      1 <0>         0.1092
     14 C13         3.7453   -2.1356   -0.0530 C.ar      1 <0>        -0.1061
     15 C14         3.7162   -0.6631   -0.0490 C.2       1 <0>         0.4304
     16 O2          4.7563   -0.0333   -0.0553 O.2       1 <0>        -0.4132
     17 O3          6.1295   -2.1213   -0.0691 O.3       1 <0>        -0.4755
     18 N1          1.3980   -4.9930   -0.0417 N.pl3     1 <0>        -0.8543
     19 H1         -0.9615    1.9027   -0.0075 H         1 <0>         0.1380
     20 H2          1.1390    3.1758   -0.0255 H         1 <0>         0.1384
     21 H3          3.3032    2.0051   -0.0423 H         1 <0>         0.1438
     22 H4         -0.9255   -0.5575   -0.0153 H         1 <0>         0.1430
     23 H5          3.8379   -6.0050   -0.0636 H         1 <0>         0.1415
     24 H6          5.9288   -4.7336   -0.0757 H         1 <0>         0.1448
     25 H7          6.4613   -1.9173   -0.9542 H         1 <0>         0.3926
     26 H8          0.5817   -4.5976   -0.3855 H         1 <0>         0.4147
     27 H9          1.3889   -5.8979    0.3075 H         1 <0>         0.4013
@<TRIPOS>BOND
     1    1    6 ar
     2    1    2 ar
     3    1   19 1
     4    2    3 ar
     5    2   20 1
     6    3    4 ar
     7    3   21 1
     8    4   15 1
     9    4    5 ar
    10    5    6 ar
    11    5    7 1
    12    6   22 1
    13    7    8 2
    14    7    9 1
    15    9   14 ar
    16    9   10 ar
    17   10   11 ar
    18   10   18 1
    19   11   12 ar
    20   11   23 1
    21   12   13 ar
    22   12   24 1
    23   13   14 ar
    24   13   17 1
    25   14   15 1
    26   15   16 2
    27   17   25 1
    28   18   26 1
    29   18   27 1
