@<TRIPOS>MOLECULE
ZINC29056374
   22    22     0     0     0
SMALL
USER_CHARGES
5-bromo-2,2-dimethyl-5-nitro-1,3-dioxane
@<TRIPOS>ATOM
      1 C1         -0.0127    1.0858    0.0080 C.3       1 <0>        -0.1311
      2 C2         -0.7288    1.5792    1.2668 C.3       1 <0>         0.2521
      3 O1         -0.7482    3.0088    1.2747 O.3       1 <0>        -0.3494
      4 C3         -1.3758    3.5707    2.4314 C.3       1 <0>         0.0618
      5 C4         -0.6486    3.0705    3.6843 C.3       1 <0>        -0.0280
      6 C5         -0.6167    1.5385    3.6598 C.3       1 <0>         0.0624
      7 O2         -0.0374    1.1056    2.4251 O.3       1 <0>        -0.3488
      8 N1         -1.3605    3.5276    4.8804 N.pl3     1 <0>        -0.0141
      9 O3         -0.7906    4.2275    5.6981 O.2       1 <0>        -0.1103
     10 O4         -2.5224    3.2076    5.0570 O.3       1 <0>        -0.1412
     11 Br1         1.1897    3.7674    3.7014 Br        1 <0>        -0.0051
     12 C6         -2.1642    1.0497    1.2777 C.3       1 <0>        -0.2150
     13 H1         -0.5447    1.4502   -0.8831 H         1 <0>         0.0888
     14 H2          0.0022   -0.0141    0.0019 H         1 <0>         0.0888
     15 H3          1.0193    1.4665    0.0002 H         1 <0>         0.0797
     16 H4         -1.3194    4.6682    2.3824 H         1 <0>         0.1290
     17 H5         -2.4301    3.2588    2.4645 H         1 <0>         0.1029
     18 H6         -0.0128    1.1708    4.5025 H         1 <0>         0.1290
     19 H7         -1.6418    1.1490    3.7459 H         1 <0>         0.1027
     20 H8         -2.6790    1.4045    2.1828 H         1 <0>         0.0667
     21 H9         -2.1493   -0.0502    1.2716 H         1 <0>         0.0896
     22 H10        -2.6962    1.4141    0.3866 H         1 <0>         0.0896
@<TRIPOS>BOND
     1    1    2 1
     2    1   13 1
     3    1   14 1
     4    1   15 1
     5    2    7 1
     6    2    3 1
     7    2   12 1
     8    3    4 1
     9    4    5 1
    10    4   16 1
    11    4   17 1
    12    5    6 1
    13    5    8 1
    14    5   11 1
    15    6    7 1
    16    6   18 1
    17    6   19 1
    18    8    9 2
    19    8   10 1
    20   12   20 1
    21   12   21 1
    22   12   22 1
