@<TRIPOS>MOLECULE
ZINC43102258
   74    77     0     0     0
SMALL
USER_CHARGES

@<TRIPOS>ATOM
      1 C1         -0.0167    1.3781    0.0096 C.ar      1 <0>        -0.1174
      2 C2          1.1709    2.0855    0.0021 C.ar      1 <0>        -0.1177
      3 C3          2.3773    1.4107   -0.0130 C.ar      1 <0>        -0.1137
      4 C4          2.3960    0.0285   -0.0201 C.ar      1 <0>        -0.0869
      5 C5          1.2084   -0.6789   -0.0117 C.ar      1 <0>        -0.1123
      6 C6          0.0021   -0.0041    0.0020 C.ar      1 <0>        -0.1132
      7 C7          3.7112   -0.7071   -0.0376 C.3       1 <0>        -0.0842
      8 C8          4.1714   -0.9633    1.3989 C.3       1 <0>         0.1373
      9 H1          3.3868   -1.4885    1.9436 H         1 <0>         0.1172
     10 C9          5.4216   -1.8045    1.3834 C.2       1 <0>         0.5086
     11 O1          6.4455   -1.3782    1.8741 O.2       1 <0>        -0.5322
     12 N1          5.4019   -3.0307    0.8243 N.am      1 <0>        -0.8519
     13 N2          4.4511    0.3151    2.0574 N.am      1 <0>        -0.7068
     14 C10         4.3778    0.4121    3.3997 C.2       1 <0>         0.5080
     15 O2          4.0803   -0.5591    4.0624 O.2       1 <0>        -0.4956
     16 C11         4.6656    1.7271    4.0770 C.3       1 <0>         0.1420
     17 H2          4.2329    2.5392    3.4926 H         1 <0>         0.1087
     18 C12         6.1789    1.9255    4.1836 C.3       1 <0>        -0.1309
     19 C13         6.4722    3.3134    4.7570 C.3       1 <0>        -0.1278
     20 C14         7.9856    3.5118    4.8635 C.3       1 <0>         0.0928
     21 N3          8.2664    4.8406    5.4126 N.pl3     1 <0>        -0.6929
     22 C15         9.5600    5.2440    5.5994 C.cat     1 <0>         0.7410
     23 N4          9.8153    6.4522    6.0986 N.pl3     1 <0>        -0.7959
     24 N5         10.5643    4.4287    5.2822 N.pl3     1 <0>        -0.7928
     25 N6          4.0778    1.7242    5.4189 N.am      1 <0>        -0.7253
     26 C16         4.4644    0.8014    6.3219 C.2       1 <0>         0.5305
     27 O3          5.2988   -0.0266    6.0236 O.2       1 <0>        -0.4995
     28 C17         3.8597    0.7983    7.7023 C.3       1 <0>        -0.0663
     29 C18         2.3464    0.5999    7.5958 C.3       1 <0>        -0.0975
     30 C19         1.7325    0.5969    8.9972 C.3       1 <0>        -0.0853
     31 C20         2.3398   -0.5430    9.8175 C.3       1 <0>        -0.1119
     32 C21         3.8531   -0.3446    9.9241 C.3       1 <0>        -0.0879
     33 C22         4.4670   -0.3415    8.5226 C.3       1 <0>        -0.0852
     34 C23         4.1453    0.9906   10.6117 C.3       1 <0>        -0.1098
     35 C24         3.5380    2.1304    9.7914 C.3       1 <0>        -0.0840
     36 C25         2.0246    1.9320    9.6849 C.3       1 <0>        -0.1100
     37 C26         4.1519    2.1335    8.3900 C.3       1 <0>        -0.0948
     38 H3         -0.9591    1.9053    0.0259 H         1 <0>         0.1233
     39 H4          1.1563    3.1654    0.0076 H         1 <0>         0.1222
     40 H5          3.3051    1.9634   -0.0196 H         1 <0>         0.1169
     41 H6          1.2231   -1.7588   -0.0176 H         1 <0>         0.1235
     42 H7         -0.9258   -0.5567    0.0082 H         1 <0>         0.1249
     43 H8          3.5884   -1.6586   -0.5549 H         1 <0>         0.0958
     44 H9          4.4573   -0.1052   -0.5563 H         1 <0>         0.0867
     45 H10         4.5830   -3.3717    0.4319 H         1 <0>         0.4024
     46 H11         6.2067   -3.5722    0.8143 H         1 <0>         0.4054
     47 H12         4.6891    1.0919    1.5273 H         1 <0>         0.3998
     48 H13         6.5997    1.1645    4.8407 H         1 <0>         0.1030
     49 H14         6.6273    1.8392    3.1938 H         1 <0>         0.0848
     50 H15         6.0514    4.0744    4.0998 H         1 <0>         0.0821
     51 H16         6.0239    3.3997    5.7467 H         1 <0>         0.0831
     52 H17         8.4064    2.7507    5.5207 H         1 <0>         0.0936
     53 H18         8.4339    3.4254    3.8738 H         1 <0>         0.0941
     54 H19         7.5350    5.4344    5.6436 H         1 <0>         0.4349
     55 H20         9.0840    7.0460    6.3297 H         1 <0>         0.4404
     56 H21        10.3784    3.5488    4.9187 H         1 <0>         0.4407
     57 H22        11.4816    4.7147    5.4147 H         1 <0>         0.4405
     58 H23         3.4104    2.3864    5.6575 H         1 <0>         0.4035
     59 H24         1.9137    1.4120    7.0114 H         1 <0>         0.0626
     60 H25         2.1382   -0.3512    7.1058 H         1 <0>         0.0699
     61 H26         0.6544    0.4555    8.9213 H         1 <0>         0.0755
     62 H27         1.9024   -0.5451   10.8159 H         1 <0>         0.0658
     63 H28         2.1316   -1.4941    9.3276 H         1 <0>         0.0645
     64 H29         4.2858   -1.1566   10.5085 H         1 <0>         0.0749
     65 H30         4.2589   -1.2927    8.0327 H         1 <0>         0.0708
     66 H31         5.5451   -0.2001    8.5985 H         1 <0>         0.0652
     67 H32         3.7079    0.9884   11.6102 H         1 <0>         0.0659
     68 H33         5.2234    1.1319   10.6877 H         1 <0>         0.0605
     69 H34         3.7461    3.0816   10.2814 H         1 <0>         0.0724
     70 H35         1.5920    2.7441    9.1005 H         1 <0>         0.0624
     71 H36         1.5873    1.9298   10.6833 H         1 <0>         0.0668
     72 H37         5.2300    2.2748    8.4659 H         1 <0>         0.0614
     73 H38         3.7192    2.9455    7.8056 H         1 <0>         0.0624
     74 H39        10.7327    6.7383    6.2311 H         1 <0>         0.4408
@<TRIPOS>BOND
     1    1    6 ar
     2    1    2 ar
     3    1   38 1
     4    2    3 ar
     5    2   39 1
     6    3    4 ar
     7    3   40 1
     8    4    5 ar
     9    4    7 1
    10    5    6 ar
    11    5   41 1
    12    6   42 1
    13    7    8 1
    14    7   43 1
    15    7   44 1
    16    8    9 1
    17    8   10 1
    18    8   13 1
    19   10   11 2
    20   10   12 am
    21   12   45 1
    22   12   46 1
    23   13   14 am
    24   13   47 1
    25   14   15 2
    26   14   16 1
    27   16   17 1
    28   16   18 1
    29   16   25 1
    30   18   19 1
    31   18   48 1
    32   18   49 1
    33   19   20 1
    34   19   50 1
    35   19   51 1
    36   20   21 1
    37   20   52 1
    38   20   53 1
    39   21   22 1
    40   21   54 1
    41   22   23 2
    42   22   24 1
    43   23   55 1
    44   23   74 1
    45   24   56 1
    46   24   57 1
    47   25   26 am
    48   25   58 1
    49   26   27 2
    50   26   28 1
    51   28   33 1
    52   28   37 1
    53   28   29 1
    54   29   30 1
    55   29   59 1
    56   29   60 1
    57   30   36 1
    58   30   31 1
    59   30   61 1
    60   31   32 1
    61   31   62 1
    62   31   63 1
    63   32   33 1
    64   32   34 1
    65   32   64 1
    66   33   65 1
    67   33   66 1
    68   34   35 1
    69   34   67 1
    70   34   68 1
    71   35   36 1
    72   35   37 1
    73   35   69 1
    74   36   70 1
    75   36   71 1
    76   37   72 1
    77   37   73 1
@<TRIPOS>MOLECULE
ZINC01571009
   72    73     0     0     0
SMALL
USER_CHARGES

@<TRIPOS>ATOM
      1 C1         -0.6681    1.1366   -1.8445 C.3       1 <0>        -0.1640
      2 C2         -0.7496   -0.1832   -1.0749 C.3       1 <0>        -0.0651
      3 C3         -0.2577    0.0307    0.3579 C.3       1 <0>        -0.1564
      4 C4         -2.2000   -0.6697   -1.0490 C.3       1 <0>        -0.1430
      5 C5          0.1273   -1.2305   -1.7642 C.3       1 <0>        -0.1062
      6 C6          1.5959   -0.8139   -1.6608 C.3       1 <0>        -0.0174
      7 C7          1.7057    0.7061   -1.7971 C.3       1 <0>        -0.1707
      8 C8          2.1542   -1.2459   -0.3034 C.3       1 <0>        -0.1501
      9 C9          2.3844   -1.4752   -2.7617 C.ar      1 <0>        -0.0940
     10 C10         1.7463   -2.3055   -3.6646 C.ar      1 <0>        -0.0844
     11 C11         2.4669   -2.9133   -4.6745 C.ar      1 <0>        -0.1457
     12 C12         3.8318   -2.6896   -4.7824 C.ar      1 <0>         0.1159
     13 C13         4.4696   -1.8557   -3.8755 C.ar      1 <0>        -0.2054
     14 C14         3.7436   -1.2462   -2.8706 C.ar      1 <0>        -0.0757
     15 O1          4.5430   -3.2867   -5.7747 O.3       1 <0>        -0.3111
     16 C15         5.9442   -3.0108   -5.8249 C.3       1 <0>         0.0597
     17 C16         6.5708   -3.7655   -6.9991 C.3       1 <0>         0.0621
     18 O2          6.0419   -3.2604   -8.2267 O.3       1 <0>        -0.3842
     19 C17         6.5647   -3.9012   -9.3921 C.3       1 <0>         0.0311
     20 C18         5.9318   -3.2837  -10.6408 C.3       1 <0>        -0.0008
     21 N1          6.4116   -1.9047  -10.8021 N.4       1 <0>        -0.2643
     22 C19         6.1284   -1.1415   -9.5793 C.3       1 <0>        -0.0500
     23 C20         7.8598   -1.9157  -11.0480 C.3       1 <0>        -0.0552
     24 C21         5.7264   -1.2778  -11.9403 C.3       1 <0>         0.0440
     25 C22         6.2186    0.1369  -12.1058 C.ar      1 <0>        -0.1539
     26 C23         5.5838    1.1714  -11.4442 C.ar      1 <0>        -0.0963
     27 C24         6.0353    2.4691  -11.5960 C.ar      1 <0>        -0.1131
     28 C25         7.1219    2.7322  -12.4090 C.ar      1 <0>        -0.0857
     29 C26         7.7573    1.6976  -13.0698 C.ar      1 <0>        -0.1136
     30 C27         7.3084    0.3994  -12.9146 C.ar      1 <0>        -0.0977
     31 H1          0.1461    1.7409   -1.4444 H         1 <0>         0.0804
     32 H2         -0.4840    0.9315   -2.8991 H         1 <0>         0.0570
     33 H3         -1.6083    1.6778   -1.7384 H         1 <0>         0.0461
     34 H4         -1.0924    0.3422    0.9860 H         1 <0>         0.0523
     35 H5          0.1584   -0.9006    0.7421 H         1 <0>         0.0636
     36 H6          0.5114    0.8031    0.3666 H         1 <0>         0.0633
     37 H7         -2.5504   -0.8221   -2.0698 H         1 <0>         0.0529
     38 H8         -2.2580   -1.6100   -0.5007 H         1 <0>         0.0542
     39 H9         -2.8247    0.0764   -0.5579 H         1 <0>         0.0563
     40 H10        -0.0113   -2.1967   -1.2791 H         1 <0>         0.0661
     41 H11        -0.1555   -1.3071   -2.8141 H         1 <0>         0.0683
     42 H12         1.3982    1.1777   -0.8637 H         1 <0>         0.0769
     43 H13         2.7379    0.9774   -2.0185 H         1 <0>         0.0449
     44 H14         1.0591    1.0460   -2.6061 H         1 <0>         0.0819
     45 H15         1.7174   -2.2031   -0.0188 H         1 <0>         0.0574
     46 H16         3.2374   -1.3467   -0.3714 H         1 <0>         0.0522
     47 H17         1.9055   -0.4956    0.4472 H         1 <0>         0.0710
     48 H18         0.6838   -2.4793   -3.5802 H         1 <0>         0.1371
     49 H19         1.9682   -3.5623   -5.3791 H         1 <0>         0.1282
     50 H20         5.5321   -1.6800   -3.9574 H         1 <0>         0.1236
     51 H21         4.2388   -0.5935   -2.1669 H         1 <0>         0.1253
     52 H22         6.0992   -1.9400   -5.9570 H         1 <0>         0.0700
     53 H23         6.4116   -3.3335   -4.8946 H         1 <0>         0.0841
     54 H24         7.6519   -3.6267   -6.9848 H         1 <0>         0.0798
     55 H25         6.3397   -4.8273   -6.9134 H         1 <0>         0.0743
     56 H26         7.6456   -3.7652   -9.4275 H         1 <0>         0.0746
     57 H27         6.3334   -4.9657   -9.3561 H         1 <0>         0.0990
     58 H28         6.2097   -3.8699  -11.5167 H         1 <0>         0.1417
     59 H29         4.8470   -3.2809  -10.5348 H         1 <0>         0.1382
     60 H30         6.7412   -1.5232   -8.7627 H         1 <0>         0.1337
     61 H31         6.3594   -0.0894   -9.7459 H         1 <0>         0.1149
     62 H32         5.0743   -1.2457   -9.3219 H         1 <0>         0.1216
     63 H33         8.0700   -2.4820  -11.9554 H         1 <0>         0.1210
     64 H34         8.2158   -0.8925  -11.1677 H         1 <0>         0.1242
     65 H35         8.3682   -2.3809  -10.2035 H         1 <0>         0.1196
     66 H36         5.9365   -1.8441  -12.8476 H         1 <0>         0.1330
     67 H37         4.6518   -1.2696  -11.7578 H         1 <0>         0.1337
     68 H38         4.7348    0.9658  -10.8091 H         1 <0>         0.1312
     69 H39         5.5389    3.2774  -11.0797 H         1 <0>         0.1359
     70 H40         7.4742    3.7461  -12.5281 H         1 <0>         0.1356
     71 H41         8.6060    1.9032  -13.7052 H         1 <0>         0.1358
     72 H42         7.8072   -0.4094  -13.4280 H         1 <0>         0.1304
@<TRIPOS>BOND
     1    1    2 1
     2    1   31 1
     3    1   32 1
     4    1   33 1
     5    2    3 1
     6    2    4 1
     7    2    5 1
     8    3   34 1
     9    3   35 1
    10    3   36 1
    11    4   37 1
    12    4   38 1
    13    4   39 1
    14    5    6 1
    15    5   40 1
    16    5   41 1
    17    6    7 1
    18    6    8 1
    19    6    9 1
    20    7   42 1
    21    7   43 1
    22    7   44 1
    23    8   45 1
    24    8   46 1
    25    8   47 1
    26    9   14 ar
    27    9   10 ar
    28   10   11 ar
    29   10   48 1
    30   11   12 ar
    31   11   49 1
    32   12   13 ar
    33   12   15 1
    34   13   14 ar
    35   13   50 1
    36   14   51 1
    37   15   16 1
    38   16   17 1
    39   16   52 1
    40   16   53 1
    41   17   18 1
    42   17   54 1
    43   17   55 1
    44   18   19 1
    45   19   20 1
    46   19   56 1
    47   19   57 1
    48   20   21 1
    49   20   58 1
    50   20   59 1
    51   21   22 1
    52   21   23 1
    53   21   24 1
    54   22   60 1
    55   22   61 1
    56   22   62 1
    57   23   63 1
    58   23   64 1
    59   23   65 1
    60   24   25 1
    61   24   66 1
    62   24   67 1
    63   25   30 ar
    64   25   26 ar
    65   26   27 ar
    66   26   68 1
    67   27   28 ar
    68   27   69 1
    69   28   29 ar
    70   28   70 1
    71   29   30 ar
    72   29   71 1
    73   30   72 1
